Infrared Spectrum: Tetrachloroethene
Formula: C2 Cl4
CAS: 127-18-4
State: gas
Melting point: -19 C
Boiling point: 121 C
Class: IUPAC A
Instrument: IFS66V (Bruker)
Instrument parameters: KBr Beam Splitter; MCT Detector; Multipass cell
Sampling: 1 L/min Flow
Resolution: 0.2410
Temperature: 23 C
Pressure: 101.3 Pa
Origin: NIST, Analytical Chemistry Division, 301-975-3108
cm-1	(micromol/mol)-1m-1 (base 10)
575.05	-1.75091e-06
583.608	2.66738e-06
592.165	-6.39663e-07
600.723	-7.63873e-07
609.281	-8.71055e-07
617.838	-8.74074e-07
626.396	-7.40938e-07
634.954	-9.58542e-07
643.511	-2.62353e-07
652.069	-3.68764e-08
660.626	-2.90524e-07
669.184	2.82777e-07
677.742	-1.41829e-07
686.299	3.99681e-07
694.857	7.04796e-07
703.415	-1.06442e-07
711.972	-6.44558e-07
720.53	-1.57953e-07
729.088	9.40226e-08
737.645	1.96129e-06
746.203	2.25717e-05
754.761	5.17965e-05
763.318	4.16217e-05
771.876	0.000171769
780.434	0.000347656
788.991	0.00021202
797.549	0.00016205
806.106	0.000179625
814.664	3.52946e-05
823.222	9.25248e-06
831.779	7.99031e-06
840.337	2.83348e-07
848.895	2.983e-10
857.452	8.01953e-09
866.01	2.19367e-07
874.568	3.84201e-07
883.125	3.19888e-06
891.683	2.47326e-05
900.241	0.000122967
908.798	0.000811983
917.356	0.00143213
925.914	0.00077176
934.471	1.98947e-05
943.029	4.11217e-07
951.586	-2.38496e-07
960.144	-2.0093e-07
968.702	-1.92238e-07
977.259	2.5005e-07
985.817	9.34665e-07
994.375	8.42889e-07
1002.93	4.07179e-08
1011.49	2.32161e-07
1020.05	-3.83646e-07
1028.61	-4.29691e-07
1037.16	-1.7968e-07
1045.72	-2.11536e-07
1054.28	2.25364e-07
1062.84	-2.49295e-07
1071.39	-2.97852e-07
1079.95	4.70398e-07
1088.51	2.74469e-06
1097.07	7.18319e-06
1105.62	5.09168e-06
1114.18	6.25503e-06
1122.74	1.08453e-05
1131.3	8.30428e-06
1139.85	5.74477e-06
1148.41	6.99498e-06
1156.97	4.54881e-06
1165.53	1.85511e-06
1174.09	2.16937e-06
1182.64	1.78472e-06
1191.2	3.09e-07
1199.76	2.24534e-07
1208.32	1.95934e-07
1216.87	3.6428e-07
1225.43	1.0069e-06
1233.99	1.05075e-06
1242.55	5.22308e-07
1251.1	1.39094e-06
1259.66	1.89711e-06
1268.22	1.46713e-06
1276.78	3.7282e-07
1285.33	-1.88838e-08
1293.89	9.97998e-07
1302.45	1.01454e-06
1311.01	-6.62207e-08
1319.57	-7.90003e-08
1328.12	-3.08955e-07
1336.68	2.67762e-07
1345.24	1.48475e-06
1353.8	4.94344e-06
1362.35	6.39708e-06
1370.91	3.99539e-06
1379.47	5.61518e-07
1388.03	4.00696e-07
1396.58	1.42373e-07
1405.14	1.78227e-07
1413.7	-1.54137e-07
1422.26	-4.07641e-07
1430.81	-3.65073e-07
1439.37	-4.05735e-07
1447.93	1.00421e-08
1456.49	3.83108e-07
1465.05	-1.30706e-07
1473.6	3.30456e-07
1482.16	4.45612e-08
1490.72	-1.53779e-07
1499.28	-3.27899e-07
1507.83	-3.58454e-07
1516.39	-2.87119e-07
1524.95	-4.33773e-07
1533.51	-1.49876e-07
1542.06	5.57675e-07
1550.62	7.45003e-08
1559.18	1.43137e-07
1567.74	2.23883e-07
1576.29	1.09731e-06
1584.85	1.40856e-08
1593.41	4.92103e-08
1601.97	6.79377e-08
1610.53	-2.99677e-07
1619.08	-2.78063e-07
1627.64	-2.89885e-07
1636.2	-3.15623e-07
1644.76	-3.24883e-07
1653.31	1.28865e-06
1661.87	-3.48177e-07
1670.43	-2.78708e-07
1678.99	-4.57848e-07
1687.54	-3.4512e-07
1696.1	-4.60927e-08
1704.66	-3.43941e-07
1713.22	-2.44517e-07
1721.77	-2.65739e-07
1730.33	-1.70937e-07
1738.89	-6.12387e-08
1747.45	1.69687e-07
1756.01	2.78255e-07
1764.56	1.30724e-07
1773.12	7.33933e-07
1781.68	1.16832e-06
1790.24	3.8602e-07
1798.79	6.26802e-07
1807.35	3.36999e-07
1815.91	-6.21054e-07
1824.47	-8.2004e-07
1833.02	-8.97136e-07
1841.58	-8.70216e-07
1850.14	-4.83505e-07
1858.7	-3.15505e-07
1867.25	2.46388e-08
1875.81	4.95156e-07
1884.37	1.14484e-06
1892.93	8.73036e-07
1901.49	3.39165e-07
1910.04	6.25474e-07
1918.6	3.74792e-07
1927.16	-5.32257e-07
1935.72	-5.3344e-07
1944.27	-5.92378e-07
1952.83	-5.77899e-07
1961.39	-3.58985e-07
1969.95	-5.17364e-07
1978.5	-4.78089e-07
1987.06	-5.00247e-07
1995.62	-4.06959e-07
2004.18	-5.12853e-07
2012.73	-4.71754e-07
2021.29	-4.07079e-07
2029.85	-4.32267e-07
2038.41	-5.18632e-07
2046.97	-5.65789e-07
2055.52	-4.53055e-07
2064.08	-6.34451e-07
2072.64	-4.92444e-07
2081.2	-5.17208e-07
2089.75	-5.15018e-07
2098.31	-5.26402e-07
2106.87	-6.29963e-07
2115.43	-3.39496e-07
2123.98	-3.98123e-07
2132.54	-4.46256e-07
2141.1	-4.70622e-07
2149.66	-4.38761e-07
2158.21	-3.26503e-07
2166.77	-3.44323e-07
2175.33	-5.96083e-07
2183.89	6.0784e-08
2192.45	1.94502e-06
2201	4.33009e-07
2209.56	4.92912e-06
2218.12	8.06464e-08
2226.68	-5.54855e-08
2235.23	6.47843e-07
2243.79	3.38116e-06
2252.35	-2.61678e-07
2260.91	-3.90898e-07
2269.46	-3.72682e-07
2278.02	-5.44268e-07
2286.58	-5.52387e-07
2295.14	-4.32816e-07
2303.69	-4.63096e-07
2312.25	-6.41621e-07
2320.81	1.33924e-07
2329.37	-2.06865e-07
2337.93	2.45582e-07
2346.48	-2.48896e-07
2355.04	-2.5772e-08
2363.6	5.4967e-07
2372.16	5.72954e-10
2380.71	2.22451e-08
2389.27	-4.60513e-07
2397.83	-5.30891e-07
2406.39	-4.35436e-07
2414.94	-5.78028e-07
2423.5	-5.77102e-07
2432.06	-3.8796e-07
2440.62	-5.77272e-07
2449.17	-3.85019e-07
2457.73	-3.43647e-07
2466.29	-1.83629e-07
2474.85	2.38822e-08
2483.41	9.14848e-07
2491.96	1.73534e-06
2500.52	1.15864e-06
2509.08	-1.51534e-07
2517.64	-5.7379e-07
2526.19	-7.38335e-07
2534.75	-4.55975e-07
2543.31	-4.44094e-07
2551.87	-4.63416e-07
2560.42	-6.06305e-07
2568.98	-3.71512e-07
2577.54	-5.20687e-07
2586.1	-4.14496e-07
2594.65	-4.8995e-07
2603.21	-4.97364e-07
2611.77	-4.54305e-07
2620.33	-5.85731e-07
2628.89	-6.29623e-07
2637.44	-5.12033e-07
2646	-5.36248e-07
2654.56	-6.14912e-07
2663.12	-7.00213e-07
2671.67	-5.81424e-07
2680.23	-4.69927e-07
2688.79	-5.16051e-07
2697.35	-6.11849e-07
2705.9	-6.44695e-07
2714.46	-7.87622e-07
2723.02	-6.24223e-07
2731.58	-5.00314e-07
2740.13	-4.26405e-07
2748.69	-2.1469e-07
2757.25	-5.54239e-07
2765.81	-6.267e-07
2774.37	-2.05217e-07
2782.92	-4.60271e-07
2791.48	-3.93319e-07
2800.04	-5.19534e-07
2808.6	-5.4418e-07
2817.15	-5.9115e-07
2825.71	-5.18274e-07
2834.27	-5.42212e-07
2842.83	-5.07015e-07
2851.38	-5.2141e-07
2859.94	-5.11898e-07
2868.5	-4.36983e-07
2877.06	-3.52452e-07
2885.61	-2.03539e-07
2894.17	3.58487e-08
2902.73	1.44985e-08
2911.29	-2.21065e-07
2919.85	-2.66267e-07
2928.4	-5.39962e-07
2936.96	-3.54071e-07
2945.52	-3.55551e-07
2954.08	-3.2533e-07
2962.63	-1.22739e-07
2971.19	-5.12275e-08
2979.75	-3.40376e-07
2988.31	-2.45049e-07
2996.86	-2.77493e-07
3005.42	-5.24569e-07
3013.98	-4.48466e-07
3022.54	-4.92267e-07
3031.09	-4.91703e-07
3039.65	-6.49471e-07
3048.21	-5.06524e-07
3056.77	-6.22164e-07
3065.33	-4.95596e-07
3073.88	-5.7213e-07
3082.44	-5.92692e-07
3091	-3.75508e-07
3099.56	-6.0949e-07
3108.11	-3.80712e-07
3116.67	-6.02758e-07
3125.23	-4.87876e-07
3133.79	-3.31695e-07
3142.34	-3.81232e-07
3150.9	-5.6268e-07
3159.46	-4.01004e-07
3168.02	-2.26173e-07
3176.57	-3.01446e-07
3185.13	-3.45074e-07
3193.69	-4.96272e-07
3202.25	-1.71277e-07
3210.81	-2.96513e-07
3219.36	-4.17743e-07
3227.92	-5.41379e-07
3236.48	-3.25121e-07
3245.04	-4.94895e-07
3253.59	-5.04899e-07
3262.15	-2.41797e-07
3270.71	-3.06152e-07
3279.27	-1.23338e-07
3287.82	-5.05192e-07
3296.38	-1.61426e-07
3304.94	-3.546e-07
3313.5	-1.41869e-07
3322.05	-5.52211e-07
3330.61	-4.72216e-07
3339.17	-2.73237e-07
3347.73	-6.42097e-07
3356.29	-3.19204e-07
3364.84	-5.00634e-07
3373.4	-2.94513e-07
3381.96	-5.22905e-07
3390.52	-4.76521e-07
3399.07	-3.07096e-07
3407.63	-3.16812e-07
3416.19	-5.12526e-07
3424.75	-4.59083e-07
3433.3	-1.84999e-07
3441.86	-5.2711e-07
3450.42	-4.53055e-07
3458.98	-2.28494e-07
3467.53	-2.88414e-07
3476.09	-3.71234e-07
3484.65	-2.71769e-07
3493.21	-4.37789e-07
3501.77	-4.05169e-07
3510.32	-8.47225e-07
3518.88	-6.75119e-07
3527.44	-3.36587e-07
3536	-4.34177e-07
3544.55	-3.82367e-07
3553.11	-5.71728e-07
3561.67	-4.79804e-07
3570.23	-3.36247e-07
3578.78	-3.78604e-07
3587.34	-5.58113e-07
3595.9	-9.70347e-08
3604.46	-4.4304e-07
3613.01	-6.63371e-07
3621.57	-6.28945e-07
3630.13	-5.36288e-07
3638.69	-4.80743e-07
3647.25	-4.8201e-07
3655.8	-8.37291e-07
3664.36	-8.75988e-07
3672.92	-5.20986e-07
3681.48	-7.12354e-07
3690.03	-8.89102e-07
3698.59	-6.57218e-07
3707.15	-5.18019e-07
3715.71	-3.31475e-07
3724.26	-3.5e-07
3732.82	-7.79608e-07
3741.38	-5.3717e-07
3749.94	-4.22281e-07
3758.49	-1.32481e-07
3767.05	-4.3119e-07
3775.61	-5.63561e-07
3784.17	-4.72408e-07
3792.73	-6.64089e-07
3801.28	-1.00949e-08
3809.84	-2.40919e-07
3818.4	-4.13938e-07
3826.96	-7.60113e-07
3835.51	-6.21258e-07
3844.07	-9.92292e-07
3852.63	-4.02212e-07
3861.19	-3.85039e-07
3869.74	-4.29495e-07
3878.3	-7.69868e-07
3886.86	-5.42958e-07
3895.42	-4.74242e-07
3903.97	-3.80632e-07
3912.53	-6.80874e-07
3921.09	-8.61775e-07
3929.65	-7.12321e-07
3938.21	-6.67163e-07
3946.76	-6.49213e-07
3955.32	-3.7368e-07
3963.88	-6.37281e-07
3972.44	-9.00577e-07
