Infrared Spectrum: Tetrachloroethene
Formula: C2 Cl4
CAS: 127-18-4
State: gas
Melting point: -19 C
Boiling point: 121 C
Class: IUPAC A
Instrument: IFS66V (Bruker)
Instrument parameters: KBr Beam Splitter; MCT Detector; Multipass cell
Sampling: 1 L/min Flow
Resolution: 0.2410
Temperature: 23 C
Pressure: 101.3 Pa
Origin: NIST, Analytical Chemistry Division, 301-975-3108
cm-1	(micromol/mol)-1m-1 (base 10)
575.05	-6.17617e-07
583.608	1.10093e-06
592.165	2.06372e-08
600.723	-5.2851e-07
609.281	-3.7505e-07
617.838	-3.06947e-07
626.396	-2.65878e-07
634.954	-5.54539e-07
643.511	-3.63713e-07
652.069	1.51696e-08
660.626	-4.3137e-08
669.184	8.04445e-08
677.742	3.12654e-07
686.299	7.1936e-07
694.857	5.54959e-07
703.415	-1.52478e-07
711.972	-5.45124e-07
720.53	-1.67051e-07
729.088	3.16205e-07
737.645	2.08253e-06
746.203	2.25487e-05
754.761	5.17808e-05
763.318	4.1626e-05
771.876	0.000171855
780.434	0.000347858
788.991	0.000211989
797.549	0.000162601
806.106	0.0001793
814.664	3.49908e-05
823.222	9.05386e-06
831.779	7.53342e-06
840.337	3.04487e-07
848.895	1.88067e-07
857.452	4.33135e-08
866.01	1.25293e-07
874.568	4.56186e-07
883.125	3.21997e-06
891.683	2.46879e-05
900.241	0.000123029
908.798	0.000812222
917.356	0.00143213
925.914	0.000771655
934.471	1.99369e-05
943.029	4.26645e-07
951.586	-4.138e-09
960.144	-2.06843e-07
968.702	-1.67981e-07
977.259	2.05938e-07
985.817	9.90442e-07
994.375	7.61446e-07
1002.93	1.01918e-07
1011.49	2.76911e-07
1020.05	-2.18546e-07
1028.61	-3.61583e-07
1037.16	-1.8175e-07
1045.72	-3.09628e-07
1054.28	8.64778e-08
1062.84	-1.93995e-07
1071.39	-1.13341e-07
1079.95	3.74597e-07
1088.51	2.81583e-06
1097.07	7.16013e-06
1105.62	5.26448e-06
1114.18	6.31934e-06
1122.74	1.07844e-05
1131.3	8.23698e-06
1139.85	5.73742e-06
1148.41	7.09599e-06
1156.97	4.55208e-06
1165.53	1.84566e-06
1174.09	2.20172e-06
1182.64	1.69732e-06
1191.2	3.19524e-07
1199.76	2.27375e-07
1208.32	1.22188e-07
1216.87	3.87369e-07
1225.43	1.06624e-06
1233.99	9.85824e-07
1242.55	5.93214e-07
1251.1	1.37859e-06
1259.66	1.89746e-06
1268.22	1.59249e-06
1276.78	2.83379e-07
1285.33	-6.05166e-08
1293.89	8.01726e-07
1302.45	7.95631e-07
1311.01	-7.63174e-08
1319.57	-1.24138e-07
1328.12	-2.34573e-07
1336.68	1.79145e-07
1345.24	1.46553e-06
1353.8	4.81594e-06
1362.35	6.52583e-06
1370.91	3.95402e-06
1379.47	5.25426e-07
1388.03	3.75577e-07
1396.58	2.29771e-07
1405.14	1.65751e-07
1413.7	-1.89644e-07
1422.26	-3.58289e-07
1430.81	-3.10603e-07
1439.37	-3.81993e-07
1447.93	-1.00889e-07
1456.49	1.84626e-07
1465.05	-7.76488e-08
1473.6	3.05237e-07
1482.16	-7.72178e-08
1490.72	-1.40163e-07
1499.28	-3.60266e-07
1507.83	-3.79475e-07
1516.39	-3.20126e-07
1524.95	-3.87357e-07
1533.51	-1.56169e-07
1542.06	5.46301e-07
1550.62	3.89499e-08
1559.18	1.53082e-07
1567.74	2.11274e-07
1576.29	1.19093e-06
1584.85	4.91721e-08
1593.41	7.59063e-08
1601.97	2.50026e-08
1610.53	-2.89187e-07
1619.08	-2.54646e-07
1627.64	-2.70238e-07
1636.2	-2.52585e-07
1644.76	-3.41284e-07
1653.31	1.0904e-06
1661.87	-2.96752e-07
1670.43	-2.98589e-07
1678.99	-3.95618e-07
1687.54	-3.65455e-07
1696.1	1.87754e-07
1704.66	-2.95937e-07
1713.22	-2.81558e-07
1721.77	-2.69739e-07
1730.33	-1.57757e-07
1738.89	-3.90209e-08
1747.45	1.71308e-07
1756.01	1.91794e-07
1764.56	7.74906e-08
1773.12	7.58729e-07
1781.68	1.12375e-06
1790.24	4.6307e-07
1798.79	6.30638e-07
1807.35	3.73549e-07
1815.91	-6.07249e-07
1824.47	-7.92186e-07
1833.02	-8.75337e-07
1841.58	-8.33322e-07
1850.14	-5.03422e-07
1858.7	-2.58064e-07
1867.25	2.93079e-08
1875.81	4.19566e-07
1884.37	1.09526e-06
1892.93	8.97543e-07
1901.49	3.87211e-07
1910.04	6.40306e-07
1918.6	4.08107e-07
1927.16	-5.15209e-07
1935.72	-5.10922e-07
1944.27	-5.93312e-07
1952.83	-5.20831e-07
1961.39	-4.55294e-07
1969.95	-5.26215e-07
1978.5	-4.80264e-07
1987.06	-4.49001e-07
1995.62	-4.16326e-07
2004.18	-4.95661e-07
2012.73	-4.48641e-07
2021.29	-4.3993e-07
2029.85	-4.4987e-07
2038.41	-4.95681e-07
2046.97	-5.11946e-07
2055.52	-5.06913e-07
2064.08	-5.54148e-07
2072.64	-4.88678e-07
2081.2	-5.34453e-07
2089.75	-5.09472e-07
2098.31	-5.54057e-07
2106.87	-6.03697e-07
2115.43	-3.59904e-07
2123.98	-4.24169e-07
2132.54	-3.99985e-07
2141.1	-4.86317e-07
2149.66	-4.48517e-07
2158.21	-3.19739e-07
2166.77	-4.16037e-07
2175.33	-5.10787e-07
2183.89	2.82621e-08
2192.45	1.36882e-06
2201	4.65849e-07
2209.56	3.63773e-06
2218.12	2.14277e-07
2226.68	6.92637e-09
2235.23	8.42482e-07
2243.79	2.50983e-06
2252.35	-1.66468e-07
2260.91	-3.92113e-07
2269.46	-4.39046e-07
2278.02	-5.42523e-07
2286.58	-5.33123e-07
2295.14	-4.47499e-07
2303.69	-4.66295e-07
2312.25	-5.11562e-07
2320.81	-2.32037e-08
2329.37	-2.04339e-07
2337.93	4.14569e-07
2346.48	-1.97396e-07
2355.04	-1.5377e-08
2363.6	3.91331e-07
2372.16	1.24085e-07
2380.71	-9.64854e-08
2389.27	-4.2796e-07
2397.83	-4.73503e-07
2406.39	-4.62317e-07
2414.94	-5.07602e-07
2423.5	-5.03974e-07
2432.06	-4.62703e-07
2440.62	-5.3074e-07
2449.17	-3.91295e-07
2457.73	-3.63536e-07
2466.29	-2.26344e-07
2474.85	2.74035e-08
2483.41	8.95326e-07
2491.96	1.67908e-06
2500.52	1.19751e-06
2509.08	-1.1022e-07
2517.64	-4.92151e-07
2526.19	-6.44187e-07
2534.75	-5.23938e-07
2543.31	-4.56986e-07
2551.87	-4.54707e-07
2560.42	-5.91881e-07
2568.98	-4.11866e-07
2577.54	-5.03592e-07
2586.1	-3.96446e-07
2594.65	-4.9089e-07
2603.21	-4.81756e-07
2611.77	-4.8332e-07
2620.33	-5.59288e-07
2628.89	-5.16757e-07
2637.44	-5.28394e-07
2646	-5.32308e-07
2654.56	-6.04821e-07
2663.12	-6.68962e-07
2671.67	-4.96833e-07
2680.23	-5.35057e-07
2688.79	-4.79458e-07
2697.35	-6.01723e-07
2705.9	-5.96914e-07
2714.46	-7.27238e-07
2723.02	-6.10065e-07
2731.58	-4.81332e-07
2740.13	-4.87718e-07
2748.69	-2.63908e-07
2757.25	-5.16686e-07
2765.81	-5.56909e-07
2774.37	-2.54806e-07
2782.92	-3.85007e-07
2791.48	-3.68404e-07
2800.04	-4.68252e-07
2808.6	-5.8591e-07
2817.15	-5.5698e-07
2825.71	-4.71202e-07
2834.27	-5.82996e-07
2842.83	-4.41189e-07
2851.38	-5.1775e-07
2859.94	-4.91854e-07
2868.5	-3.3507e-07
2877.06	-2.90766e-07
2885.61	-1.79316e-07
2894.17	2.09155e-08
2902.73	1.21994e-08
2911.29	-1.34202e-07
2919.85	-3.55248e-07
2928.4	-5.13374e-07
2936.96	-3.08196e-07
2945.52	-3.76991e-07
2954.08	-2.94202e-07
2962.63	5.14567e-09
2971.19	-1.71029e-07
2979.75	-3.22287e-07
2988.31	-2.18203e-07
2996.86	-3.60662e-07
3005.42	-5.36817e-07
3013.98	-4.5699e-07
3022.54	-4.4833e-07
3031.09	-4.7416e-07
3039.65	-5.89804e-07
3048.21	-5.29364e-07
3056.77	-5.84986e-07
3065.33	-5.25211e-07
3073.88	-4.98113e-07
3082.44	-6.04919e-07
3091	-4.76514e-07
3099.56	-5.55745e-07
3108.11	-3.51328e-07
3116.67	-5.33327e-07
3125.23	-4.06093e-07
3133.79	-3.43665e-07
3142.34	-2.76291e-07
3150.9	-4.27925e-07
3159.46	-3.3276e-07
3168.02	-2.12868e-07
3176.57	-3.17409e-07
3185.13	-2.97567e-07
3193.69	-5.44439e-07
3202.25	-2.56238e-07
3210.81	-2.7285e-07
3219.36	-4.33402e-07
3227.92	-5.00834e-07
3236.48	-3.79721e-07
3245.04	-4.50296e-07
3253.59	-4.32314e-07
3262.15	-1.8657e-07
3270.71	-3.59786e-07
3279.27	-1.90239e-07
3287.82	-3.76529e-07
3296.38	-1.9738e-07
3304.94	-3.16076e-07
3313.5	-2.44986e-07
3322.05	-4.35243e-07
3330.61	-4.40767e-07
3339.17	-2.96513e-07
3347.73	-5.65398e-07
3356.29	-3.04049e-07
3364.84	-4.45094e-07
3373.4	-3.36622e-07
3381.96	-4.95965e-07
3390.52	-3.94334e-07
3399.07	-3.43103e-07
3407.63	-3.74517e-07
3416.19	-4.89195e-07
3424.75	-4.84577e-07
3433.3	-2.61165e-07
3441.86	-4.48341e-07
3450.42	-4.03241e-07
3458.98	-3.63862e-07
3467.53	-3.2583e-07
3476.09	-3.70912e-07
3484.65	-4.34928e-07
3493.21	-4.15055e-07
3501.77	-4.60553e-07
3510.32	-7.28366e-07
3518.88	-6.23081e-07
3527.44	-3.89163e-07
3536	-4.39268e-07
3544.55	-3.60437e-07
3553.11	-5.35239e-07
3561.67	-4.42298e-07
3570.23	-4.08119e-07
3578.78	-2.79407e-07
3587.34	-4.5652e-07
3595.9	-2.28299e-07
3604.46	-4.17438e-07
3613.01	-5.53188e-07
3621.57	-5.65592e-07
3630.13	-5.13679e-07
3638.69	-3.98737e-07
3647.25	-4.97198e-07
3655.8	-6.73852e-07
3664.36	-6.7931e-07
3672.92	-5.22786e-07
3681.48	-6.81758e-07
3690.03	-7.49178e-07
3698.59	-6.65834e-07
3707.15	-5.24387e-07
3715.71	-4.4712e-07
3724.26	-3.97701e-07
3732.82	-6.86995e-07
3741.38	-4.3139e-07
3749.94	-4.93575e-07
3758.49	-4.07059e-07
3767.05	-4.44485e-07
3775.61	-5.67893e-07
3784.17	-6.01325e-07
3792.73	-7.08867e-07
3801.28	3.80314e-08
3809.84	-4.21914e-07
3818.4	-5.51623e-07
3826.96	-5.98067e-07
3835.51	-6.31982e-07
3844.07	-7.28582e-07
3852.63	-4.57997e-07
3861.19	-5.07024e-07
3869.74	-5.04525e-07
3878.3	-7.10675e-07
3886.86	-6.41082e-07
3895.42	-5.11002e-07
3903.97	-3.94869e-07
3912.53	-7.05788e-07
3921.09	-7.72038e-07
3929.65	-7.10695e-07
3938.21	-6.66725e-07
3946.76	-6.66874e-07
3955.32	-5.38951e-07
3963.88	-6.75558e-07
3972.44	-6.3894e-07
