Infrared Spectrum: Tetrachloroethene
Formula: C2 Cl4
CAS: 127-18-4
State: gas
Melting point: -19 C
Boiling point: 121 C
Class: IUPAC A
Instrument: IFS66V (Bruker)
Instrument parameters: KBr Beam Splitter; MCT Detector; Multipass cell
Sampling: 1 L/min Flow
Resolution: 0.1250
Temperature: 23 C
Pressure: 101.3 Pa
Origin: NIST, Analytical Chemistry Division, 301-975-3108
cm-1	(micromol/mol)-1m-1 (base 10)
575.05	-1.48096e-06
583.608	1.98074e-06
592.165	-4.7514e-07
600.723	-7.99287e-07
609.281	-7.09957e-07
617.838	-3.55715e-07
626.396	-7.46144e-07
634.954	-7.93373e-07
643.511	-3.32364e-07
652.069	4.92413e-08
660.626	-2.05787e-07
669.184	4.08327e-07
677.742	1.91494e-07
686.299	6.09606e-07
694.857	5.97969e-07
703.415	-7.86365e-08
711.972	-6.06281e-07
720.53	-3.39601e-07
729.088	1.4959e-07
737.645	1.99202e-06
746.203	2.25066e-05
754.761	5.17716e-05
763.318	4.16464e-05
771.876	0.000171668
780.434	0.000347907
788.991	0.000211928
797.549	0.000162164
806.106	0.000179411
814.664	3.51417e-05
823.222	9.19547e-06
831.779	7.87321e-06
840.337	2.35309e-07
848.895	5.78174e-08
857.452	7.00695e-08
866.01	1.46843e-07
874.568	3.69133e-07
883.125	3.2062e-06
891.683	2.48084e-05
900.241	0.000122955
908.798	0.000811988
917.356	0.00143194
925.914	0.000771847
934.471	1.98722e-05
943.029	4.29359e-07
951.586	-1.6903e-07
960.144	-1.26599e-07
968.702	-1.96123e-07
977.259	2.1134e-07
985.817	9.72913e-07
994.375	8.05955e-07
1002.93	1.26857e-07
1011.49	2.50506e-07
1020.05	-3.47028e-07
1028.61	-3.50091e-07
1037.16	-1.05947e-07
1045.72	-2.54902e-07
1054.28	1.12335e-07
1062.84	-2.02813e-07
1071.39	-2.52596e-07
1079.95	4.48632e-07
1088.51	2.80777e-06
1097.07	7.20591e-06
1105.62	5.25777e-06
1114.18	6.25525e-06
1122.74	1.08359e-05
1131.3	8.26354e-06
1139.85	5.67458e-06
1148.41	7.06827e-06
1156.97	4.55995e-06
1165.53	1.86885e-06
1174.09	2.1789e-06
1182.64	1.75449e-06
1191.2	3.23488e-07
1199.76	1.85511e-07
1208.32	1.54883e-07
1216.87	4.09105e-07
1225.43	1.06204e-06
1233.99	1.08342e-06
1242.55	5.54968e-07
1251.1	1.38816e-06
1259.66	1.90823e-06
1268.22	1.50816e-06
1276.78	4.0789e-07
1285.33	1.39764e-08
1293.89	9.2074e-07
1302.45	9.70467e-07
1311.01	-1.4784e-08
1319.57	-9.66072e-08
1328.12	-2.41695e-07
1336.68	2.62636e-07
1345.24	1.49174e-06
1353.8	4.89725e-06
1362.35	6.43849e-06
1370.91	4.01318e-06
1379.47	5.94125e-07
1388.03	3.82808e-07
1396.58	1.7643e-07
1405.14	1.51756e-07
1413.7	-1.39444e-07
1422.26	-4.16839e-07
1430.81	-3.04069e-07
1439.37	-4.04432e-07
1447.93	-5.16513e-08
1456.49	3.36218e-07
1465.05	-8.56211e-08
1473.6	3.23499e-07
1482.16	-3.82151e-09
1490.72	-1.09802e-07
1499.28	-3.58767e-07
1507.83	-3.55979e-07
1516.39	-3.00782e-07
1524.95	-3.95818e-07
1533.51	-1.58634e-07
1542.06	5.35315e-07
1550.62	7.34908e-08
1559.18	1.58779e-07
1567.74	2.13339e-07
1576.29	1.17158e-06
1584.85	2.00825e-08
1593.41	6.69774e-08
1601.97	3.31931e-08
1610.53	-2.59755e-07
1619.08	-2.36637e-07
1627.64	-2.80323e-07
1636.2	-2.70761e-07
1644.76	-3.40771e-07
1653.31	1.24216e-06
1661.87	-3.54394e-07
1670.43	-2.99076e-07
1678.99	-4.54412e-07
1687.54	-3.44991e-07
1696.1	6.84488e-08
1704.66	-3.30591e-07
1713.22	-2.43902e-07
1721.77	-2.28579e-07
1730.33	-1.51192e-07
1738.89	-8.38458e-08
1747.45	1.7564e-07
1756.01	2.76546e-07
1764.56	6.10423e-08
1773.12	7.53932e-07
1781.68	1.13143e-06
1790.24	4.38871e-07
1798.79	6.00268e-07
1807.35	3.52185e-07
1815.91	-6.4149e-07
1824.47	-7.869e-07
1833.02	-8.91387e-07
1841.58	-8.32471e-07
1850.14	-5.04503e-07
1858.7	-3.02914e-07
1867.25	2.57665e-08
1875.81	4.78047e-07
1884.37	1.13536e-06
1892.93	8.74616e-07
1901.49	3.53089e-07
1910.04	6.4343e-07
1918.6	3.76603e-07
1927.16	-5.12481e-07
1935.72	-5.1042e-07
1944.27	-6.19947e-07
1952.83	-5.67275e-07
1961.39	-3.76698e-07
1969.95	-5.28634e-07
1978.5	-4.80513e-07
1987.06	-5.04439e-07
1995.62	-4.52035e-07
2004.18	-4.59294e-07
2012.73	-4.90279e-07
2021.29	-3.93275e-07
2029.85	-4.62081e-07
2038.41	-5.15023e-07
2046.97	-5.47644e-07
2055.52	-4.8254e-07
2064.08	-5.64616e-07
2072.64	-4.76839e-07
2081.2	-5.28232e-07
2089.75	-5.00549e-07
2098.31	-5.16491e-07
2106.87	-6.43429e-07
2115.43	-3.68915e-07
2123.98	-4.41569e-07
2132.54	-4.15773e-07
2141.1	-4.62484e-07
2149.66	-4.60795e-07
2158.21	-3.35944e-07
2166.77	-4.01175e-07
2175.33	-5.47136e-07
2183.89	1.54006e-08
2192.45	1.76514e-06
2201	3.14202e-07
2209.56	4.52974e-06
2218.12	1.51898e-07
2226.68	-8.91079e-09
2235.23	6.49173e-07
2243.79	3.15667e-06
2252.35	-2.27393e-07
2260.91	-3.72633e-07
2269.46	-3.42295e-07
2278.02	-5.64476e-07
2286.58	-5.51871e-07
2295.14	-4.92413e-07
2303.69	-4.67912e-07
2312.25	-5.79476e-07
2320.81	2.34729e-08
2329.37	-1.75431e-07
2337.93	1.85042e-07
2346.48	-2.01703e-07
2355.04	-9.92574e-09
2363.6	4.2444e-07
2372.16	1.5525e-07
2380.71	-3.72147e-09
2389.27	-4.82327e-07
2397.83	-5.10734e-07
2406.39	-4.43762e-07
2414.94	-5.49348e-07
2423.5	-5.23583e-07
2432.06	-4.29177e-07
2440.62	-5.77835e-07
2449.17	-3.7776e-07
2457.73	-3.3869e-07
2466.29	-2.05803e-07
2474.85	7.89075e-08
2483.41	8.97243e-07
2491.96	1.7083e-06
2500.52	1.19997e-06
2509.08	-1.34389e-07
2517.64	-5.55843e-07
2526.19	-7.29261e-07
2534.75	-4.65069e-07
2543.31	-4.73605e-07
2551.87	-5.01312e-07
2560.42	-6.27055e-07
2568.98	-3.54644e-07
2577.54	-4.69223e-07
2586.1	-3.99298e-07
2594.65	-4.79373e-07
2603.21	-5.31872e-07
2611.77	-5.02857e-07
2620.33	-5.65871e-07
2628.89	-5.71095e-07
2637.44	-4.48357e-07
2646	-5.49573e-07
2654.56	-6.21727e-07
2663.12	-6.85773e-07
2671.67	-5.24543e-07
2680.23	-4.8981e-07
2688.79	-5.27919e-07
2697.35	-5.8142e-07
2705.9	-5.85771e-07
2714.46	-7.71285e-07
2723.02	-6.75825e-07
2731.58	-4.96616e-07
2740.13	-4.52077e-07
2748.69	-2.48951e-07
2757.25	-5.32643e-07
2765.81	-6.13722e-07
2774.37	-2.09081e-07
2782.92	-4.09009e-07
2791.48	-3.76132e-07
2800.04	-5.43025e-07
2808.6	-5.57609e-07
2817.15	-5.71062e-07
2825.71	-4.77672e-07
2834.27	-5.83738e-07
2842.83	-4.80306e-07
2851.38	-5.47356e-07
2859.94	-5.12371e-07
2868.5	-3.63203e-07
2877.06	-3.62738e-07
2885.61	-1.72735e-07
2894.17	3.54031e-08
2902.73	4.31916e-08
2911.29	-1.50907e-07
2919.85	-2.81897e-07
2928.4	-5.62098e-07
2936.96	-3.43907e-07
2945.52	-4.06877e-07
2954.08	-3.06477e-07
2962.63	-9.21618e-08
2971.19	-9.85571e-08
2979.75	-2.95409e-07
2988.31	-2.29201e-07
2996.86	-3.35913e-07
3005.42	-5.44515e-07
3013.98	-4.84137e-07
3022.54	-5.27734e-07
3031.09	-4.63001e-07
3039.65	-6.1688e-07
3048.21	-4.97193e-07
3056.77	-6.3265e-07
3065.33	-5.24303e-07
3073.88	-5.56256e-07
3082.44	-5.88762e-07
3091	-4.49327e-07
3099.56	-5.48309e-07
3108.11	-3.37841e-07
3116.67	-5.55381e-07
3125.23	-4.82891e-07
3133.79	-3.3048e-07
3142.34	-2.80585e-07
3150.9	-5.50637e-07
3159.46	-3.71059e-07
3168.02	-1.79362e-07
3176.57	-2.52816e-07
3185.13	-4.4176e-07
3193.69	-5.17341e-07
3202.25	-2.16973e-07
3210.81	-2.47832e-07
3219.36	-3.6956e-07
3227.92	-5.33545e-07
3236.48	-2.89411e-07
3245.04	-4.73083e-07
3253.59	-4.30437e-07
3262.15	-1.92349e-07
3270.71	-3.35065e-07
3279.27	-1.30692e-07
3287.82	-4.49852e-07
3296.38	-1.19151e-07
3304.94	-3.64808e-07
3313.5	-1.84038e-07
3322.05	-4.93895e-07
3330.61	-4.73712e-07
3339.17	-2.94747e-07
3347.73	-6.36562e-07
3356.29	-3.05704e-07
3364.84	-4.61579e-07
3373.4	-3.17529e-07
3381.96	-5.29285e-07
3390.52	-5.12617e-07
3399.07	-3.4474e-07
3407.63	-3.22176e-07
3416.19	-4.90656e-07
3424.75	-5.41145e-07
3433.3	-2.30404e-07
3441.86	-4.69343e-07
3450.42	-4.71286e-07
3458.98	-2.88536e-07
3467.53	-3.41022e-07
3476.09	-3.83284e-07
3484.65	-3.10701e-07
3493.21	-3.92304e-07
3501.77	-4.49214e-07
3510.32	-8.45525e-07
3518.88	-6.16003e-07
3527.44	-3.8302e-07
3536	-4.41345e-07
3544.55	-3.69775e-07
3553.11	-5.57878e-07
3561.67	-5.00458e-07
3570.23	-3.37253e-07
3578.78	-3.06301e-07
3587.34	-5.2036e-07
3595.9	-1.82867e-07
3604.46	-4.55089e-07
3613.01	-5.85953e-07
3621.57	-5.54175e-07
3630.13	-5.00861e-07
3638.69	-4.76159e-07
3647.25	-4.95556e-07
3655.8	-7.85807e-07
3664.36	-7.7358e-07
3672.92	-5.4633e-07
3681.48	-6.98336e-07
3690.03	-7.74309e-07
3698.59	-6.85536e-07
3707.15	-5.74623e-07
3715.71	-3.59546e-07
3724.26	-4.3678e-07
3732.82	-7.34548e-07
3741.38	-4.43059e-07
3749.94	-5.31899e-07
3758.49	-2.30908e-07
3767.05	-4.75364e-07
3775.61	-5.58426e-07
3784.17	-4.56226e-07
3792.73	-5.95362e-07
3801.28	-9.48193e-09
3809.84	-2.91091e-07
3818.4	-5.33131e-07
3826.96	-7.05364e-07
3835.51	-6.0396e-07
3844.07	-8.92238e-07
3852.63	-4.13556e-07
3861.19	-4.503e-07
3869.74	-5.14329e-07
3878.3	-7.41167e-07
3886.86	-6.15929e-07
3895.42	-3.99918e-07
3903.97	-3.76294e-07
3912.53	-6.54529e-07
3921.09	-7.98866e-07
3929.65	-6.89552e-07
3938.21	-7.19408e-07
3946.76	-6.46546e-07
3955.32	-4.03883e-07
3963.88	-7.39219e-07
3972.44	-7.56024e-07
