Infrared Spectrum: Tetrachloroethene
Formula: C2 Cl4
CAS: 127-18-4
State: gas
Melting point: -19 C
Boiling point: 121 C
Class: IUPAC A
Instrument: IFS66V (Bruker)
Instrument parameters: KBr Beam Splitter; MCT Detector; Multipass cell
Sampling: 1 L/min Flow
Resolution: 0.1250
Temperature: 23 C
Pressure: 101.3 Pa
Origin: NIST, Analytical Chemistry Division, 301-975-3108
cm-1	(micromol/mol)-1m-1 (base 10)
575.05	-3.0985e-06
583.608	2.55591e-06
592.165	-7.7081e-07
600.723	-8.09636e-07
609.281	-1.0817e-06
617.838	2.0479e-07
626.396	-1.43559e-06
634.954	-7.6273e-07
643.511	-1.79393e-07
652.069	2.00697e-07
660.626	-5.8125e-07
669.184	1.03356e-06
677.742	5.08064e-07
686.299	6.05013e-07
694.857	4.76161e-07
703.415	1.40346e-07
711.972	-2.99687e-07
720.53	-7.51046e-07
729.088	-8.34293e-08
737.645	1.79808e-06
746.203	2.23578e-05
754.761	5.17921e-05
763.318	4.16984e-05
771.876	0.000171483
780.434	0.000347985
788.991	0.000211394
797.549	0.000161871
806.106	0.000179088
814.664	3.51652e-05
823.222	9.31917e-06
831.779	8.42197e-06
840.337	-5.42978e-08
848.895	1.10482e-07
857.452	2.66911e-07
866.01	2.45844e-07
874.568	1.50514e-07
883.125	3.14566e-06
891.683	2.50295e-05
900.241	0.000122984
908.798	0.000811486
917.356	0.00143184
925.914	0.000772245
934.471	1.98202e-05
943.029	4.96676e-07
951.586	-4.4636e-07
960.144	1.09898e-08
968.702	-2.55192e-07
977.259	2.63097e-07
985.817	1.06261e-06
994.375	9.34865e-07
1002.93	2.3253e-07
1011.49	2.29652e-07
1020.05	-4.55684e-07
1028.61	-3.183e-07
1037.16	6.82379e-08
1045.72	-2.42827e-07
1054.28	7.46658e-08
1062.84	-8.49681e-08
1071.39	-4.65858e-07
1079.95	3.46273e-07
1088.51	2.81783e-06
1097.07	7.15402e-06
1105.62	5.42658e-06
1114.18	6.20398e-06
1122.74	1.08899e-05
1131.3	8.23902e-06
1139.85	5.49666e-06
1148.41	7.06191e-06
1156.97	4.60304e-06
1165.53	1.86049e-06
1174.09	2.16198e-06
1182.64	1.78184e-06
1191.2	3.06999e-07
1199.76	9.70365e-08
1208.32	1.82316e-07
1216.87	5.42079e-07
1225.43	1.09344e-06
1233.99	1.15585e-06
1242.55	5.48513e-07
1251.1	1.37936e-06
1259.66	1.8902e-06
1268.22	1.46385e-06
1276.78	6.58233e-07
1285.33	6.25702e-08
1293.89	1.0007e-06
1302.45	1.15865e-06
1311.01	1.32987e-07
1319.57	-5.79938e-08
1328.12	-1.6309e-07
1336.68	3.41215e-07
1345.24	1.5854e-06
1353.8	4.98673e-06
1362.35	6.34636e-06
1370.91	4.18679e-06
1379.47	7.82489e-07
1388.03	3.32089e-07
1396.58	1.1052e-07
1405.14	7.97406e-08
1413.7	-2.50626e-08
1422.26	-5.6296e-07
1430.81	-2.19274e-07
1439.37	-4.96822e-07
1447.93	-8.72472e-08
1456.49	4.37944e-07
1465.05	-3.39098e-08
1473.6	3.00904e-07
1482.16	1.13827e-08
1490.72	-5.19332e-08
1499.28	-4.02008e-07
1507.83	-3.17875e-07
1516.39	-2.74334e-07
1524.95	-3.57505e-07
1533.51	-1.78907e-07
1542.06	4.5463e-07
1550.62	1.78407e-07
1559.18	1.79755e-07
1567.74	1.68359e-07
1576.29	1.20387e-06
1584.85	-1.47586e-08
1593.41	7.74997e-08
1601.97	-2.16758e-08
1610.53	-1.91765e-07
1619.08	-2.66056e-07
1627.64	-2.91071e-07
1636.2	-2.04877e-07
1644.76	-3.14779e-07
1653.31	1.39131e-06
1661.87	-4.27758e-07
1670.43	-3.44943e-07
1678.99	-5.30391e-07
1687.54	-3.2614e-07
1696.1	-4.04924e-08
1704.66	-3.28564e-07
1713.22	-1.75547e-07
1721.77	-4.39646e-08
1730.33	-9.9603e-08
1738.89	-2.19949e-07
1747.45	1.53944e-07
1756.01	4.1094e-07
1764.56	-5.11602e-08
1773.12	7.55775e-07
1781.68	1.0936e-06
1790.24	4.16264e-07
1798.79	5.70563e-07
1807.35	3.07008e-07
1815.91	-6.92004e-07
1824.47	-7.88761e-07
1833.02	-8.78994e-07
1841.58	-8.01988e-07
1850.14	-5.15445e-07
1858.7	-3.79275e-07
1867.25	-4.33644e-08
1875.81	5.1811e-07
1884.37	1.16805e-06
1892.93	8.10995e-07
1901.49	2.62549e-07
1910.04	6.6639e-07
1918.6	2.90449e-07
1927.16	-4.72381e-07
1935.72	-4.15808e-07
1944.27	-6.84621e-07
1952.83	-6.72173e-07
1961.39	-3.32881e-07
1969.95	-5.12069e-07
1978.5	-5.32308e-07
1987.06	-5.61769e-07
1995.62	-5.43562e-07
2004.18	-4.07301e-07
2012.73	-5.37263e-07
2021.29	-3.00426e-07
2029.85	-5.74802e-07
2038.41	-5.01434e-07
2046.97	-5.82821e-07
2055.52	-4.39446e-07
2064.08	-5.94135e-07
2072.64	-4.67399e-07
2081.2	-4.99865e-07
2089.75	-4.54396e-07
2098.31	-4.78274e-07
2106.87	-6.64415e-07
2115.43	-3.81174e-07
2123.98	-5.23983e-07
2132.54	-4.29953e-07
2141.1	-4.33866e-07
2149.66	-5.10642e-07
2158.21	-4.83418e-07
2166.77	-4.99746e-07
2175.33	-5.38342e-07
2183.89	-5.77264e-08
2192.45	2.02354e-06
2201	1.82403e-07
2209.56	5.14106e-06
2218.12	1.14258e-07
2226.68	-2.37785e-08
2235.23	5.81357e-07
2243.79	3.5893e-06
2252.35	-2.46332e-07
2260.91	-3.16509e-07
2269.46	-2.44662e-07
2278.02	-5.98325e-07
2286.58	-5.66598e-07
2295.14	-5.91695e-07
2303.69	-4.85142e-07
2312.25	-6.57722e-07
2320.81	1.51214e-07
2329.37	-2.1554e-07
2337.93	8.59667e-08
2346.48	-1.83934e-07
2355.04	-1.15609e-08
2363.6	4.99654e-07
2372.16	2.03117e-07
2380.71	5.61349e-08
2389.27	-5.80997e-07
2397.83	-5.24043e-07
2406.39	-4.56429e-07
2414.94	-6.44012e-07
2423.5	-5.34169e-07
2432.06	-3.50682e-07
2440.62	-6.75314e-07
2449.17	-3.37273e-07
2457.73	-3.17534e-07
2466.29	-2.00581e-07
2474.85	1.41016e-07
2483.41	9.1242e-07
2491.96	1.78614e-06
2500.52	1.17171e-06
2509.08	-1.0016e-07
2517.64	-6.85038e-07
2526.19	-8.76057e-07
2534.75	-3.82722e-07
2543.31	-5.94467e-07
2551.87	-6.29419e-07
2560.42	-6.77335e-07
2568.98	-2.59979e-07
2577.54	-3.76429e-07
2586.1	-3.68838e-07
2594.65	-4.72388e-07
2603.21	-5.98427e-07
2611.77	-5.38382e-07
2620.33	-5.90388e-07
2628.89	-5.90386e-07
2637.44	-2.39225e-07
2646	-5.76344e-07
2654.56	-6.40757e-07
2663.12	-6.77999e-07
2671.67	-5.158e-07
2680.23	-4.50631e-07
2688.79	-5.87159e-07
2697.35	-5.14731e-07
2705.9	-5.10663e-07
2714.46	-7.24373e-07
2723.02	-8.24538e-07
2731.58	-4.88838e-07
2740.13	-4.35854e-07
2748.69	-2.82683e-07
2757.25	-5.13965e-07
2765.81	-6.03729e-07
2774.37	-1.09025e-07
2782.92	-3.67909e-07
2791.48	-3.3278e-07
2800.04	-6.36668e-07
2808.6	-5.27457e-07
2817.15	-6.7646e-07
2825.71	-3.81694e-07
2834.27	-6.13881e-07
2842.83	-5.24249e-07
2851.38	-6.33017e-07
2859.94	-5.4947e-07
2868.5	-3.53991e-07
2877.06	-4.146e-07
2885.61	-1.4131e-07
2894.17	6.33523e-08
2902.73	1.37165e-07
2911.29	-1.19622e-07
2919.85	-2.48247e-07
2928.4	-6.38483e-07
2936.96	-3.3371e-07
2945.52	-5.20884e-07
2954.08	-2.94898e-07
2962.63	-3.71539e-07
2971.19	-8.09083e-08
2979.75	-2.06751e-07
2988.31	-2.79618e-07
2996.86	-3.30611e-07
3005.42	-4.79688e-07
3013.98	-4.26483e-07
3022.54	-6.24312e-07
3031.09	-4.20426e-07
3039.65	-6.30378e-07
3048.21	-3.80547e-07
3056.77	-6.23252e-07
3065.33	-5.5598e-07
3073.88	-6.29008e-07
3082.44	-5.79425e-07
3091	-4.54023e-07
3099.56	-4.63077e-07
3108.11	-3.5122e-07
3116.67	-6.14835e-07
3125.23	-6.52863e-07
3133.79	-4.22152e-07
3142.34	-2.3805e-07
3150.9	-7.39086e-07
3159.46	-4.35961e-07
3168.02	-1.74203e-07
3176.57	-1.20249e-07
3185.13	-6.30131e-07
3193.69	-4.31825e-07
3202.25	-2.97268e-07
3210.81	-1.27951e-07
3219.36	-2.61367e-07
3227.92	-5.03941e-07
3236.48	-2.62667e-08
3245.04	-4.8089e-07
3253.59	-3.49747e-07
3262.15	-1.23962e-07
3270.71	-2.02058e-07
3279.27	1.93003e-08
3287.82	-4.75091e-07
3296.38	1.62146e-07
3304.94	-4.02001e-07
3313.5	-1.54132e-07
3322.05	-4.468e-07
3330.61	-6.45446e-07
3339.17	-2.51981e-07
3347.73	-6.52772e-07
3356.29	-1.98371e-07
3364.84	-4.14966e-07
3373.4	-3.20046e-07
3381.96	-5.98e-07
3390.52	-7.82625e-07
3399.07	-2.7465e-07
3407.63	-2.6188e-07
3416.19	-3.47932e-07
3424.75	-7.77221e-07
3433.3	-2.83385e-07
3441.86	-4.27822e-07
3450.42	-5.16639e-07
3458.98	-1.08576e-07
3467.53	-3.50149e-07
3476.09	-4.96201e-07
3484.65	-1.66771e-07
3493.21	-3.52199e-07
3501.77	-3.52241e-07
3510.32	-9.87515e-07
3518.88	-6.6079e-07
3527.44	-4.25282e-07
3536	-4.37424e-07
3544.55	-3.89905e-07
3553.11	-6.2047e-07
3561.67	-5.5595e-07
3570.23	-1.93416e-07
3578.78	-2.95931e-07
3587.34	-5.60561e-07
3595.9	-2.11449e-07
3604.46	-5.32243e-07
3613.01	-5.38245e-07
3621.57	-5.28531e-07
3630.13	-5.06473e-07
3638.69	-5.10756e-07
3647.25	-4.78658e-07
3655.8	-8.44412e-07
3664.36	-8.56105e-07
3672.92	-6.27217e-07
3681.48	-7.57263e-07
3690.03	-5.88832e-07
3698.59	-7.325e-07
3707.15	-6.7586e-07
3715.71	-3.96469e-07
3724.26	-5.46701e-07
3732.82	-8.2099e-07
3741.38	-3.77529e-07
3749.94	-6.65961e-07
3758.49	-5.13912e-08
3767.05	-5.75018e-07
3775.61	-4.58657e-07
3784.17	-2.95462e-07
3792.73	-3.16078e-07
3801.28	-7.94186e-08
3809.84	-9.42645e-08
3818.4	-6.52703e-07
3826.96	-7.53774e-07
3835.51	-6.15647e-07
3844.07	-1.06713e-06
3852.63	-3.51879e-07
3861.19	-4.28296e-07
3869.74	-6.57827e-07
3878.3	-7.97411e-07
3886.86	-5.92507e-07
3895.42	-3.05039e-07
3903.97	-3.15026e-07
3912.53	-5.71238e-07
3921.09	-8.46212e-07
3929.65	-6.46686e-07
3938.21	-7.18496e-07
3946.76	-5.77093e-07
3955.32	-2.68935e-07
3963.88	-9.99058e-07
3972.44	-8.3471e-07
