Infrared Spectrum: Tetrachloroethene
Formula: C2 Cl4
CAS: 127-18-4
State: gas
Melting point: -19 C
Boiling point: 121 C
Class: IUPAC A
Instrument: IFS66V (Bruker)
Instrument parameters: KBr Beam Splitter; MCT Detector; Multipass cell
Sampling: 1 L/min Flow
Resolution: 0.4820
Temperature: 23 C
Pressure: 101.3 Pa
Origin: NIST, Analytical Chemistry Division, 301-975-3108
cm-1	(micromol/mol)-1m-1 (base 10)
575.17	8.0427e-07
583.848	6.17004e-07
592.526	1.04587e-06
601.205	-1.11078e-07
609.883	6.28512e-07
618.561	1.49512e-07
627.239	-2.20056e-07
635.917	-4.45867e-07
644.595	2.38109e-07
653.274	-6.61352e-09
661.952	-1.95577e-07
670.63	-3.50751e-07
679.308	6.8777e-07
687.986	7.73374e-07
696.664	9.21924e-07
705.343	-3.56843e-07
714.021	-2.44877e-07
722.699	-9.8799e-08
731.377	2.02434e-07
740.055	5.26721e-06
748.734	3.35914e-05
757.412	5.4535e-05
766.09	4.96807e-05
774.768	0.000289821
783.446	0.00033025
792.124	9.57787e-05
800.803	0.000200907
809.481	0.0001376
818.159	1.1587e-05
826.837	8.31102e-06
835.515	3.88721e-06
844.193	-7.62228e-08
852.872	1.32823e-07
861.55	1.19927e-07
870.228	7.70632e-08
878.906	1.47964e-06
887.584	1.00328e-05
896.263	5.59497e-05
904.941	0.000378035
913.619	0.0013808
922.297	0.00133074
930.975	0.000104536
939.653	1.74675e-06
948.332	1.09531e-07
957.01	4.81645e-09
965.688	6.63808e-08
974.366	-1.2072e-07
983.044	8.13294e-07
991.723	1.18165e-06
1000.4	6.76303e-08
1009.08	3.29359e-07
1017.76	-4.64747e-08
1026.44	-4.12243e-07
1035.11	-2.8908e-07
1043.79	-2.57056e-07
1052.47	-3.54935e-07
1061.15	-1.58739e-07
1069.83	-1.88696e-07
1078.5	1.38111e-07
1087.18	2.25266e-06
1095.86	6.23282e-06
1104.54	5.5145e-06
1113.22	6.04078e-06
1121.9	1.07332e-05
1130.57	8.42784e-06
1139.25	5.62886e-06
1147.93	7.01442e-06
1156.61	4.85832e-06
1165.29	1.79008e-06
1173.96	2.2016e-06
1182.64	1.70991e-06
1191.32	3.29312e-07
1200	7.5608e-08
1208.68	-6.82087e-10
1217.36	3.58776e-07
1226.03	9.47127e-07
1234.71	8.39848e-07
1243.39	5.21742e-07
1252.07	1.58673e-06
1260.75	1.97931e-06
1269.42	1.35176e-06
1278.1	4.55207e-07
1286.78	-4.36754e-08
1295.46	8.00007e-07
1304.14	3.22616e-07
1312.82	-1.81563e-07
1321.49	-3.30727e-07
1330.17	-1.78383e-07
1338.85	3.43114e-07
1347.53	2.0152e-06
1356.21	5.69993e-06
1364.88	6.51368e-06
1373.56	2.50909e-06
1382.24	4.08909e-07
1390.92	3.3769e-07
1399.6	9.02011e-08
1408.28	-1.33604e-07
1416.95	-2.35242e-07
1425.63	-3.3509e-07
1434.31	-3.22675e-07
1442.99	-3.75205e-07
1451.67	-2.86284e-07
1460.34	-2.02076e-07
1469.02	-3.12301e-07
1477.7	-1.87689e-07
1486.38	-1.56875e-07
1495.06	-2.76376e-07
1503.73	-3.85663e-07
1512.41	-1.63621e-07
1521.09	3.05242e-07
1529.77	-2.73101e-07
1538.45	-4.88793e-08
1547.13	-1.18378e-07
1555.8	1.24067e-08
1564.48	1.20078e-07
1573.16	2.51927e-07
1581.84	9.24729e-08
1590.52	1.66075e-07
1599.19	-2.41986e-08
1607.87	-2.54795e-07
1616.55	4.60676e-07
1625.23	-3.20658e-07
1633.91	-3.03212e-07
1642.59	-2.65337e-07
1651.26	-1.95584e-07
1659.94	-3.8101e-07
1668.62	-2.85242e-07
1677.3	-2.97303e-07
1685.98	-3.19764e-07
1694.65	-4.54003e-07
1703.33	-3.63875e-07
1712.01	-2.94647e-07
1720.69	-2.41854e-07
1729.37	-1.7438e-07
1738.05	-2.10247e-07
1746.72	7.00058e-08
1755.4	1.34677e-07
1764.08	6.14079e-08
1772.76	1.38386e-06
1781.44	1.11066e-06
1790.11	5.37656e-07
1798.79	6.31769e-07
1807.47	3.36966e-07
1816.15	-7.40412e-07
1824.83	-8.43591e-07
1833.51	-1.02701e-06
1842.18	-8.46978e-07
1850.86	-4.35012e-07
1859.54	1.26013e-08
1868.22	5.62931e-08
1876.9	3.99791e-07
1885.57	9.01041e-07
1894.25	9.46255e-07
1902.93	4.41045e-07
1911.61	7.81301e-07
1920.29	1.45381e-07
1928.97	-3.06994e-07
1937.64	-5.14996e-07
1946.32	-5.82812e-07
1955	-4.46829e-07
1963.68	-4.74122e-07
1972.36	-4.2699e-07
1981.03	-4.21434e-07
1989.71	-3.83513e-07
1998.39	-4.22829e-07
2007.07	-4.4837e-07
2015.75	-4.48443e-07
2024.43	-4.97424e-07
2033.1	-3.93866e-07
2041.78	-5.14447e-07
2050.46	-5.46192e-07
2059.14	-5.44795e-07
2067.82	-5.30946e-07
2076.49	-5.08912e-07
2085.17	-4.78978e-07
2093.85	-4.78474e-07
2102.53	-5.60023e-07
2111.21	-5.67164e-07
2119.89	-4.225e-07
2128.56	-5.69699e-07
2137.24	-4.9515e-07
2145.92	-3.73318e-07
2154.6	-2.95539e-07
2163.28	-5.41015e-07
2171.95	-5.19118e-07
2180.63	-3.73135e-07
2189.31	9.15078e-07
2197.99	-2.20765e-07
2206.67	3.54792e-06
2215.35	7.35407e-07
2224.02	3.87844e-08
2232.7	1.90253e-06
2241.38	1.91916e-07
2250.06	1.0837e-07
2258.74	-3.21411e-07
2267.41	-4.02175e-07
2276.09	-5.92108e-07
2284.77	-4.24082e-07
2293.45	-4.43413e-07
2302.13	-4.93933e-07
2310.81	-4.94674e-07
2319.48	-4.2004e-07
2328.16	-2.54646e-07
2336.84	-5.61944e-07
2345.52	-6.06312e-08
2354.2	7.64234e-07
2362.87	4.50738e-06
2371.55	1.48604e-06
2380.23	-3.91347e-07
2388.91	-4.37573e-07
2397.59	-4.68056e-07
2406.27	-5.07559e-07
2414.94	-5.18452e-07
2423.62	-4.74069e-07
2432.3	-4.89963e-07
2440.98	-4.77354e-07
2449.66	-4.09438e-07
2458.33	-4.71846e-07
2467.01	-1.74545e-07
2475.69	1.61898e-07
2484.37	8.53113e-07
2493.05	1.67047e-06
2501.73	9.84638e-07
2510.4	-2.31255e-07
2519.08	-4.03978e-07
2527.76	-5.64608e-07
2536.44	-6.33119e-07
2545.12	-4.19193e-07
2553.79	-4.54254e-07
2562.47	-4.75406e-07
2571.15	-4.56095e-07
2579.83	-3.33563e-07
2588.51	-5.05803e-07
2597.19	-5.74474e-07
2605.86	-4.42562e-07
2614.54	-5.92225e-07
2623.22	-5.04807e-07
2631.9	-5.58522e-07
2640.58	-5.7215e-07
2649.25	-5.92356e-07
2657.93	-5.31073e-07
2666.61	-5.84951e-07
2675.29	-5.60689e-07
2683.97	-5.32039e-07
2692.65	-6.1798e-07
2701.32	-5.32254e-07
2710	-6.06871e-07
2718.68	-5.306e-07
2727.36	-4.67503e-07
2736.04	-3.43441e-07
2744.71	-3.71603e-07
2753.39	-4.56533e-07
2762.07	-4.36933e-07
2770.75	-4.73514e-07
2779.43	-4.01104e-07
2788.11	-3.06681e-07
2796.78	-3.3045e-07
2805.46	-4.05362e-07
2814.14	-4.27358e-07
2822.82	-3.9765e-07
2831.5	-4.5289e-07
2840.17	-3.92762e-07
2848.85	-5.14205e-07
2857.53	-5.04112e-07
2866.21	-3.69244e-07
2874.89	-2.43893e-07
2883.57	-6.40326e-08
2892.24	3.83533e-08
2900.92	1.06051e-07
2909.6	-1.27385e-07
2918.28	-4.11892e-07
2926.96	-3.09273e-07
2935.63	-2.31251e-07
2944.31	-2.25867e-07
2952.99	-2.21182e-07
2961.67	-5.77321e-07
2970.35	-4.04776e-07
2979.03	-2.7266e-07
2987.7	-2.98894e-07
2996.38	-3.18355e-07
3005.06	-4.68058e-07
3013.74	-4.9608e-07
3022.42	-3.76778e-07
3031.09	-4.75619e-07
3039.77	-7.05755e-07
3048.45	-5.31439e-07
3057.13	-5.76651e-07
3065.81	-6.39356e-07
3074.49	-4.96311e-07
3083.16	-4.63292e-07
3091.84	-4.61497e-07
3100.52	-6.30172e-07
3109.2	-4.75408e-07
3117.88	-5.50939e-07
3126.55	-4.03394e-07
3135.23	-4.03849e-07
3143.91	-4.24282e-07
3152.59	-2.73097e-07
3161.27	-3.23737e-07
3169.95	-1.59521e-07
3178.62	-1.52698e-07
3187.3	-2.27082e-07
3195.98	-4.28127e-07
3204.66	-3.66354e-07
3213.34	-2.01327e-07
3222.01	-3.8154e-07
3230.69	-3.13087e-07
3239.37	-3.30947e-07
3248.05	-4.92504e-07
3256.73	-9.03775e-08
3265.4	-2.15107e-07
3274.08	-2.65692e-07
3282.76	-1.75491e-07
3291.44	-3.19422e-07
3300.12	-3.48188e-07
3308.8	-2.89791e-07
3317.47	-9.44373e-08
3326.15	-3.42482e-07
3334.83	-4.46469e-07
3343.51	-3.2847e-07
3352.19	-4.97471e-07
3360.86	-6.073e-07
3369.54	-3.90247e-07
3378.22	-4.60049e-07
3386.9	-3.91162e-07
3395.58	-4.16634e-07
3404.26	-2.8773e-07
3412.93	-3.58132e-07
3421.61	-4.09285e-07
3430.29	-4.15455e-07
3438.97	-3.33901e-07
3447.65	-3.2921e-07
3456.32	-2.06452e-07
3465	-3.37162e-07
3473.68	-4.30579e-07
3482.36	-5.03923e-07
3491.04	-3.2031e-07
3499.72	-4.23032e-07
3508.39	-4.00838e-07
3517.07	-6.84379e-07
3525.75	-5.7152e-07
3534.43	-5.04512e-07
3543.11	-6.79159e-07
3551.78	-5.50314e-07
3560.46	-7.1153e-07
3569.14	-5.44253e-07
3577.82	-3.96695e-07
3586.5	6.20463e-08
3595.18	-4.62683e-07
3603.85	-5.85848e-07
3612.53	-2.43249e-07
3621.21	-3.72463e-07
3629.89	-3.85194e-07
3638.57	-4.1096e-07
3647.24	-5.09949e-07
3655.92	-6.79024e-07
3664.6	-6.58258e-07
3673.28	-5.6983e-07
3681.96	-3.72001e-07
3690.64	-4.30781e-07
3699.31	-5.97778e-07
3707.99	-5.86595e-07
3716.67	-5.93762e-07
3725.35	-6.53316e-07
3734.03	-4.76701e-07
3742.7	-5.78625e-07
3751.38	-4.76414e-07
3760.06	-3.59547e-07
3768.74	-5.49548e-07
3777.42	-5.4169e-07
3786.1	-6.2873e-07
3794.77	-4.36727e-07
3803.45	-5.41086e-07
3812.13	-6.41504e-07
3820.81	-2.09219e-07
3829.49	-7.09931e-07
3838.16	-6.23679e-07
3846.84	-7.17032e-07
3855.52	-4.97553e-07
3864.2	-7.54796e-07
3872.88	-8.13781e-07
3881.56	-6.91566e-07
3890.23	-7.04671e-07
3898.91	-7.97375e-07
3907.59	-6.83224e-07
3916.27	-4.37371e-07
3924.95	-5.59508e-07
3933.62	-6.35591e-07
3942.3	-6.52781e-07
3950.98	-5.41057e-07
3959.66	-6.47032e-07
3968.34	-5.22816e-07
