Infrared Spectrum: Tetrachloroethene
Formula: C2 Cl4
CAS: 127-18-4
State: gas
Melting point: -19 C
Boiling point: 121 C
Class: IUPAC A
Instrument: IFS66V (Bruker)
Instrument parameters: KBr Beam Splitter; MCT Detector; Multipass cell
Sampling: 1 L/min Flow
Resolution: 0.9640
Temperature: 23 C
Pressure: 101.3 Pa
Origin: NIST, Analytical Chemistry Division, 301-975-3108
cm-1	(micromol/mol)-1m-1 (base 10)
575.17	5.7827e-07
583.848	3.46555e-08
592.526	3.79517e-07
601.205	-1.9963e-07
609.883	1.01082e-07
618.561	2.13412e-08
627.239	-1.60163e-07
635.917	-4.3007e-07
644.595	-2.51216e-07
653.274	-7.83855e-08
661.952	-1.63706e-07
670.63	-1.76479e-07
679.308	5.15931e-07
687.986	9.93567e-07
696.664	6.22038e-07
705.343	-3.11152e-07
714.021	-3.20974e-07
722.699	-2.01398e-07
731.377	2.43138e-07
740.055	5.30421e-06
748.734	3.315e-05
757.412	5.30423e-05
766.09	4.98782e-05
774.768	0.000289122
783.446	0.000343453
792.124	9.6916e-05
800.803	0.000193645
809.481	0.000137175
818.159	1.16863e-05
826.837	8.54811e-06
835.515	3.75309e-06
844.194	2.66887e-08
852.872	8.14649e-08
861.55	1.91352e-07
870.228	2.49206e-07
878.906	1.31229e-06
887.584	9.90996e-06
896.263	5.59432e-05
904.941	0.000378661
913.619	0.00137896
922.297	0.00132224
930.975	0.000105683
939.653	1.7572e-06
948.332	9.25238e-08
957.01	1.13136e-08
965.688	3.78022e-08
974.366	5.80957e-09
983.044	9.06409e-07
991.723	1.13878e-06
1000.4	5.51327e-08
1009.08	3.1191e-07
1017.76	-4.78371e-10
1026.44	-3.3182e-07
1035.11	-2.19323e-07
1043.79	-2.21797e-07
1052.47	-2.39542e-07
1061.15	-1.38113e-07
1069.83	-1.80788e-07
1078.5	2.45613e-07
1087.18	2.31906e-06
1095.86	6.11986e-06
1104.54	5.64972e-06
1113.22	6.12811e-06
1121.9	1.06569e-05
1130.57	8.47373e-06
1139.25	5.57387e-06
1147.93	7.17381e-06
1156.61	4.84322e-06
1165.29	1.84312e-06
1173.96	2.2452e-06
1182.64	1.60121e-06
1191.32	2.37392e-07
1200	1.60098e-07
1208.68	6.227e-08
1217.36	4.16308e-07
1226.03	9.74825e-07
1234.71	7.77998e-07
1243.39	5.92105e-07
1252.07	1.53221e-06
1260.75	2.02269e-06
1269.42	1.25472e-06
1278.1	2.48573e-07
1286.78	-4.63001e-08
1295.46	4.15533e-07
1304.14	3.30938e-07
1312.82	-2.25002e-07
1321.49	-3.51279e-07
1330.17	-2.38209e-07
1338.85	3.00417e-07
1347.53	1.99106e-06
1356.21	5.93268e-06
1364.88	6.50078e-06
1373.56	2.55482e-06
1382.24	4.1524e-07
1390.92	2.8801e-07
1399.6	1.44586e-07
1408.28	-5.41796e-08
1416.95	-2.06265e-07
1425.63	-3.19717e-07
1434.31	-3.24534e-07
1442.99	-3.25221e-07
1451.67	-2.94433e-07
1460.34	-2.80956e-07
1469.02	-3.00357e-07
1477.7	-1.65787e-07
1486.38	-1.56411e-07
1495.06	-2.8968e-07
1503.73	-3.3962e-07
1512.41	-2.60441e-07
1521.09	4.87902e-08
1529.77	-2.74079e-07
1538.45	8.40841e-08
1547.13	-1.025e-07
1555.8	-1.59627e-08
1564.48	1.78858e-07
1573.16	2.21249e-07
1581.84	1.64632e-07
1590.52	1.51303e-07
1599.19	5.18568e-09
1607.87	-2.52629e-07
1616.55	1.22263e-07
1625.23	-3.57088e-07
1633.91	-3.11465e-07
1642.59	-3.03976e-07
1651.26	-2.72666e-07
1659.94	-3.98825e-07
1668.62	-2.80913e-07
1677.3	-3.35998e-07
1685.98	-2.94011e-07
1694.65	-3.92319e-07
1703.33	-3.98903e-07
1712.01	-3.61899e-07
1720.69	-2.55057e-07
1729.37	-2.03589e-07
1738.05	-1.54586e-07
1746.72	1.54739e-07
1755.4	1.55909e-07
1764.08	5.04199e-08
1772.76	9.18543e-07
1781.44	1.09593e-06
1790.11	5.21631e-07
1798.79	6.78828e-07
1807.47	3.20561e-07
1816.15	-6.47132e-07
1824.83	-7.51753e-07
1833.51	-9.10731e-07
1842.18	-7.91458e-07
1850.86	-4.63221e-07
1859.54	-8.51845e-08
1868.22	5.43924e-08
1876.9	3.41715e-07
1885.57	8.91397e-07
1894.25	8.70182e-07
1902.93	5.14725e-07
1911.61	7.45023e-07
1920.29	2.11096e-07
1928.97	-4.65968e-07
1937.64	-5.44415e-07
1946.32	-5.40406e-07
1955	-4.89561e-07
1963.68	-4.74877e-07
1972.36	-4.7647e-07
1981.03	-4.22212e-07
1989.71	-4.18818e-07
1998.39	-4.5371e-07
2007.07	-4.09989e-07
2015.75	-4.85637e-07
2024.43	-4.84493e-07
2033.1	-4.43366e-07
2041.78	-4.66568e-07
2050.46	-5.0646e-07
2059.14	-5.42041e-07
2067.82	-5.23869e-07
2076.49	-4.6626e-07
2085.17	-4.92567e-07
2093.85	-4.6853e-07
2102.53	-5.02333e-07
2111.21	-4.25612e-07
2119.89	-4.16635e-07
2128.56	-4.87922e-07
2137.24	-5.00463e-07
2145.92	-4.44834e-07
2154.6	-3.81476e-07
2163.28	-4.85363e-07
2171.95	-4.09214e-07
2180.63	-2.40608e-07
2189.31	1.87325e-07
2197.99	6.37243e-07
2206.67	1.35308e-06
2215.35	1.2825e-06
2224.02	-3.02156e-08
2232.7	1.74523e-06
2241.38	1.70026e-06
2250.06	2.82588e-07
2258.74	-3.76259e-07
2267.41	-4.46096e-07
2276.09	-5.05163e-07
2284.77	-4.64582e-07
2293.45	-4.86376e-07
2302.13	-4.64111e-07
2310.81	-2.58971e-07
2319.48	1.06819e-07
2328.16	3.22607e-07
2336.84	-2.9799e-08
2345.52	1.77015e-07
2354.2	9.20542e-07
2362.87	2.01907e-06
2371.55	8.26692e-07
2380.23	-2.34573e-07
2388.91	-4.33178e-07
2397.59	-4.70217e-07
2406.27	-5.04848e-07
2414.94	-5.12506e-07
2423.62	-4.85946e-07
2432.3	-4.51255e-07
2440.98	-5.00523e-07
2449.66	-4.14284e-07
2458.33	-3.87788e-07
2467.01	-2.79247e-07
2475.69	1.71613e-07
2484.37	9.24672e-07
2493.05	1.65297e-06
2501.73	1.11783e-06
2510.4	-2.3257e-07
2519.08	-4.61419e-07
2527.76	-5.39853e-07
2536.44	-5.5977e-07
2545.12	-4.73029e-07
2553.79	-5.16177e-07
2562.47	-5.02695e-07
2571.15	-4.53941e-07
2579.83	-3.98286e-07
2588.51	-4.3505e-07
2597.19	-4.97104e-07
2605.86	-4.54085e-07
2614.54	-5.29453e-07
2623.22	-5.25235e-07
2631.9	-4.88165e-07
2640.58	-5.6118e-07
2649.25	-5.67411e-07
2657.93	-5.43013e-07
2666.61	-5.58919e-07
2675.29	-5.5296e-07
2683.97	-5.60901e-07
2692.65	-6.04062e-07
2701.32	-5.5085e-07
2710	-6.0121e-07
2718.68	-5.04903e-07
2727.36	-4.68718e-07
2736.04	-3.53836e-07
2744.71	-3.42219e-07
2753.39	-4.01333e-07
2762.07	-4.22607e-07
2770.75	-4.23078e-07
2779.43	-4.29944e-07
2788.11	-3.74059e-07
2796.78	-4.12386e-07
2805.46	-4.38464e-07
2814.14	-4.92818e-07
2822.82	-4.62101e-07
2831.5	-4.98097e-07
2840.17	-4.46371e-07
2848.85	-5.00694e-07
2857.53	-4.23474e-07
2866.21	-3.17002e-07
2874.89	-2.20867e-07
2883.57	-1.62833e-07
2892.24	-5.09801e-08
2900.92	3.11523e-08
2909.6	-5.24607e-08
2918.28	-3.45904e-07
2926.96	-3.40649e-07
2935.63	-3.20707e-07
2944.31	-2.30185e-07
2952.99	-2.94822e-07
2961.67	-5.04841e-07
2970.35	-3.69333e-07
2979.03	-3.29928e-07
2987.7	-2.37161e-07
2996.38	-3.20808e-07
3005.06	-4.47348e-07
3013.74	-4.86428e-07
3022.42	-4.47258e-07
3031.09	-5.26302e-07
3039.77	-5.92754e-07
3048.45	-5.17272e-07
3057.13	-5.57002e-07
3065.81	-5.45037e-07
3074.49	-4.62514e-07
3083.16	-4.90341e-07
3091.84	-4.88167e-07
3100.52	-5.40755e-07
3109.2	-4.416e-07
3117.88	-4.5409e-07
3126.55	-4.18702e-07
3135.23	-3.39454e-07
3143.91	-3.1659e-07
3152.59	-2.94434e-07
3161.27	-3.02285e-07
3169.95	-3.01985e-07
3178.62	-3.47814e-07
3187.3	-2.98973e-07
3195.98	-4.13581e-07
3204.66	-4.34053e-07
3213.34	-2.07895e-07
3222.01	-3.52297e-07
3230.69	-3.47719e-07
3239.37	-3.81711e-07
3248.05	-3.5117e-07
3256.73	-2.05805e-07
3265.41	-2.33521e-07
3274.08	-2.36939e-07
3282.76	-2.61254e-07
3291.44	-3.42794e-07
3300.12	-2.94374e-07
3308.8	-2.57949e-07
3317.47	-2.87353e-07
3326.15	-3.33386e-07
3334.83	-4.11894e-07
3343.51	-2.39704e-07
3352.19	-3.70841e-07
3360.86	-4.45649e-07
3369.54	-3.75696e-07
3378.22	-4.0175e-07
3386.9	-3.29003e-07
3395.58	-4.02741e-07
3404.26	-3.92741e-07
3412.93	-4.03532e-07
3421.61	-4.52111e-07
3430.29	-4.02475e-07
3438.97	-4.03257e-07
3447.65	-4.4045e-07
3456.32	-2.05816e-07
3465	-4.07617e-07
3473.68	-3.95229e-07
3482.36	-3.99347e-07
3491.04	-3.57108e-07
3499.72	-4.11746e-07
3508.39	-4.82181e-07
3517.07	-6.00057e-07
3525.75	-5.61294e-07
3534.43	-4.87129e-07
3543.11	-5.33296e-07
3551.78	-5.66878e-07
3560.46	-5.14088e-07
3569.14	-4.61886e-07
3577.82	-4.16917e-07
3586.5	-2.27597e-07
3595.18	-3.72371e-07
3603.85	-5.1893e-07
3612.53	-3.66559e-07
3621.21	-4.66966e-07
3629.89	-2.9022e-07
3638.57	-3.92417e-07
3647.24	-4.34861e-07
3655.92	-4.93238e-07
3664.6	-6.31884e-07
3673.28	-5.1624e-07
3681.96	-5.18319e-07
3690.64	-5.44922e-07
3699.31	-6.34845e-07
3707.99	-5.15491e-07
3716.67	-5.93314e-07
3725.35	-4.91745e-07
3734.03	-5.09619e-07
3742.7	-5.76204e-07
3751.38	-4.61775e-07
3760.06	-5.63764e-07
3768.74	-6.0575e-07
3777.42	-5.26632e-07
3786.1	-5.75156e-07
3794.77	-5.10378e-07
3803.45	-5.45228e-07
3812.13	-5.95059e-07
3820.81	-3.88573e-07
3829.49	-5.88016e-07
3838.16	-2.47523e-07
3846.84	-6.01568e-07
3855.52	-5.46305e-07
3864.2	-7.2121e-07
3872.88	-6.96817e-07
3881.56	-6.8031e-07
3890.23	-6.96311e-07
3898.91	-6.41226e-07
3907.59	-7.17634e-07
3916.27	-6.78675e-07
3924.95	-6.39331e-07
3933.62	-6.43716e-07
3942.3	-5.74923e-07
3950.98	-5.19718e-07
3959.66	-5.46996e-07
3968.34	-6.47905e-07
