Infrared Spectrum: Tetrachloroethene
Formula: C2 Cl4
CAS: 127-18-4
State: gas
Melting point: -19 C
Boiling point: 121 C
Class: IUPAC A
Instrument: IFS66V (Bruker)
Instrument parameters: KBr Beam Splitter; MCT Detector; Multipass cell
Sampling: 1 L/min Flow
Resolution: 0.9640
Temperature: 23 C
Pressure: 101.3 Pa
Origin: NIST, Analytical Chemistry Division, 301-975-3108
cm-1	(micromol/mol)-1m-1 (base 10)
575.17	7.0339e-07
583.848	-6.76558e-08
592.526	8.68345e-07
601.205	-1.98049e-07
609.883	1.66395e-07
618.561	2.09392e-08
627.239	-1.38753e-07
635.917	-3.65479e-07
644.595	-1.94726e-07
653.274	-6.50366e-08
661.952	-2.56927e-07
670.63	-1.53351e-07
679.308	6.33059e-07
687.986	8.22347e-07
696.664	6.74641e-07
705.343	-2.77031e-07
714.021	-3.873e-07
722.699	-2.16707e-07
731.377	2.19634e-07
740.055	5.26824e-06
748.734	3.32959e-05
757.412	5.48857e-05
766.09	4.98137e-05
774.768	0.000290107
783.446	0.000336378
792.124	9.61357e-05
800.803	0.000194633
809.481	0.000137539
818.159	1.1437e-05
826.837	8.48709e-06
835.515	3.76792e-06
844.194	1.65629e-08
852.872	8.86805e-08
861.55	1.51754e-07
870.228	1.63754e-07
878.906	1.37484e-06
887.584	9.92709e-06
896.263	5.57749e-05
904.941	0.000378057
913.619	0.00138064
922.297	0.00132999
930.975	0.000104531
939.653	1.69389e-06
948.332	6.1828e-08
957.01	-4.82209e-08
965.688	6.51403e-08
974.366	6.37343e-09
983.044	8.39804e-07
991.723	1.17124e-06
1000.4	5.85449e-08
1009.08	3.10883e-07
1017.76	1.45094e-08
1026.44	-3.62165e-07
1035.11	-1.79847e-07
1043.79	-2.22286e-07
1052.47	-3.21325e-07
1061.15	-1.44226e-07
1069.83	-1.88929e-07
1078.5	1.90803e-07
1087.18	2.29658e-06
1095.86	6.16271e-06
1104.54	5.56602e-06
1113.22	6.10769e-06
1121.9	1.06549e-05
1130.57	8.4388e-06
1139.25	5.53133e-06
1147.93	7.14564e-06
1156.61	4.83068e-06
1165.29	1.77763e-06
1173.96	2.28814e-06
1182.64	1.60504e-06
1191.32	2.79901e-07
1200	1.4656e-07
1208.68	8.79147e-08
1217.36	4.25403e-07
1226.03	9.26957e-07
1234.71	7.59844e-07
1243.39	5.51416e-07
1252.07	1.54842e-06
1260.75	1.96716e-06
1269.42	1.16826e-06
1278.1	1.78609e-07
1286.78	-5.3512e-08
1295.46	4.08032e-07
1304.14	3.52241e-07
1312.82	-2.56414e-07
1321.49	-3.48599e-07
1330.17	-2.29858e-07
1338.85	3.03096e-07
1347.53	1.98742e-06
1356.21	5.93534e-06
1364.88	6.58531e-06
1373.56	2.55463e-06
1382.24	4.05833e-07
1390.92	2.33057e-07
1399.6	1.22003e-07
1408.28	-9.71584e-08
1416.95	-2.39556e-07
1425.63	-3.24803e-07
1434.31	-2.97939e-07
1442.99	-3.40154e-07
1451.67	-2.87661e-07
1460.34	-2.40455e-07
1469.02	-3.28833e-07
1477.7	-1.54705e-07
1486.38	-1.46665e-07
1495.06	-2.35671e-07
1503.73	-3.4417e-07
1512.41	-1.95421e-07
1521.09	2.07775e-07
1529.77	-2.53751e-07
1538.45	-1.59783e-07
1547.13	-7.78344e-08
1555.8	-7.21867e-08
1564.48	2.02645e-07
1573.16	2.60326e-07
1581.84	1.21288e-07
1590.52	2.19365e-07
1599.19	4.24167e-09
1607.87	-2.28879e-07
1616.55	3.64613e-07
1625.23	-3.91609e-07
1633.91	-3.33101e-07
1642.59	-2.80469e-07
1651.26	-1.7159e-07
1659.94	-4.34935e-07
1668.62	-3.84237e-07
1677.3	-3.01484e-07
1685.98	-1.82967e-07
1694.65	-3.43748e-07
1703.33	-4.05682e-07
1712.01	-4.03918e-07
1720.69	-2.27783e-07
1729.37	-1.88251e-07
1738.05	-1.97218e-07
1746.72	1.37705e-07
1755.4	1.31548e-07
1764.08	8.10338e-08
1772.76	1.10894e-06
1781.44	1.07079e-06
1790.11	4.90597e-07
1798.79	6.50117e-07
1807.47	3.39801e-07
1816.15	-6.82711e-07
1824.83	-7.95829e-07
1833.51	-9.79267e-07
1842.18	-8.29035e-07
1850.86	-4.86874e-07
1859.54	-3.90027e-08
1868.22	3.13215e-08
1876.9	3.84832e-07
1885.57	8.96057e-07
1894.25	8.94677e-07
1902.93	5.4254e-07
1911.61	7.27136e-07
1920.29	1.81852e-07
1928.97	-4.48712e-07
1937.64	-5.79716e-07
1946.32	-5.60901e-07
1955	-5.14652e-07
1963.68	-4.55303e-07
1972.36	-4.5935e-07
1981.03	-4.01699e-07
1989.71	-4.14771e-07
1998.39	-4.45669e-07
2007.07	-4.31348e-07
2015.75	-5.28269e-07
2024.43	-4.49541e-07
2033.1	-4.43823e-07
2041.78	-5.0552e-07
2050.46	-5.49004e-07
2059.14	-5.42318e-07
2067.82	-5.40157e-07
2076.49	-4.58687e-07
2085.17	-5.13917e-07
2093.85	-4.93069e-07
2102.53	-5.52833e-07
2111.21	-4.55864e-07
2119.89	-4.18412e-07
2128.56	-5.58795e-07
2137.24	-5.46832e-07
2145.92	-4.45914e-07
2154.6	-3.97308e-07
2163.28	-5.21018e-07
2171.95	-5.01067e-07
2180.63	-2.90931e-07
2189.31	5.11922e-07
2197.99	1.21404e-07
2206.67	2.16489e-06
2215.35	1.55658e-06
2224.02	5.97345e-08
2232.7	1.75448e-06
2241.38	1.74421e-06
2250.06	3.42583e-07
2258.74	-3.31424e-07
2267.41	-4.362e-07
2276.09	-5.07431e-07
2284.77	-4.75064e-07
2293.45	-5.22979e-07
2302.13	-5.42163e-07
2310.81	-3.30414e-07
2319.48	3.42844e-08
2328.16	1.41176e-07
2336.84	-8.67613e-07
2345.52	1.54392e-07
2354.2	1.31909e-06
2362.87	3.57704e-06
2371.55	1.52021e-06
2380.23	-2.81975e-07
2388.91	-4.1211e-07
2397.59	-4.5257e-07
2406.27	-5.26575e-07
2414.94	-4.86228e-07
2423.62	-4.91207e-07
2432.3	-4.12892e-07
2440.98	-5.16564e-07
2449.66	-3.61004e-07
2458.33	-3.77585e-07
2467.01	-2.61461e-07
2475.69	1.75726e-07
2484.37	9.3942e-07
2493.05	1.67965e-06
2501.73	1.0995e-06
2510.4	-2.76526e-07
2519.08	-4.60807e-07
2527.76	-4.99761e-07
2536.44	-5.83463e-07
2545.12	-4.1052e-07
2553.79	-5.18223e-07
2562.47	-5.01562e-07
2571.15	-5.0156e-07
2579.83	-3.59951e-07
2588.51	-4.28413e-07
2597.19	-5.08875e-07
2605.86	-4.37067e-07
2614.54	-5.32523e-07
2623.22	-5.12368e-07
2631.9	-5.04694e-07
2640.58	-5.37298e-07
2649.25	-5.88718e-07
2657.93	-5.43647e-07
2666.61	-5.66267e-07
2675.29	-5.29984e-07
2683.97	-5.82255e-07
2692.65	-6.23608e-07
2701.32	-5.36072e-07
2710	-6.93319e-07
2718.68	-4.97895e-07
2727.36	-4.47802e-07
2736.04	-3.1111e-07
2744.71	-3.44283e-07
2753.39	-4.42333e-07
2762.07	-3.51461e-07
2770.75	-4.59963e-07
2779.43	-4.30019e-07
2788.11	-3.60404e-07
2796.78	-3.8656e-07
2805.46	-4.48841e-07
2814.14	-4.42204e-07
2822.82	-4.14402e-07
2831.5	-4.60122e-07
2840.17	-4.28535e-07
2848.85	-4.61791e-07
2857.53	-4.56764e-07
2866.21	-3.59118e-07
2874.89	-1.94102e-07
2883.57	-1.18125e-07
2892.24	-2.77273e-08
2900.92	3.38788e-08
2909.6	-5.43596e-08
2918.28	-3.55082e-07
2926.96	-3.49216e-07
2935.63	-3.3469e-07
2944.31	-2.34471e-07
2952.99	-2.74297e-07
2961.67	-6.33574e-07
2970.35	-3.73158e-07
2979.03	-3.16976e-07
2987.7	-2.1905e-07
2996.38	-2.98292e-07
3005.06	-4.67408e-07
3013.74	-4.58765e-07
3022.42	-3.68345e-07
3031.09	-5.14198e-07
3039.77	-6.39087e-07
3048.45	-5.34593e-07
3057.13	-5.48768e-07
3065.81	-5.36455e-07
3074.49	-4.54156e-07
3083.16	-4.21814e-07
3091.84	-4.60806e-07
3100.52	-5.82164e-07
3109.2	-4.47015e-07
3117.88	-4.70333e-07
3126.55	-3.99498e-07
3135.23	-3.45676e-07
3143.91	-3.49105e-07
3152.59	-2.48189e-07
3161.27	-2.95773e-07
3169.95	-2.40342e-07
3178.62	-2.95446e-07
3187.3	-2.85089e-07
3195.98	-4.5194e-07
3204.66	-4.25795e-07
3213.34	-1.58637e-07
3222.01	-3.41036e-07
3230.69	-3.51393e-07
3239.37	-3.73809e-07
3248.05	-4.23016e-07
3256.73	-1.57262e-07
3265.41	-2.65139e-07
3274.08	-2.30225e-07
3282.76	-2.48615e-07
3291.44	-3.09864e-07
3300.12	-2.69514e-07
3308.8	-2.29723e-07
3317.47	-2.8058e-07
3326.15	-3.1925e-07
3334.83	-4.34284e-07
3343.51	-2.59964e-07
3352.19	-4.08308e-07
3360.86	-4.51596e-07
3369.54	-3.94734e-07
3378.22	-4.67801e-07
3386.9	-3.16063e-07
3395.58	-4.13856e-07
3404.26	-3.08034e-07
3412.93	-3.91964e-07
3421.61	-4.37658e-07
3430.29	-4.35914e-07
3438.97	-3.44749e-07
3447.65	-4.39803e-07
3456.32	-9.11851e-08
3465	-3.70363e-07
3473.68	-3.68002e-07
3482.36	-4.78713e-07
3491.04	-3.15219e-07
3499.72	-4.36874e-07
3508.39	-4.03461e-07
3517.07	-6.39494e-07
3525.75	-5.64561e-07
3534.43	-4.70333e-07
3543.11	-6.22704e-07
3551.78	-5.48167e-07
3560.46	-5.35368e-07
3569.14	-4.87598e-07
3577.82	-4.59587e-07
3586.5	-5.12857e-08
3595.18	-4.05938e-07
3603.85	-5.9508e-07
3612.53	-2.56288e-07
3621.21	-4.29439e-07
3629.89	-2.43416e-07
3638.57	-4.24044e-07
3647.24	-3.9941e-07
3655.92	-5.52053e-07
3664.6	-6.46752e-07
3673.28	-5.47376e-07
3681.96	-4.88517e-07
3690.64	-5.20686e-07
3699.31	-6.16558e-07
3707.99	-5.65689e-07
3716.67	-6.30174e-07
3725.35	-5.34189e-07
3734.03	-6.06185e-07
3742.7	-6.07294e-07
3751.38	-5.06365e-07
3760.06	-5.20922e-07
3768.74	-5.51909e-07
3777.42	-4.83098e-07
3786.1	-5.47824e-07
3794.77	-4.32062e-07
3803.45	-5.20555e-07
3812.13	-5.389e-07
3820.81	-3.3644e-07
3829.49	-5.73834e-07
3838.16	-1.55663e-07
3846.84	-6.06961e-07
3855.52	-5.33758e-07
3864.2	-8.03399e-07
3872.88	-7.12145e-07
3881.56	-7.12716e-07
3890.23	-7.02303e-07
3898.91	-6.97572e-07
3907.59	-6.88001e-07
3916.27	-5.57156e-07
3924.95	-6.41421e-07
3933.62	-6.54562e-07
3942.3	-5.47127e-07
3950.98	-4.66195e-07
3959.66	-5.99515e-07
3968.34	-6.4056e-07
