Infrared Spectrum: Tetrachloroethene
Formula: C2 Cl4
CAS: 127-18-4
State: gas
Melting point: -19 C
Boiling point: 121 C
Class: IUPAC A
Instrument: IFS66V (Bruker)
Instrument parameters: KBr Beam Splitter; MCT Detector; Multipass cell
Sampling: 1 L/min Flow
Resolution: 0.9640
Temperature: 23 C
Pressure: 101.3 Pa
Origin: NIST, Analytical Chemistry Division, 301-975-3108
cm-1	(micromol/mol)-1m-1 (base 10)
575.17	5.90708e-07
583.848	5.45816e-08
592.526	3.65221e-07
601.205	-1.63026e-07
609.883	1.52711e-07
618.561	6.36924e-08
627.239	-1.20444e-07
635.917	-3.65233e-07
644.595	-1.99706e-07
653.274	-4.77188e-08
661.952	-9.67764e-08
670.63	-9.06703e-08
679.308	5.79025e-07
687.986	1.06308e-06
696.664	7.1856e-07
705.343	-1.70187e-07
714.021	-1.51611e-07
722.699	1.80981e-08
731.377	5.67961e-07
740.055	5.82138e-06
748.734	3.33496e-05
757.412	5.29401e-05
766.09	5.21238e-05
774.768	0.000285264
783.446	0.000340693
792.124	0.000101793
800.803	0.00019099
809.481	0.000135867
818.159	1.32212e-05
826.837	9.13098e-06
835.515	4.24037e-06
844.194	5.2333e-07
852.872	5.75713e-07
861.55	7.71152e-07
870.228	1.02655e-06
878.906	2.50529e-06
887.584	1.20378e-05
896.263	6.01986e-05
904.941	0.000383932
913.619	0.00135789
922.297	0.00129904
930.975	0.000117198
939.653	5.25428e-06
948.332	1.65622e-06
957.01	9.27288e-07
965.688	6.47776e-07
974.366	4.51045e-07
983.044	1.22095e-06
991.723	1.36942e-06
1000.4	2.7728e-07
1009.08	4.83713e-07
1017.76	1.41603e-07
1026.44	-1.98255e-07
1035.11	-1.07517e-07
1043.79	-1.21908e-07
1052.47	-1.47216e-07
1061.15	-6.11714e-08
1069.83	-9.5023e-08
1078.5	3.34701e-07
1087.18	2.38791e-06
1095.86	6.16071e-06
1104.54	5.79982e-06
1113.22	6.21711e-06
1121.9	1.05967e-05
1130.57	8.48468e-06
1139.25	5.64712e-06
1147.93	7.16353e-06
1156.61	4.84894e-06
1165.29	1.90803e-06
1173.96	2.26858e-06
1182.64	1.6139e-06
1191.32	2.81686e-07
1200	1.94217e-07
1208.68	9.88518e-08
1217.36	4.41927e-07
1226.03	9.88188e-07
1234.71	7.99396e-07
1243.39	6.23648e-07
1252.07	1.54201e-06
1260.75	2.02228e-06
1269.42	1.26739e-06
1278.1	2.79392e-07
1286.78	-1.76488e-08
1295.46	4.32172e-07
1304.14	3.49685e-07
1312.82	-1.98116e-07
1321.49	-3.2541e-07
1330.17	-2.05718e-07
1338.85	3.32306e-07
1347.53	2.0165e-06
1356.21	5.86336e-06
1364.88	6.42034e-06
1373.56	2.57166e-06
1382.24	4.48381e-07
1390.92	3.11368e-07
1399.6	1.60765e-07
1408.28	-4.12727e-08
1416.95	-1.92867e-07
1425.63	-3.06048e-07
1434.31	-3.0738e-07
1442.99	-3.1489e-07
1451.67	-2.88039e-07
1460.34	-2.69374e-07
1469.02	-2.87212e-07
1477.7	-1.52859e-07
1486.38	-1.51125e-07
1495.06	-2.76456e-07
1503.73	-3.27226e-07
1512.41	-2.54499e-07
1521.09	3.19945e-08
1529.77	-2.61179e-07
1538.45	7.30998e-08
1547.13	-8.54865e-08
1555.8	1.55552e-08
1564.48	1.82057e-07
1573.16	2.27159e-07
1581.84	1.73174e-07
1590.52	1.55829e-07
1599.19	6.99367e-09
1607.87	-2.44167e-07
1616.55	9.29276e-08
1625.23	-3.41608e-07
1633.91	-2.96031e-07
1642.59	-2.94504e-07
1651.26	-2.53433e-07
1659.94	-3.87511e-07
1668.62	-2.84412e-07
1677.3	-3.26909e-07
1685.98	-2.77981e-07
1694.65	-3.6645e-07
1703.33	-3.80998e-07
1712.01	-3.50093e-07
1720.69	-2.4462e-07
1729.37	-1.99533e-07
1738.05	-1.40334e-07
1746.72	1.5634e-07
1755.4	1.63526e-07
1764.08	6.3014e-08
1772.76	8.99848e-07
1781.44	1.08238e-06
1790.11	5.29484e-07
1798.79	6.68375e-07
1807.47	3.12723e-07
1816.15	-6.35094e-07
1824.83	-7.53723e-07
1833.51	-8.98646e-07
1842.18	-7.85861e-07
1850.86	-4.57166e-07
1859.54	-7.86529e-08
1868.22	5.66878e-08
1876.9	3.45053e-07
1885.57	8.91803e-07
1894.25	8.61185e-07
1902.93	5.12315e-07
1911.61	7.33673e-07
1920.29	2.09565e-07
1928.97	-4.57653e-07
1937.64	-5.38975e-07
1946.32	-5.33256e-07
1955	-4.85583e-07
1963.68	-4.74174e-07
1972.36	-4.71592e-07
1981.03	-4.22178e-07
1989.71	-4.1691e-07
1998.39	-4.49365e-07
2007.07	-4.11397e-07
2015.75	-4.85297e-07
2024.43	-4.80013e-07
2033.1	-4.43284e-07
2041.78	-4.66848e-07
2050.46	-5.04737e-07
2059.14	-5.34644e-07
2067.82	-5.19843e-07
2076.49	-4.68356e-07
2085.17	-4.87973e-07
2093.85	-4.65893e-07
2102.53	-4.98733e-07
2111.21	-4.29777e-07
2119.89	-4.19233e-07
2128.56	-4.86223e-07
2137.24	-4.92986e-07
2145.92	-4.38142e-07
2154.6	-3.80014e-07
2163.28	-4.69153e-07
2171.95	-4.01682e-07
2180.63	-2.2972e-07
2189.31	1.91872e-07
2197.99	6.53045e-07
2206.67	1.29335e-06
2215.35	1.24574e-06
2224.02	1.05678e-08
2232.7	1.71784e-06
2241.38	1.67485e-06
2250.06	2.93214e-07
2258.74	-3.6721e-07
2267.41	-4.41538e-07
2276.09	-4.97087e-07
2284.77	-4.61077e-07
2293.45	-4.78123e-07
2302.13	-4.54272e-07
2310.81	-2.53858e-07
2319.48	1.2e-07
2328.16	3.25696e-07
2336.84	-1.68612e-08
2345.52	1.91125e-07
2354.2	9.28716e-07
2362.87	2.06233e-06
2371.55	8.48786e-07
2380.23	-2.15223e-07
2388.91	-4.21565e-07
2397.59	-4.69511e-07
2406.27	-5.01269e-07
2414.94	-5.08395e-07
2423.62	-4.86579e-07
2432.3	-4.51429e-07
2440.98	-4.91569e-07
2449.66	-4.11137e-07
2458.33	-3.85954e-07
2467.01	-2.68122e-07
2475.69	1.73034e-07
2484.37	9.21264e-07
2493.05	1.62953e-06
2501.73	1.10066e-06
2510.4	-2.18264e-07
2519.08	-4.56442e-07
2527.76	-5.33049e-07
2536.44	-5.54861e-07
2545.12	-4.69813e-07
2553.79	-5.08417e-07
2562.47	-4.96276e-07
2571.15	-4.54536e-07
2579.83	-4.01268e-07
2588.51	-4.39195e-07
2597.19	-4.95845e-07
2605.86	-4.54401e-07
2614.54	-5.24194e-07
2623.22	-5.2315e-07
2631.9	-4.89142e-07
2640.58	-5.58784e-07
2649.25	-5.66844e-07
2657.93	-5.45705e-07
2666.61	-5.57797e-07
2675.29	-5.48942e-07
2683.97	-5.60794e-07
2692.65	-5.96719e-07
2701.32	-5.50968e-07
2710	-5.97758e-07
2718.68	-5.03153e-07
2727.36	-4.67812e-07
2736.04	-3.60224e-07
2744.71	-3.44518e-07
2753.39	-4.01728e-07
2762.07	-4.20486e-07
2770.75	-4.21306e-07
2779.43	-4.24795e-07
2788.11	-3.77602e-07
2796.78	-4.12421e-07
2805.46	-4.39981e-07
2814.14	-4.88893e-07
2822.82	-4.6978e-07
2831.5	-4.9589e-07
2840.17	-4.47737e-07
2848.85	-4.97671e-07
2857.53	-4.20477e-07
2866.21	-3.19401e-07
2874.89	-2.23861e-07
2883.57	-1.64278e-07
2892.24	-5.73608e-08
2900.92	2.16104e-08
2909.6	-5.90506e-08
2918.28	-3.42075e-07
2926.96	-3.40847e-07
2935.63	-3.20665e-07
2944.31	-2.38349e-07
2952.99	-2.99727e-07
2961.67	-4.8754e-07
2970.35	-3.68003e-07
2979.03	-3.23502e-07
2987.7	-2.39771e-07
2996.38	-3.20692e-07
3005.06	-4.4724e-07
3013.74	-4.83109e-07
3022.42	-4.48348e-07
3031.09	-5.22688e-07
3039.77	-5.90242e-07
3048.45	-5.16824e-07
3057.13	-5.52726e-07
3065.81	-5.43149e-07
3074.49	-4.63507e-07
3083.16	-4.83205e-07
3091.84	-4.81214e-07
3100.52	-5.28218e-07
3109.2	-4.37145e-07
3117.88	-4.50296e-07
3126.55	-4.12992e-07
3135.23	-3.35613e-07
3143.91	-3.15588e-07
3152.59	-2.94784e-07
3161.27	-3.04509e-07
3169.95	-3.02194e-07
3178.62	-3.44614e-07
3187.3	-2.99358e-07
3195.98	-4.05025e-07
3204.66	-4.23769e-07
3213.34	-2.14365e-07
3222.01	-3.47546e-07
3230.69	-3.44256e-07
3239.37	-3.71237e-07
3248.05	-3.47355e-07
3256.73	-2.05668e-07
3265.41	-2.35669e-07
3274.08	-2.38751e-07
3282.76	-2.54368e-07
3291.44	-3.3321e-07
3300.12	-2.88987e-07
3308.8	-2.61925e-07
3317.47	-2.89976e-07
3326.15	-3.30489e-07
3334.83	-4.05231e-07
3343.51	-2.49633e-07
3352.19	-3.72487e-07
3360.86	-4.42044e-07
3369.54	-3.7788e-07
3378.22	-4.00549e-07
3386.9	-3.35623e-07
3395.58	-3.99501e-07
3404.26	-3.92108e-07
3412.93	-4.01338e-07
3421.61	-4.47375e-07
3430.29	-4.03285e-07
3438.97	-3.95352e-07
3447.65	-4.34022e-07
3456.32	-2.15874e-07
3465	-4.01106e-07
3473.68	-3.95294e-07
3482.36	-4.01449e-07
3491.04	-3.5504e-07
3499.72	-4.09322e-07
3508.39	-4.81088e-07
3517.07	-5.91037e-07
3525.75	-5.48602e-07
3534.43	-4.85626e-07
3543.11	-5.34793e-07
3551.78	-5.57033e-07
3560.46	-5.05903e-07
3569.14	-4.51431e-07
3577.82	-4.16181e-07
3586.5	-2.34593e-07
3595.18	-3.79242e-07
3603.85	-5.15822e-07
3612.53	-3.70755e-07
3621.21	-4.57643e-07
3629.89	-3.00269e-07
3638.57	-4.0044e-07
3647.24	-4.41773e-07
3655.92	-5.02577e-07
3664.6	-6.22515e-07
3673.28	-5.04095e-07
3681.96	-5.14821e-07
3690.64	-5.44388e-07
3699.31	-6.22988e-07
3707.99	-5.07328e-07
3716.67	-5.85859e-07
3725.35	-4.91978e-07
3734.03	-5.05196e-07
3742.7	-5.61629e-07
3751.38	-4.69051e-07
3760.06	-5.59999e-07
3768.74	-5.95117e-07
3777.42	-5.28354e-07
3786.1	-5.68923e-07
3794.77	-5.05367e-07
3803.45	-5.3699e-07
3812.13	-5.90741e-07
3820.81	-3.98914e-07
3829.49	-5.81142e-07
3838.16	-2.7281e-07
3846.84	-5.99784e-07
3855.52	-5.23565e-07
3864.2	-7.10964e-07
3872.88	-6.83677e-07
3881.56	-6.76036e-07
3890.23	-6.87508e-07
3898.91	-6.40129e-07
3907.59	-7.10495e-07
3916.27	-6.72977e-07
3924.95	-6.35138e-07
3933.62	-6.39587e-07
3942.3	-5.76455e-07
3950.98	-5.2171e-07
3959.66	-5.53751e-07
3968.34	-6.39105e-07
