Infrared Spectrum: Tetrachloroethene
Formula: C2 Cl4
CAS: 127-18-4
State: gas
Melting point: -19 C
Boiling point: 121 C
Class: IUPAC A
Instrument: IFS66V (Bruker)
Instrument parameters: KBr Beam Splitter; MCT Detector; Multipass cell
Sampling: 1 L/min Flow
Resolution: 1.9290
Temperature: 23 C
Pressure: 101.3 Pa
Origin: NIST, Analytical Chemistry Division, 301-975-3108
cm-1	(micromol/mol)-1m-1 (base 10)
575.652	6.91713e-07
584.33	-3.06958e-08
593.008	8.2689e-08
601.687	-2.24003e-07
610.365	8.10102e-08
619.043	1.50787e-07
627.721	-1.9227e-07
636.399	-3.65442e-07
645.077	-2.82712e-07
653.756	-6.14879e-08
662.434	-1.41387e-07
671.112	-1.34442e-07
679.79	5.08885e-07
688.468	1.05827e-06
697.146	5.16888e-07
705.825	-2.47834e-07
714.503	-3.05755e-07
723.181	-1.81914e-07
731.859	2.67424e-07
740.537	6.20098e-06
749.216	3.51355e-05
757.894	4.90813e-05
766.572	5.35083e-05
775.25	0.000302735
783.928	0.000340396
792.606	9.61126e-05
801.285	0.000195171
809.963	0.000125946
818.641	1.09434e-05
827.319	8.51209e-06
835.997	3.11844e-06
844.676	7.08498e-08
853.354	7.83618e-08
862.032	1.56736e-07
870.71	3.00886e-07
879.388	1.35438e-06
888.066	1.12246e-05
896.745	6.13329e-05
905.423	0.000423511
914.101	0.00140273
922.779	0.00127141
931.457	8.78288e-05
940.135	1.51492e-06
948.814	8.68725e-08
957.492	5.78719e-08
966.17	1.96368e-08
974.848	6.51785e-08
983.526	9.50817e-07
992.205	1.0862e-06
1000.88	7.67885e-08
1009.56	3.21507e-07
1018.24	-7.36054e-08
1026.92	-2.8445e-07
1035.6	-2.42454e-07
1044.27	-2.2014e-07
1052.95	-1.99868e-07
1061.63	-1.17064e-07
1070.31	-1.44512e-07
1078.99	3.07574e-07
1087.66	2.50216e-06
1096.34	6.52346e-06
1105.02	5.55903e-06
1113.7	6.3235e-06
1122.38	1.07346e-05
1131.06	8.30557e-06
1139.73	5.75781e-06
1148.41	7.19618e-06
1157.09	4.58153e-06
1165.77	1.90948e-06
1174.45	2.22507e-06
1183.12	1.52922e-06
1191.8	2.40275e-07
1200.48	1.61755e-07
1209.16	9.55505e-08
1217.84	4.62899e-07
1226.52	1.02593e-06
1235.19	7.55653e-07
1243.87	6.54802e-07
1252.55	1.58093e-06
1261.23	2.02066e-06
1269.91	1.21337e-06
1278.58	2.69388e-07
1287.26	-3.86262e-08
1295.94	4.42415e-07
1304.62	3.15819e-07
1313.3	-2.1104e-07
1321.98	-3.46135e-07
1330.65	-2.14868e-07
1339.33	3.41426e-07
1348.01	2.09947e-06
1356.69	6.06275e-06
1365.37	6.30215e-06
1374.04	2.30433e-06
1382.72	3.90878e-07
1391.4	3.039e-07
1400.08	1.29906e-07
1408.76	-5.64987e-08
1417.44	-2.20245e-07
1426.11	-3.15714e-07
1434.79	-3.01505e-07
1443.47	-3.06694e-07
1452.15	-3.20068e-07
1460.83	-3.30292e-07
1469.5	-2.64637e-07
1478.18	-1.38782e-07
1486.86	-1.34871e-07
1495.54	-2.12528e-07
1504.22	-3.31973e-07
1512.9	-3.12683e-07
1521.57	-9.664e-08
1530.25	-2.77839e-07
1538.93	2.16773e-07
1547.61	-7.72541e-08
1556.29	6.08295e-08
1564.96	1.75724e-07
1573.64	2.2243e-07
1582.32	1.59588e-07
1591	1.23376e-07
1599.68	-1.9997e-08
1608.36	-2.5716e-07
1617.03	-9.22037e-08
1625.71	-3.37835e-07
1634.39	-2.05185e-07
1643.07	-3.15192e-07
1651.75	-4.53379e-08
1660.42	-4.06641e-07
1669.1	-2.4406e-07
1677.78	-3.55357e-07
1686.46	-2.96674e-07
1695.14	-1.80868e-07
1703.82	-3.64011e-07
1712.49	-3.35649e-07
1721.17	-2.69741e-07
1729.85	-1.85768e-07
1738.53	-1.01851e-07
1747.21	1.61205e-07
1755.88	1.87401e-07
1764.56	3.35387e-08
1773.24	8.062e-07
1781.92	1.10672e-06
1790.6	4.52686e-07
1799.28	6.83228e-07
1807.95	2.45133e-07
1816.63	-6.64604e-07
1825.31	-7.81587e-07
1833.99	-8.8289e-07
1842.67	-7.43077e-07
1851.34	-4.35754e-07
1860.02	-6.31795e-08
1868.7	5.66078e-08
1877.38	3.85576e-07
1886.06	9.3787e-07
1894.74	7.92142e-07
1903.41	5.07071e-07
1912.09	7.45134e-07
1920.77	1.74562e-07
1929.45	-4.78867e-07
1938.13	-5.36264e-07
1946.8	-5.16671e-07
1955.48	-5.08921e-07
1964.16	-4.96376e-07
1972.84	-4.63554e-07
1981.52	-4.47249e-07
1990.19	-4.36409e-07
1998.87	-4.61979e-07
2007.55	-4.2485e-07
2016.23	-4.84846e-07
2024.91	-4.86965e-07
2033.59	-4.59905e-07
2042.26	-4.80659e-07
2050.94	-5.03875e-07
2059.62	-5.22248e-07
2068.3	-4.99694e-07
2076.98	-4.94101e-07
2085.65	-4.80326e-07
2094.33	-4.5287e-07
2103.01	-5.00114e-07
2111.69	-4.38448e-07
2120.37	-4.6384e-07
2129.05	-4.81339e-07
2137.72	-4.99124e-07
2146.4	-4.4801e-07
2155.08	-4.02008e-07
2163.76	-4.75884e-07
2172.44	-3.47503e-07
2181.11	-2.30236e-07
2189.79	1.80215e-07
2198.47	7.04807e-07
2207.15	1.27697e-06
2215.83	1.22441e-06
2224.51	8.20851e-08
2233.18	1.80529e-06
2241.86	1.64065e-06
2250.54	2.28727e-07
2259.22	-4.11744e-07
2267.9	-4.24337e-07
2276.57	-5.04343e-07
2285.25	-4.72154e-07
2293.93	-4.85521e-07
2302.61	-4.37231e-07
2311.29	-2.97943e-07
2319.97	-3.31222e-08
2328.64	5.0734e-07
2337.32	7.15513e-07
2346	2.39751e-07
2354.68	7.82987e-07
2363.36	1.52488e-06
2372.03	6.80074e-07
2380.71	-2.54482e-07
2389.39	-4.24051e-07
2398.07	-4.85224e-07
2406.75	-5.00467e-07
2415.43	-5.35182e-07
2424.1	-4.91714e-07
2432.78	-4.60931e-07
2441.46	-4.55227e-07
2450.14	-4.37365e-07
2458.82	-3.77334e-07
2467.49	-2.47932e-07
2476.17	2.13028e-07
2484.85	9.92046e-07
2493.53	1.6724e-06
2502.21	1.04638e-06
2510.89	-2.68988e-07
2519.56	-4.73387e-07
2528.24	-5.429e-07
2536.92	-5.28334e-07
2545.6	-4.93524e-07
2554.28	-5.05932e-07
2562.95	-4.96542e-07
2571.63	-4.61713e-07
2580.31	-4.39248e-07
2588.99	-4.56653e-07
2597.67	-5.01258e-07
2606.35	-4.64947e-07
2615.02	-5.06989e-07
2623.7	-5.2277e-07
2632.38	-4.73109e-07
2641.06	-5.62298e-07
2649.74	-5.63159e-07
2658.41	-5.48793e-07
2667.09	-5.39169e-07
2675.77	-5.54112e-07
2684.45	-5.3952e-07
2693.13	-5.8486e-07
2701.81	-5.36568e-07
2710.48	-5.86044e-07
2719.16	-5.32359e-07
2727.84	-4.71644e-07
2736.52	-4.03572e-07
2745.2	-3.38106e-07
2753.87	-3.89952e-07
2762.55	-4.63332e-07
2771.23	-4.14547e-07
2779.91	-4.00927e-07
2788.59	-3.7903e-07
2797.27	-4.1299e-07
2805.94	-4.367e-07
2814.62	-5.11124e-07
2823.3	-5.01913e-07
2831.98	-5.18134e-07
2840.66	-4.81141e-07
2849.33	-4.88344e-07
2858.01	-3.80252e-07
2866.69	-3.06965e-07
2875.37	-2.27777e-07
2884.05	-1.8155e-07
2892.73	-9.90609e-08
2901.4	6.38434e-09
2910.08	-4.59418e-08
2918.76	-3.11159e-07
2927.44	-3.48549e-07
2936.12	-2.99546e-07
2944.79	-2.60688e-07
2953.47	-3.08409e-07
2962.15	-3.16105e-07
2970.83	-3.35614e-07
2979.51	-2.94349e-07
2988.19	-2.54777e-07
2996.86	-3.34709e-07
3005.54	-4.44465e-07
3014.22	-5.08928e-07
3022.9	-4.84168e-07
3031.58	-5.31968e-07
3040.25	-5.68928e-07
3048.93	-5.20002e-07
3057.61	-5.94526e-07
3066.29	-5.51591e-07
3074.97	-4.7321e-07
3083.65	-4.83433e-07
3092.32	-4.75415e-07
3101	-4.61926e-07
3109.68	-4.11091e-07
3118.36	-3.97322e-07
3127.04	-4.03958e-07
3135.71	-3.10757e-07
3144.39	-2.83339e-07
3153.07	-3.0436e-07
3161.75	-3.2877e-07
3170.43	-3.1248e-07
3179.11	-3.53923e-07
3187.78	-3.34488e-07
3196.46	-3.81389e-07
3205.14	-4.36127e-07
3213.82	-2.74268e-07
3222.5	-3.15528e-07
3231.17	-3.26309e-07
3239.85	-3.81185e-07
3248.53	-2.99611e-07
3257.21	-2.23426e-07
3265.89	-2.53315e-07
3274.57	-2.55474e-07
3283.24	-2.71749e-07
3291.92	-3.43792e-07
3300.6	-3.28441e-07
3309.28	-2.9767e-07
3317.96	-3.06346e-07
3326.63	-3.22818e-07
3335.31	-3.91165e-07
3343.99	-2.53104e-07
3352.67	-3.83579e-07
3361.35	-4.20555e-07
3370.03	-3.88743e-07
3378.7	-3.80565e-07
3387.38	-3.80176e-07
3396.06	-3.60526e-07
3404.74	-4.43122e-07
3413.42	-3.80474e-07
3422.09	-4.5712e-07
3430.77	-3.78411e-07
3439.45	-4.19062e-07
3448.13	-3.80692e-07
3456.81	-3.46695e-07
3465.49	-4.16204e-07
3474.16	-4.45127e-07
3482.84	-3.7581e-07
3491.52	-3.82178e-07
3500.2	-3.90525e-07
3508.88	-5.2293e-07
3517.55	-5.53104e-07
3526.23	-5.4901e-07
3534.91	-4.48959e-07
3543.59	-4.75802e-07
3552.27	-5.71258e-07
3560.95	-4.90856e-07
3569.62	-4.20282e-07
3578.3	-3.76907e-07
3586.98	-3.20423e-07
3595.66	-3.67116e-07
3604.34	-4.73694e-07
3613.01	-4.22169e-07
3621.69	-4.7125e-07
3630.37	-3.87026e-07
3639.05	-4.0072e-07
3647.73	-4.58525e-07
3656.41	-4.77918e-07
3665.08	-6.27686e-07
3673.76	-4.89386e-07
3682.44	-4.97938e-07
3691.12	-5.14905e-07
3699.8	-6.08629e-07
3708.47	-4.45359e-07
3717.15	-5.6781e-07
3725.83	-4.81043e-07
3734.51	-4.37658e-07
3743.19	-4.67368e-07
3751.87	-3.14859e-07
3760.54	-5.81179e-07
3769.22	-5.24885e-07
3777.9	-5.58608e-07
3786.58	-6.02916e-07
3795.26	-5.45528e-07
3803.93	-5.37554e-07
3812.61	-6.10679e-07
3821.29	-3.90787e-07
3829.97	-5.49963e-07
3838.65	-4.71604e-07
3847.33	-5.77704e-07
3856	-5.60241e-07
3864.68	-6.06627e-07
3873.36	-6.71172e-07
3882.04	-6.72615e-07
3890.72	-6.02914e-07
3899.39	-6.15176e-07
3908.07	-7.37528e-07
3916.75	-6.54524e-07
3925.43	-6.16814e-07
3934.11	-6.47599e-07
3942.79	-5.87725e-07
3951.46	-5.6188e-07
3960.14	-5.52997e-07
3968.82	-6.47072e-07
