Infrared Spectrum: Tetrachloroethene
Formula: C2 Cl4
CAS: 127-18-4
State: gas
Melting point: -19 C
Boiling point: 121 C
Class: IUPAC A
Instrument: IFS66V (Bruker)
Instrument parameters: KBr Beam Splitter; MCT Detector; Multipass cell
Sampling: 1 L/min Flow
Resolution: 0.2410
Temperature: 23 C
Pressure: 101.3 Pa
Origin: NIST, Analytical Chemistry Division, 301-975-3108
cm-1	(micromol/mol)-1m-1 (base 10)
575.05	-6.07018e-07
583.608	1.11403e-06
592.165	2.4386e-08
600.723	-5.2052e-07
609.281	-3.6418e-07
617.838	-3.05912e-07
626.396	-2.68712e-07
634.954	-5.56412e-07
643.511	-3.60031e-07
652.069	9.80205e-09
660.626	-4.34644e-08
669.184	8.25853e-08
677.742	3.13122e-07
686.299	7.21052e-07
694.857	5.60349e-07
703.415	-1.51249e-07
711.972	-5.36168e-07
720.53	-1.64196e-07
729.088	3.11918e-07
737.645	2.08631e-06
746.203	2.25516e-05
754.761	5.17857e-05
763.318	4.16256e-05
771.876	0.000171858
780.434	0.000347869
788.991	0.000211987
797.549	0.00016259
806.106	0.000179284
814.664	3.49894e-05
823.222	9.05092e-06
831.779	7.53292e-06
840.337	3.01987e-07
848.895	1.88362e-07
857.452	4.3188e-08
866.01	1.26097e-07
874.568	4.54852e-07
883.125	3.21827e-06
891.683	2.46869e-05
900.241	0.000123026
908.798	0.000812222
917.356	0.00143212
925.914	0.000771657
934.471	1.99401e-05
943.029	4.27116e-07
951.586	-6.00965e-09
960.144	-2.0491e-07
968.702	-1.6526e-07
977.259	2.06805e-07
985.817	9.90258e-07
994.375	7.62785e-07
1002.93	1.00923e-07
1011.49	2.76151e-07
1020.05	-2.17964e-07
1028.61	-3.61084e-07
1037.16	-1.84809e-07
1045.72	-3.08938e-07
1054.28	8.44679e-08
1062.84	-1.9304e-07
1071.39	-1.1281e-07
1079.95	3.73415e-07
1088.51	2.81395e-06
1097.07	7.15793e-06
1105.62	5.26672e-06
1114.18	6.32169e-06
1122.74	1.07844e-05
1131.3	8.23941e-06
1139.85	5.73819e-06
1148.41	7.09644e-06
1156.97	4.5531e-06
1165.53	1.84598e-06
1174.09	2.20281e-06
1182.64	1.69714e-06
1191.2	3.17716e-07
1199.76	2.25454e-07
1208.32	1.20273e-07
1216.87	3.87051e-07
1225.43	1.06346e-06
1233.99	9.84767e-07
1242.55	5.9438e-07
1251.1	1.37956e-06
1259.66	1.89861e-06
1268.22	1.59165e-06
1276.78	2.84119e-07
1285.33	-6.24319e-08
1293.89	7.96915e-07
1302.45	7.91707e-07
1311.01	-7.56644e-08
1319.57	-1.25846e-07
1328.12	-2.35333e-07
1336.68	1.78161e-07
1345.24	1.46437e-06
1353.8	4.81671e-06
1362.35	6.52656e-06
1370.91	3.95236e-06
1379.47	5.25588e-07
1388.03	3.73879e-07
1396.58	2.31126e-07
1405.14	1.63874e-07
1413.7	-1.88904e-07
1422.26	-3.57796e-07
1430.81	-3.10428e-07
1439.37	-3.82398e-07
1447.93	-1.0305e-07
1456.49	1.81634e-07
1465.05	-7.76688e-08
1473.6	3.00419e-07
1482.16	-7.77616e-08
1490.72	-1.40857e-07
1499.28	-3.59306e-07
1507.83	-3.78513e-07
1516.39	-3.17716e-07
1524.95	-3.86031e-07
1533.51	-1.55221e-07
1542.06	5.42494e-07
1550.62	3.89154e-08
1559.18	1.52909e-07
1567.74	2.1072e-07
1576.29	1.18539e-06
1584.85	4.98651e-08
1593.41	7.62046e-08
1601.97	2.42769e-08
1610.53	-2.89925e-07
1619.08	-2.56228e-07
1627.64	-2.69505e-07
1636.2	-2.52327e-07
1644.76	-3.41742e-07
1653.31	1.08109e-06
1661.87	-2.97728e-07
1670.43	-3.00188e-07
1678.99	-3.95825e-07
1687.54	-3.65508e-07
1696.1	1.89622e-07
1704.66	-2.96055e-07
1713.22	-2.82664e-07
1721.77	-2.69827e-07
1730.33	-1.58513e-07
1738.89	-4.02141e-08
1747.45	1.71199e-07
1756.01	1.92507e-07
1764.56	7.84219e-08
1773.12	7.58314e-07
1781.68	1.12346e-06
1790.24	4.63845e-07
1798.79	6.32024e-07
1807.35	3.72889e-07
1815.91	-6.08478e-07
1824.47	-7.92193e-07
1833.02	-8.74969e-07
1841.58	-8.33646e-07
1850.14	-5.03775e-07
1858.7	-2.57562e-07
1867.25	2.94789e-08
1875.81	4.17179e-07
1884.37	1.09374e-06
1892.93	8.97138e-07
1901.49	3.86416e-07
1910.04	6.41237e-07
1918.6	4.07288e-07
1927.16	-5.15253e-07
1935.72	-5.10913e-07
1944.27	-5.92601e-07
1952.83	-5.19654e-07
1961.39	-4.55178e-07
1969.95	-5.25477e-07
1978.5	-4.79869e-07
1987.06	-4.50094e-07
1995.62	-4.16383e-07
2004.18	-4.9638e-07
2012.73	-4.4801e-07
2021.29	-4.39645e-07
2029.85	-4.50141e-07
2038.41	-4.95863e-07
2046.97	-5.11415e-07
2055.52	-5.06249e-07
2064.08	-5.54544e-07
2072.64	-4.89031e-07
2081.2	-5.34225e-07
2089.75	-5.09883e-07
2098.31	-5.5376e-07
2106.87	-6.03087e-07
2115.43	-3.60393e-07
2123.98	-4.22359e-07
2132.54	-4.00766e-07
2141.1	-4.86441e-07
2149.66	-4.48093e-07
2158.21	-3.21503e-07
2166.77	-4.16335e-07
2175.33	-5.09387e-07
2183.89	2.54937e-08
2192.45	1.35406e-06
2201	4.84379e-07
2209.56	3.60677e-06
2218.12	2.20987e-07
2226.68	1.35945e-08
2235.23	8.67566e-07
2243.79	2.48701e-06
2252.35	-1.59432e-07
2260.91	-3.93708e-07
2269.46	-4.39228e-07
2278.02	-5.41472e-07
2286.58	-5.33276e-07
2295.14	-4.4682e-07
2303.69	-4.65564e-07
2312.25	-5.11189e-07
2320.81	-1.17574e-08
2329.37	-2.05112e-07
2337.93	4.44097e-07
2346.48	-1.95575e-07
2355.04	-1.25759e-08
2363.6	3.93139e-07
2372.16	1.2432e-07
2380.71	-9.81133e-08
2389.27	-4.2908e-07
2397.83	-4.73458e-07
2406.39	-4.63816e-07
2414.94	-5.08079e-07
2423.5	-5.0423e-07
2432.06	-4.62124e-07
2440.62	-5.308e-07
2449.17	-3.9142e-07
2457.73	-3.64002e-07
2466.29	-2.27137e-07
2474.85	2.77946e-08
2483.41	8.95192e-07
2491.96	1.67843e-06
2500.52	1.19805e-06
2509.08	-1.10007e-07
2517.64	-4.92131e-07
2526.19	-6.41773e-07
2534.75	-5.24785e-07
2543.31	-4.57015e-07
2551.87	-4.54994e-07
2560.42	-5.90222e-07
2568.98	-4.12037e-07
2577.54	-5.01878e-07
2586.1	-3.96549e-07
2594.65	-4.90374e-07
2603.21	-4.81532e-07
2611.77	-4.83691e-07
2620.33	-5.58322e-07
2628.89	-5.16629e-07
2637.44	-5.29131e-07
2646	-5.32157e-07
2654.56	-6.04455e-07
2663.12	-6.68833e-07
2671.67	-4.97364e-07
2680.23	-5.36314e-07
2688.79	-4.78271e-07
2697.35	-6.00894e-07
2705.9	-5.9677e-07
2714.46	-7.23558e-07
2723.02	-6.09475e-07
2731.58	-4.79671e-07
2740.13	-4.87331e-07
2748.69	-2.65641e-07
2757.25	-5.15125e-07
2765.81	-5.55068e-07
2774.37	-2.57382e-07
2782.92	-3.8576e-07
2791.48	-3.68751e-07
2800.04	-4.69171e-07
2808.6	-5.84662e-07
2817.15	-5.57778e-07
2825.71	-4.70582e-07
2834.27	-5.8253e-07
2842.83	-4.42395e-07
2851.38	-5.16899e-07
2859.94	-4.91152e-07
2868.5	-3.36413e-07
2877.06	-2.91288e-07
2885.61	-1.79515e-07
2894.17	1.99151e-08
2902.73	1.31943e-08
2911.29	-1.33842e-07
2919.85	-3.54216e-07
2928.4	-5.11264e-07
2936.96	-3.0695e-07
2945.52	-3.77487e-07
2954.08	-2.96019e-07
2962.63	3.85789e-09
2971.19	-1.73576e-07
2979.75	-3.21047e-07
2988.31	-2.18916e-07
2996.86	-3.59964e-07
3005.42	-5.35419e-07
3013.98	-4.57453e-07
3022.54	-4.47131e-07
3031.09	-4.76101e-07
3039.65	-5.90819e-07
3048.21	-5.291e-07
3056.77	-5.84156e-07
3065.33	-5.24694e-07
3073.88	-4.98659e-07
3082.44	-6.03366e-07
3091	-4.7621e-07
3099.56	-5.54026e-07
3108.11	-3.52616e-07
3116.67	-5.33522e-07
3125.23	-4.08185e-07
3133.79	-3.43234e-07
3142.34	-2.77093e-07
3150.9	-4.27352e-07
3159.46	-3.3351e-07
3168.02	-2.13757e-07
3176.57	-3.1848e-07
3185.13	-2.94913e-07
3193.69	-5.41969e-07
3202.25	-2.5599e-07
3210.81	-2.72602e-07
3219.36	-4.33606e-07
3227.92	-4.98271e-07
3236.48	-3.76963e-07
3245.04	-4.50862e-07
3253.59	-4.31248e-07
3262.15	-1.88167e-07
3270.71	-3.58776e-07
3279.27	-1.89864e-07
3287.82	-3.7537e-07
3296.38	-1.97081e-07
3304.94	-3.18535e-07
3313.5	-2.45653e-07
3322.05	-4.36396e-07
3330.61	-4.38499e-07
3339.17	-2.95635e-07
3347.73	-5.62611e-07
3356.29	-3.03815e-07
3364.84	-4.44803e-07
3373.4	-3.38168e-07
3381.96	-4.9623e-07
3390.52	-3.93823e-07
3399.07	-3.41007e-07
3407.63	-3.74415e-07
3416.19	-4.87376e-07
3424.75	-4.86796e-07
3433.3	-2.64113e-07
3441.86	-4.44959e-07
3450.42	-4.0241e-07
3458.98	-3.62567e-07
3467.53	-3.26745e-07
3476.09	-3.70544e-07
3484.65	-4.33886e-07
3493.21	-4.14122e-07
3501.77	-4.56618e-07
3510.32	-7.26598e-07
3518.88	-6.22977e-07
3527.44	-3.90982e-07
3536	-4.38093e-07
3544.55	-3.63484e-07
3553.11	-5.36827e-07
3561.67	-4.42822e-07
3570.23	-4.07901e-07
3578.78	-2.80858e-07
3587.34	-4.55618e-07
3595.9	-2.28425e-07
3604.46	-4.16241e-07
3613.01	-5.51176e-07
3621.57	-5.65818e-07
3630.13	-5.12935e-07
3638.69	-3.99119e-07
3647.25	-4.94033e-07
3655.8	-6.7459e-07
3664.36	-6.79546e-07
3672.92	-5.23368e-07
3681.48	-6.81744e-07
3690.03	-7.49518e-07
3698.59	-6.65839e-07
3707.15	-5.25007e-07
3715.71	-4.50198e-07
3724.26	-3.9783e-07
3732.82	-6.84012e-07
3741.38	-4.33391e-07
3749.94	-4.92767e-07
3758.49	-4.08112e-07
3767.05	-4.46896e-07
3775.61	-5.67406e-07
3784.17	-6.01134e-07
3792.73	-7.05344e-07
3801.28	3.61415e-08
3809.84	-4.21226e-07
3818.4	-5.5204e-07
3826.96	-5.96705e-07
3835.51	-6.32281e-07
3844.07	-7.26016e-07
3852.63	-4.59025e-07
3861.19	-5.08221e-07
3869.74	-5.04847e-07
3878.3	-7.08958e-07
3886.86	-6.4114e-07
3895.42	-5.16453e-07
3903.97	-3.93665e-07
3912.53	-7.06572e-07
3921.09	-7.71441e-07
3929.65	-7.10097e-07
3938.21	-6.67551e-07
3946.76	-6.64999e-07
3955.32	-5.3904e-07
3963.88	-6.75103e-07
3972.44	-6.38632e-07
