Infrared Spectrum: Tetrachloroethene
Formula: C2 Cl4
CAS: 127-18-4
State: gas
Melting point: -19 C
Boiling point: 121 C
Class: IUPAC A
Instrument: IFS66V (Bruker)
Instrument parameters: KBr Beam Splitter; MCT Detector; Multipass cell
Sampling: 1 L/min Flow
Resolution: 0.2410
Temperature: 23 C
Pressure: 101.3 Pa
Origin: NIST, Analytical Chemistry Division, 301-975-3108
cm-1	(micromol/mol)-1m-1 (base 10)
575.05	-5.76242e-07
583.608	1.00926e-06
592.165	-1.24849e-08
600.723	-4.49987e-07
609.281	-3.32053e-07
617.838	-2.70541e-07
626.396	-2.59222e-07
634.954	-5.22159e-07
643.511	-3.34525e-07
652.069	-1.75888e-09
660.626	-4.19675e-08
669.184	1.30821e-07
677.742	3.16283e-07
686.299	7.696e-07
694.857	6.13584e-07
703.415	-1.37405e-07
711.972	-4.70006e-07
720.53	-1.31165e-07
729.088	3.47983e-07
737.645	2.2289e-06
746.203	2.2654e-05
754.761	5.16641e-05
763.318	4.20592e-05
771.876	0.000172034
780.434	0.00034795
788.991	0.000211988
797.549	0.000162308
806.106	0.00017891
814.664	3.54601e-05
823.222	9.22684e-06
831.779	7.64259e-06
840.337	4.43466e-07
848.895	2.7793e-07
857.452	1.76801e-07
866.01	2.93167e-07
874.568	6.91328e-07
883.125	3.61667e-06
891.683	2.5383e-05
900.241	0.000124683
908.798	0.000811242
917.356	0.00142751
925.914	0.0007703
934.471	2.17913e-05
943.029	1.0404e-06
951.586	3.14217e-07
960.144	7.06461e-09
968.702	-1.81908e-08
977.259	3.16889e-07
985.817	1.06389e-06
994.375	8.2665e-07
1002.93	1.56274e-07
1011.49	3.13658e-07
1020.05	-1.82998e-07
1028.61	-3.21169e-07
1037.16	-1.65867e-07
1045.72	-2.81069e-07
1054.28	9.01556e-08
1062.84	-1.73268e-07
1071.39	-9.8648e-08
1079.95	4.01866e-07
1088.51	2.82396e-06
1097.07	7.16352e-06
1105.62	5.30728e-06
1114.18	6.35408e-06
1122.74	1.07774e-05
1131.3	8.23523e-06
1139.85	5.7605e-06
1148.41	7.09591e-06
1156.97	4.56736e-06
1165.53	1.86135e-06
1174.09	2.21182e-06
1182.64	1.68915e-06
1191.2	3.17143e-07
1199.76	2.28436e-07
1208.32	1.29409e-07
1216.87	3.97379e-07
1225.43	1.06111e-06
1233.99	9.81802e-07
1242.55	5.93263e-07
1251.1	1.38291e-06
1259.66	1.92039e-06
1268.22	1.57575e-06
1276.78	3.17731e-07
1285.33	-4.43575e-08
1293.89	7.54518e-07
1302.45	7.69951e-07
1311.01	-6.84889e-08
1319.57	-1.34704e-07
1328.12	-2.32952e-07
1336.68	1.84542e-07
1345.24	1.46865e-06
1353.8	4.8066e-06
1362.35	6.51983e-06
1370.91	3.93389e-06
1379.47	5.42141e-07
1388.03	3.86449e-07
1396.58	2.34942e-07
1405.14	1.64852e-07
1413.7	-1.83924e-07
1422.26	-3.53645e-07
1430.81	-3.09535e-07
1439.37	-3.79228e-07
1447.93	-1.20489e-07
1456.49	1.78501e-07
1465.05	-9.58578e-08
1473.6	2.60205e-07
1482.16	-7.25541e-08
1490.72	-1.45232e-07
1499.28	-3.47559e-07
1507.83	-3.58016e-07
1516.39	-3.15936e-07
1524.95	-3.75134e-07
1533.51	-1.37127e-07
1542.06	4.97113e-07
1550.62	4.0878e-08
1559.18	1.85835e-07
1567.74	2.12291e-07
1576.29	1.11861e-06
1584.85	5.91033e-08
1593.41	7.40238e-08
1601.97	1.54134e-08
1610.53	-2.90216e-07
1619.08	-2.60234e-07
1627.64	-2.70963e-07
1636.2	-2.39005e-07
1644.76	-3.3411e-07
1653.31	9.90875e-07
1661.87	-2.99111e-07
1670.43	-2.98158e-07
1678.99	-3.8618e-07
1687.54	-3.57476e-07
1696.1	1.41909e-07
1704.66	-2.99398e-07
1713.22	-2.78945e-07
1721.77	-2.72446e-07
1730.33	-1.56876e-07
1738.89	-4.19966e-08
1747.45	1.73967e-07
1756.01	1.9603e-07
1764.56	7.37036e-08
1773.12	7.72898e-07
1781.68	1.11984e-06
1790.24	4.65033e-07
1798.79	6.34076e-07
1807.35	3.6462e-07
1815.91	-6.04848e-07
1824.47	-7.95383e-07
1833.02	-8.76919e-07
1841.58	-8.29427e-07
1850.14	-5.07164e-07
1858.7	-2.43764e-07
1867.25	3.72274e-08
1875.81	4.00087e-07
1884.37	1.07698e-06
1892.93	8.97644e-07
1901.49	3.86411e-07
1910.04	6.43794e-07
1918.6	3.97781e-07
1927.16	-5.07619e-07
1935.72	-5.12184e-07
1944.27	-5.87943e-07
1952.83	-5.18266e-07
1961.39	-4.51738e-07
1969.95	-5.2247e-07
1978.5	-4.76757e-07
1987.06	-4.54054e-07
1995.62	-4.1617e-07
2004.18	-4.93142e-07
2012.73	-4.55762e-07
2021.29	-4.42326e-07
2029.85	-4.511e-07
2038.41	-4.96656e-07
2046.97	-5.08777e-07
2055.52	-5.04221e-07
2064.08	-5.48382e-07
2072.64	-4.85201e-07
2081.2	-5.31219e-07
2089.75	-5.04859e-07
2098.31	-5.45917e-07
2106.87	-5.92983e-07
2115.43	-3.72234e-07
2123.98	-4.25963e-07
2132.54	-4.06291e-07
2141.1	-4.79786e-07
2149.66	-4.50223e-07
2158.21	-3.29834e-07
2166.77	-4.12983e-07
2175.33	-4.90294e-07
2183.89	1.33071e-08
2192.45	1.25517e-06
2201	4.88869e-07
2209.56	3.39055e-06
2218.12	3.21078e-07
2226.68	9.75803e-08
2235.23	9.55119e-07
2243.79	2.39285e-06
2252.35	-1.45348e-07
2260.91	-3.90723e-07
2269.46	-4.35752e-07
2278.02	-5.43107e-07
2286.58	-5.32832e-07
2295.14	-4.48013e-07
2303.69	-4.63774e-07
2312.25	-4.89593e-07
2320.81	2.39877e-08
2329.37	-1.35724e-07
2337.93	4.54634e-07
2346.48	-1.45297e-07
2355.04	7.9726e-08
2363.6	4.97082e-07
2372.16	2.06e-07
2380.71	-1.10229e-07
2389.27	-4.26286e-07
2397.83	-4.76261e-07
2406.39	-4.57064e-07
2414.94	-5.10796e-07
2423.5	-5.01902e-07
2432.06	-4.63197e-07
2440.62	-5.24707e-07
2449.17	-3.95758e-07
2457.73	-3.61288e-07
2466.29	-2.30367e-07
2474.85	3.64835e-08
2483.41	8.8523e-07
2491.96	1.66894e-06
2500.52	1.201e-06
2509.08	-1.00982e-07
2517.64	-4.91159e-07
2526.19	-6.34034e-07
2534.75	-5.18849e-07
2543.31	-4.55478e-07
2551.87	-4.56975e-07
2560.42	-5.83201e-07
2568.98	-4.12266e-07
2577.54	-4.9399e-07
2586.1	-4.02657e-07
2594.65	-4.87904e-07
2603.21	-4.77479e-07
2611.77	-4.7874e-07
2620.33	-5.59972e-07
2628.89	-5.14705e-07
2637.44	-5.24916e-07
2646	-5.33309e-07
2654.56	-6.01339e-07
2663.12	-6.64195e-07
2671.67	-5.09816e-07
2680.23	-5.42474e-07
2688.79	-4.8906e-07
2697.35	-5.96894e-07
2705.9	-5.87165e-07
2714.46	-7.10248e-07
2723.02	-6.02394e-07
2731.58	-4.74364e-07
2740.13	-4.79886e-07
2748.69	-2.74097e-07
2757.25	-5.04928e-07
2765.81	-5.52384e-07
2774.37	-2.65747e-07
2782.92	-3.92637e-07
2791.48	-3.73668e-07
2800.04	-4.75317e-07
2808.6	-5.7956e-07
2817.15	-5.50392e-07
2825.71	-4.79156e-07
2834.27	-5.68708e-07
2842.83	-4.43926e-07
2851.38	-5.08073e-07
2859.94	-4.79009e-07
2868.5	-3.32255e-07
2877.06	-2.88528e-07
2885.61	-1.78107e-07
2894.17	1.31252e-08
2902.73	4.38719e-09
2911.29	-1.39659e-07
2919.85	-3.49915e-07
2928.4	-4.9626e-07
2936.96	-3.03596e-07
2945.52	-3.65292e-07
2954.08	-2.95189e-07
2962.63	-3.30767e-08
2971.19	-1.81823e-07
2979.75	-3.2119e-07
2988.31	-2.20443e-07
2996.86	-3.53318e-07
3005.42	-5.24935e-07
3013.98	-4.60571e-07
3022.54	-4.60886e-07
3031.09	-4.80452e-07
3039.65	-5.93343e-07
3048.21	-5.30619e-07
3056.77	-5.89238e-07
3065.33	-5.25153e-07
3073.88	-4.90321e-07
3082.44	-5.90279e-07
3091	-4.80199e-07
3099.56	-5.46705e-07
3108.11	-3.50056e-07
3116.67	-5.23045e-07
3125.23	-4.09029e-07
3133.79	-3.42335e-07
3142.34	-2.77493e-07
3150.9	-4.1607e-07
3159.46	-3.33066e-07
3168.02	-2.18999e-07
3176.57	-3.11237e-07
3185.13	-3.10699e-07
3193.69	-5.23188e-07
3202.25	-2.58149e-07
3210.81	-2.89845e-07
3219.36	-4.26554e-07
3227.92	-4.89375e-07
3236.48	-3.75683e-07
3245.04	-4.39612e-07
3253.59	-4.21759e-07
3262.15	-1.95082e-07
3270.71	-3.54515e-07
3279.27	-1.90328e-07
3287.82	-3.59747e-07
3296.38	-2.00104e-07
3304.94	-3.17253e-07
3313.5	-2.44818e-07
3322.05	-4.30857e-07
3330.61	-4.30788e-07
3339.17	-2.96055e-07
3347.73	-5.44153e-07
3356.29	-3.24306e-07
3364.84	-4.43504e-07
3373.4	-3.47826e-07
3381.96	-4.92153e-07
3390.52	-3.90392e-07
3399.07	-3.59014e-07
3407.63	-3.81789e-07
3416.19	-4.77881e-07
3424.75	-4.74835e-07
3433.3	-2.67709e-07
3441.86	-4.49727e-07
3450.42	-4.07659e-07
3458.98	-3.62541e-07
3467.53	-3.29259e-07
3476.09	-3.76663e-07
3484.65	-4.27574e-07
3493.21	-4.09767e-07
3501.77	-4.50569e-07
3510.32	-7.10661e-07
3518.88	-6.09424e-07
3527.44	-3.99118e-07
3536	-4.48028e-07
3544.55	-3.6898e-07
3553.11	-5.36499e-07
3561.67	-4.49599e-07
3570.23	-4.0028e-07
3578.78	-2.93365e-07
3587.34	-4.523e-07
3595.9	-2.42567e-07
3604.46	-4.32098e-07
3613.01	-5.43418e-07
3621.57	-5.50456e-07
3630.13	-4.94799e-07
3638.69	-4.00214e-07
3647.25	-4.91827e-07
3655.8	-6.57403e-07
3664.36	-6.75694e-07
3672.92	-5.26146e-07
3681.48	-6.60763e-07
3690.03	-7.42584e-07
3698.59	-6.62198e-07
3707.15	-5.1666e-07
3715.71	-4.56749e-07
3724.26	-4.08352e-07
3732.82	-6.6838e-07
3741.38	-4.49117e-07
3749.94	-4.72554e-07
3758.49	-4.13034e-07
3767.05	-4.53246e-07
3775.61	-5.73859e-07
3784.17	-5.88678e-07
3792.73	-6.95022e-07
3801.28	-8.89078e-09
3809.84	-4.33164e-07
3818.4	-5.45952e-07
3826.96	-6.01057e-07
3835.51	-6.16063e-07
3844.07	-7.10884e-07
3852.63	-4.46431e-07
3861.19	-5.09772e-07
3869.74	-4.98337e-07
3878.3	-7.04158e-07
3886.86	-6.27497e-07
3895.42	-5.28701e-07
3903.97	-4.06255e-07
3912.53	-6.9829e-07
3921.09	-7.62832e-07
3929.65	-6.98818e-07
3938.21	-6.62736e-07
3946.76	-6.57316e-07
3955.32	-5.46836e-07
3963.88	-6.66234e-07
3972.44	-6.34994e-07
