Infrared Spectrum: ERGOTAMINE, DIHYDRO-, MONOMETHANESULFONATE (SALT)
Formula: C15 H24 O
CAS: 128-37-0
State: SOLID (1 mg / 300 mg KBr DISC)
Melting point: 69 C
Boiling point: 266 C
Class: COBLENTZ II
Instrument: PERKIN-ELMER 180 (GRATING)
Instrument parameters: GRATINGS: 2000, 1000, 500, 250 CM^-^1; FILTER CHANGE: 2970, 2000, 1485, 1000, 743, 500, 372, 250, 186 CM^-^1.
Sampling: TRANSMISSION
Resolution: 2
Origin: K. K. DEB-NCI FREDERICK CANCER RESEARCH CENTER
1/CM	TRANSMITTANCE
369	0.8912
378	0.8971
387	0.915
396	0.9171
405	0.9132
414	0.9182
423	0.9293
432	0.9335
441	0.917
450	0.8845
459	0.9147
468	0.8659
477	0.9459
486	0.958
495	0.96
504	0.9585
513	0.9531
522	0.9476
531	0.9498
540	0.9537
549	0.9536
558	0.9517
567	0.9381
576	0.8423
585	0.9406
594	0.9483
603	0.9376
612	0.911
621	0.9172
630	0.9311
639	0.9478
648	0.9476
657	0.9471
666	0.9499
675	0.9575
684	0.9585
693	0.9561
702	0.9524
711	0.9483
720	0.9449
729	0.9437
738	0.9429
747	0.9302
756	0.8956
765	0.6172
774	0.6395
783	0.9376
792	0.9483
801	0.947
810	0.8704
819	0.9453
828	0.9455
837	0.9379
846	0.9276
855	0.8919
864	0.4519
873	0.7643
882	0.8635
891	0.8604
900	0.9246
909	0.934
918	0.9289
927	0.9138
936	0.8712
945	0.9098
954	0.9068
963	0.9177
972	0.9121
981	0.9062
990	0.9002
999	0.8934
1008	0.8866
1017	0.8614
1026	0.7727
1035	0.8478
1044	0.8701
1053	0.8793
1062	0.8815
1071	0.88
1080	0.8756
1089	0.8637
1098	0.8378
1107	0.7928
1116	0.5971
1125	0.6874
1134	0.6198
1143	0.4012
1152	0.3041
1161	0.4886
1170	0.6731
1179	0.7264
1188	0.6928
1197	0.6128
1206	0.531
1215	0.4564
1224	0.4989
1233	0.4501
1242	0.5839
1251	0.6239
1260	0.7053
1269	0.7839
1278	0.8498
1287	0.8401
1296	0.7874
1305	0.7285
1314	0.7949
1323	0.8602
1332	0.874
1341	0.8653
1350	0.81
1359	0.5567
1368	0.6202
1377	0.8003
1386	0.7351
1395	0.5603
1404	0.7773
1413	0.74
1422	0.5263
1431	0.1322
1440	0.4299
1449	0.4392
1458	0.5836
1467	0.6021
1476	0.68
1485	0.6729
1494	0.8248
1503	0.8628
1512	0.8707
1521	0.8775
1530	0.8832
1539	0.889
1548	0.8894
1557	0.8939
1566	0.9002
1575	0.8975
1584	0.891
1593	0.8858
1602	0.85
1611	0.8819
1620	0.8797
1629	0.8777
1638	0.8813
1647	0.8865
1656	0.8908
1665	0.8944
1674	0.8957
1683	0.8941
1692	0.8912
1701	0.8902
1710	0.8902
1719	0.8908
1728	0.8925
1737	0.8939
1746	0.8904
1755	0.8508
1764	0.8734
1773	0.9057
1782	0.9058
1791	0.8991
1800	0.9113
1809	0.9147
1818	0.913
1827	0.9118
1836	0.9113
1845	0.9101
1854	0.9086
1863	0.9068
1872	0.9045
1881	0.9024
1890	0.902
1899	0.9024
1908	0.9037
1917	0.9055
1926	0.9067
1935	0.9081
1944	0.9099
1953	0.9106
1962	0.9098
1971	0.907
1980	0.9039
1989	0.9018
1998	0.9014
2007	0.9011
2016	0.9012
2025	0.9015
2034	0.9019
2043	0.9023
2052	0.9028
2061	0.9033
2070	0.9036
2079	0.9037
2088	0.9039
2097	0.9036
2106	0.9025
2115	0.9014
2124	0.9004
2133	0.8993
2142	0.8982
2151	0.8969
2160	0.8961
2169	0.8962
2178	0.8964
2187	0.8961
2196	0.8958
2205	0.8955
2214	0.8948
2223	0.8935
2232	0.8924
2241	0.8921
2250	0.8944
2259	0.8954
2268	0.8933
2277	0.8884
2286	0.8818
2295	0.8839
2304	0.887
2313	0.8896
2322	0.8913
2331	0.8907
2340	0.8898
2349	0.8878
2358	0.8848
2367	0.8807
2376	0.878
2385	0.878
2394	0.878
2403	0.8782
2412	0.8785
2421	0.8785
2430	0.8782
2439	0.8781
2448	0.8784
2457	0.8789
2466	0.88
2475	0.8813
2484	0.8808
2493	0.8801
2502	0.8785
2511	0.8765
2520	0.8739
2529	0.8711
2538	0.868
2547	0.8647
2556	0.8654
2565	0.867
2574	0.8684
2583	0.869
2592	0.869
2601	0.8685
2610	0.8674
2619	0.866
2628	0.8647
2637	0.8632
2646	0.8619
2655	0.8605
2664	0.8591
2673	0.8576
2682	0.8556
2691	0.8525
2700	0.8496
2709	0.8447
2718	0.8385
2727	0.8288
2736	0.8318
2745	0.8361
2754	0.8345
2763	0.8313
2772	0.8274
2781	0.8227
2790	0.8152
2799	0.8063
2808	0.7941
2817	0.7798
2826	0.7629
2835	0.7397
2844	0.6564
2853	0.5303
2862	0.4043
2871	0.363
2880	0.4499
2889	0.4511
2898	0.3752
2907	0.3082
2916	0.3305
2925	0.3653
2934	0.2829
2943	0.1917
2952	0.11
2961	0.1378
2970	0.243
2979	0.4974
2988	0.566
2997	0.5864
3006	0.6305
3015	0.7021
3024	0.7511
3033	0.7718
3042	0.7765
3051	0.7679
3060	0.7514
3069	0.7451
3078	0.7684
3087	0.7977
3096	0.8075
3105	0.8124
3114	0.8139
3123	0.8142
3132	0.8143
3141	0.8137
3150	0.8129
3159	0.8115
3168	0.8098
3177	0.8088
3186	0.8079
3195	0.807
3204	0.8069
3213	0.8068
3222	0.8072
3231	0.8074
3240	0.8076
3249	0.8074
3258	0.8056
3267	0.8026
3276	0.7997
3285	0.7978
3294	0.7962
3303	0.7937
3312	0.7912
3321	0.7884
3330	0.7854
3339	0.7817
3348	0.778
3357	0.7735
3366	0.769
3375	0.7638
3384	0.7583
3393	0.7541
3402	0.75
3411	0.7474
3420	0.7467
3429	0.7464
3438	0.7462
3447	0.7474
3456	0.7488
3465	0.7501
3474	0.7516
3483	0.7529
3492	0.7549
3501	0.7572
3510	0.7592
3519	0.7611
3528	0.7625
3537	0.7639
3546	0.764
3555	0.7628
3564	0.7591
3573	0.7519
3582	0.7389
3591	0.7197
3600	0.6944
3609	0.6539
3618	0.455
3627	0.2332
3636	0.418
3645	0.6044
3654	0.6928
3663	0.7252
3672	0.7528
3681	0.7728
3690	0.7856
3699	0.7948
3708	0.8021
3717	0.8064
3726	0.808
3735	0.8087
3744	0.8085
3753	0.807
3762	0.8052
3771	0.8033
3780	0.8011
3789	0.7991
