Infrared Spectrum: 2,6-DI-TERT-BUTYL-4-METHYL PHENOL
Formula: C15 H24 O
CAS: 128-37-0
State: SOLID (1.12% IN KBr DISC)
Class: COBLENTZ
Instrument: PERKIN-ELMER (GRATING)
Sampling: TRANSMISSION
Path length: 0.036 CM
Resolution: 4
Origin: US INDUSTRIAL CHEMICALS COMPANY, CINCINNATI, OHIO
1/CM	TRANSMITTANCE
602.606	0.906
611.922	0.891
621.238	0.91
630.554	0.92
639.87	0.933
649.186	0.932
658.502	0.932
667.818	0.928
677.134	0.927
686.45	0.927
695.766	0.925
705.082	0.925
714.398	0.925
723.714	0.922
733.029	0.916
742.345	0.905
751.661	0.874
760.977	0.8061
770.293	0.5008
779.609	0.855
788.925	0.891
798.241	0.884
807.557	0.849
816.873	0.894
826.189	0.891
835.505	0.888
844.821	0.877
854.137	0.823
863.453	0.4013
872.769	0.818
882.085	0.793
891.401	0.855
900.717	0.877
910.033	0.876
919.349	0.864
928.665	0.85
937.981	0.867
947.297	0.871
956.613	0.879
965.929	0.877
975.245	0.866
984.561	0.854
993.876	0.84
1003.19	0.835
1012.51	0.828
1021.82	0.752
1031.14	0.783
1040.46	0.818
1049.77	0.835
1059.09	0.838
1068.4	0.835
1077.72	0.832
1087.04	0.823
1096.35	0.801
1105.67	0.772
1114.98	0.6151
1124.3	0.6159
1133.62	0.633
1142.93	0.3842
1152.25	0.2349
1161.56	0.437
1170.88	0.613
1180.2	0.637
1189.51	0.588
1198.83	0.506
1208.14	0.4301
1217.46	0.4329
1226.78	0.3301
1236.09	0.4329
1245.41	0.461
1254.72	0.618
1264.04	0.584
1273.36	0.783
1282.67	0.777
1291.99	0.745
1301.3	0.679
1310.62	0.708
1319.94	0.801
1329.25	0.83
1338.57	0.818
1347.88	0.798
1357.2	0.647
1366.52	0.5659
1375.83	0.747
1385.15	0.716
1394.46	0.506
1403.78	0.706
1413.09	0.672
1422.41	0.5001
1431.73	0.127
1441.04	0.364
1450.36	0.379
1459.67	0.522
1468.99	0.554
1478.31	0.6
1487.62	0.7449
1496.94	0.844
1506.25	0.874
1515.57	0.866
1524.89	0.866
1534.2	0.869
1543.52	0.869
1552.83	0.874
1562.15	0.874
1571.47	0.872
1580.78	0.871
1590.1	0.867
1599.41	0.866
1608.73	0.877
1618.05	0.881
1627.36	0.883
1636.68	0.884
1645.99	0.883
1655.31	0.884
1664.63	0.886
1673.94	0.886
1683.26	0.886
1692.57	0.886
1701.89	0.883
1711.21	0.881
1720.52	0.876
1729.84	0.874
1739.15	0.869
1748.47	0.859
1757.79	0.857
1767.1	0.903
1776.42	0.91
1785.73	0.91
1795.05	0.911
1804.37	0.911
1813.68	0.911
1823	0.913
1832.31	0.913
1841.63	0.911
1850.95	0.911
1860.26	0.911
1869.58	0.911
1878.89	0.911
1888.21	0.91
1897.52	0.908
1906.84	0.908
1916.16	0.908
1925.47	0.908
1934.79	0.908
1944.1	0.908
1953.42	0.906
1962.74	0.906
1972.05	0.905
1981.37	0.903
1990.68	0.9
2000	0.894
2009.32	0.8914
2018.63	0.8884
2027.95	0.886
2037.26	0.8839
2046.58	0.881
2055.9	0.881
2065.21	0.881
2074.53	0.881
2083.84	0.879
2093.16	0.879
2102.48	0.879
2111.79	0.8782
2121.11	0.877
2130.42	0.876
2139.74	0.876
2149.06	0.8749
2158.37	0.874
2167.69	0.8737
2177	0.872
2186.32	0.872
2195.64	0.872
2204.95	0.872
2214.27	0.872
2223.58	0.8712
2232.9	0.871
2242.22	0.871
2251.53	0.871
2260.85	0.869
2270.16	0.867
2279.48	0.867
2288.8	0.866
2298.11	0.866
2307.43	0.866
2316.74	0.864
2326.06	0.866
2335.38	0.864
2344.69	0.864
2354.01	0.862
2363.32	0.862
2372.64	0.861
2381.96	0.859
2391.27	0.859
2400.59	0.859
2409.9	0.859
2419.22	0.859
2428.53	0.859
2437.85	0.859
2447.17	0.859
2456.48	0.859
2465.8	0.859
2475.11	0.859
2484.43	0.857
2493.75	0.855
2503.06	0.8388
2512.38	0.837
2521.69	0.835
2531.01	0.833
2540.33	0.832
2549.64	0.8313
2558.96	0.83
2568.27	0.83
2577.59	0.83
2586.91	0.83
2596.22	0.827
2605.54	0.827
2614.85	0.827
2624.17	0.825
2633.49	0.8242
2642.8	0.823
2652.12	0.822
2661.43	0.82
2670.75	0.818
2680.07	0.8173
2689.38	0.8128
2698.7	0.8082
2708.01	0.805
2717.33	0.803
2726.65	0.801
2735.96	0.8001
2745.28	0.801
2754.59	0.803
2763.91	0.7998
2773.23	0.7926
2782.54	0.7861
2791.86	0.778
2801.17	0.7713
2810.49	0.7553
2819.81	0.7414
2829.12	0.7226
2838.44	0.6903
2847.75	0.6394
2857.07	0.5341
2866.39	0.2889
2875.7	0.293
2885.02	0.3443
2894.33	0.3396
2903.65	0.2848
2912.97	0.227
2922.28	0.236
2931.6	0.2434
2940.91	0.1598
2950.23	0.0996
2959.54	0.0996
2968.86	0.1409
2978.18	0.2416
2987.49	0.4496
2996.81	0.5232
3006.12	0.5724
3015.44	0.6763
3024.76	0.7203
3034.07	0.738
3043.39	0.738
3052.7	0.7307
3062.02	0.7164
3071.34	0.7153
3080.65	0.7393
3089.97	0.7797
3099.28	0.7887
3108.6	0.791
3117.92	0.791
3127.23	0.7909
3136.55	0.789
3145.86	0.788
3155.18	0.7852
3164.5	0.7857
3173.81	0.784
3183.13	0.7815
3192.44	0.781
3201.76	0.7804
3211.08	0.779
3220.39	0.779
3229.71	0.7777
3239.02	0.776
3248.34	0.774
3257.66	0.771
3266.97	0.7674
3276.29	0.766
3285.6	0.764
3294.92	0.762
3304.24	0.7591
3313.55	0.7543
3322.87	0.752
3332.18	0.75
3341.5	0.7467
3350.82	0.7382
3360.13	0.7323
3369.45	0.7275
3378.76	0.7228
3388.08	0.72
3397.4	0.72
3406.71	0.72
3416.03	0.7208
3425.34	0.723
3434.66	0.725
3443.98	0.7265
3453.29	0.7275
3462.61	0.728
3471.92	0.728
3481.24	0.728
3490.55	0.7313
3499.87	0.733
3509.19	0.733
3518.5	0.733
3527.82	0.7284
3537.13	0.7258
3546.45	0.7168
3555.77	0.7077
3565.08	0.705
3574.4	0.6886
3583.71	0.6576
3593.03	0.6025
3602.35	0.4998
3611.66	0.2815
3620.98	0.3142
3630.29	0.4355
3639.61	0.6505
3648.93	0.7113
3658.24	0.7377
3667.56	0.7652
3676.87	0.7733
3686.19	0.783
3695.51	0.7859
3704.82	0.7905
3714.14	0.791
3723.45	0.791
3732.77	0.791
3742.09	0.791
3751.4	0.7897
3760.72	0.7886
3770.03	0.7875
3779.35	0.788
3788.67	0.788
3797.98	0.7886
3807.3	0.789
3816.61	0.789
3825.93	0.789
3835.25	0.789
3844.56	0.787
3853.88	0.786
3863.19	0.7862
3872.51	0.788
3881.83	0.788
3891.14	0.788
3900.46	0.7876
3909.77	0.786
3919.09	0.786
3928.41	0.784
3937.72	0.784
3947.04	0.784
3956.35	0.784
3965.67	0.784
3974.98	0.784
3984.3	0.784
