Infrared Spectrum: Pyrene
Formula: C 16 H 10
CAS: 129-00-0
State: solid
Instrument: Bruker Tensor 37 FTIR
Resolution: 0.96450084
Origin: Pacific Northwest National Laboratory Under IARPA Contract
1/cm	Reflectance
7498.99	0.709612
7481.63	0.712177
7464.27	0.697923
7446.91	0.688379
7429.55	0.683369
7412.19	0.677984
7394.84	0.680318
7377.48	0.680503
7360.12	0.678835
7342.76	0.671373
7325.4	0.66158
7308.04	0.657035
7290.68	0.658828
7273.32	0.650775
7255.96	0.657475
7238.6	0.681331
7221.24	0.681201
7203.88	0.678207
7186.52	0.676661
7169.16	0.687135
7151.8	0.689168
7134.44	0.679923
7117.08	0.676473
7099.72	0.684176
7082.36	0.692151
7065	0.703047
7047.64	0.714597
7030.28	0.728517
7012.92	0.726467
6995.56	0.723661
6978.2	0.722133
6960.84	0.722615
6943.48	0.722167
6926.12	0.715253
6908.76	0.703508
6891.4	0.687147
6874.04	0.669981
6856.68	0.632778
6839.32	0.574697
6821.96	0.479671
6804.6	0.363464
6787.24	0.347575
6769.88	0.346275
6752.52	0.273146
6735.16	0.189189
6717.8	0.141634
6700.44	0.170146
6683.08	0.269351
6665.72	0.338864
6648.36	0.385701
6631	0.430364
6613.64	0.435575
6596.28	0.456215
6578.92	0.446962
6561.56	0.470376
6544.2	0.478035
6526.85	0.490932
6509.49	0.512095
6492.13	0.523812
6474.77	0.53592
6457.41	0.52428
6440.05	0.511947
6422.69	0.529631
6405.33	0.539628
6387.97	0.547312
6370.61	0.551843
6353.25	0.562336
6335.89	0.570954
6318.53	0.573988
6301.17	0.57067
6283.81	0.57446
6266.45	0.562791
6249.09	0.542211
6231.73	0.505714
6214.37	0.498479
6197.01	0.485333
6179.65	0.472435
6162.29	0.448108
6144.93	0.402065
6127.57	0.362604
6110.21	0.301098
6092.85	0.173244
6075.49	0.127222
6058.13	0.161644
6040.77	0.177524
6023.41	0.151012
6006.05	0.144264
5988.69	0.153907
5971.33	0.173487
5953.97	0.22206
5936.61	0.157793
5919.25	0.188059
5901.89	0.203309
5884.53	0.184425
5867.17	0.194755
5849.81	0.173199
5832.45	0.140284
5815.09	0.147516
5797.73	0.15088
5780.37	0.122404
5763.01	0.129355
5745.65	0.141435
5728.29	0.185234
5710.93	0.204776
5693.57	0.0995353
5676.21	0.0918434
5658.86	0.08129
5641.5	0.112031
5624.14	0.112055
5606.78	0.173386
5589.42	0.252257
5572.06	0.233329
5554.7	0.217916
5537.34	0.220072
5519.98	0.178689
5502.62	0.207455
5485.26	0.258594
5467.9	0.292543
5450.54	0.280396
5433.18	0.316251
5415.82	0.280345
5398.46	0.238179
5381.1	0.249982
5363.74	0.187858
5346.38	0.161699
5329.02	0.107007
5311.66	0.0723199
5294.3	0.0446069
5276.94	0.0391304
5259.58	0.0397473
5242.22	0.045448
5224.86	0.0750162
5207.5	0.121022
5190.14	0.14707
5172.78	0.18248
5155.42	0.166142
5138.06	0.210877
5120.7	0.194325
5103.34	0.249845
5085.98	0.166225
5068.62	0.187691
5051.26	0.130842
5033.9	0.186592
5016.54	0.146687
4999.18	0.0855902
4981.82	0.164142
4964.46	0.211769
4947.1	0.177553
4929.74	0.0964307
4912.38	0.0947636
4895.02	0.175457
4877.66	0.157635
4860.3	0.18564
4842.94	0.217777
4825.58	0.213423
4808.22	0.208295
4790.86	0.2788
4773.51	0.178654
4756.15	0.268922
4738.79	0.172731
4721.43	0.0576808
4704.07	0.061119
4686.71	0.0437152
4669.35	0.126663
4651.99	0.0440391
4634.63	0.0554205
4617.27	0.0689099
4599.91	0.0627042
4582.55	0.0427029
4565.19	0.067937
4547.83	0.0352264
4530.47	0.0596129
4513.11	0.0547722
4495.75	0.04167
4478.39	0.0421125
4461.03	0.0459776
4443.67	0.140662
4426.31	0.119418
4408.95	0.0529039
4391.59	0.0815378
4374.23	0.0880564
4356.87	0.0749133
4339.51	0.0386751
4322.15	0.0525095
4304.79	0.104676
4287.43	0.0923971
4270.07	0.134789
4252.71	0.0806329
4235.35	0.0397839
4217.99	0.0782003
4200.63	0.0622104
4183.27	0.0522395
4165.91	0.0583574
4148.55	0.0614059
4131.19	0.0513814
4113.83	0.0555697
4096.47	0.0724177
4079.11	0.169152
4061.75	0.264123
4044.39	0.714092
4027.03	0.705233
4009.67	0.690252
3992.31	0.684185
3974.95	0.683698
3957.59	0.68349
3940.23	0.680572
3922.87	0.679793
3905.52	0.681575
3888.16	0.667531
3870.8	0.665048
3853.44	0.660701
3836.08	0.660539
3818.72	0.650135
3801.36	0.667442
3784	0.684154
3766.64	0.68374
3749.28	0.681172
3731.92	0.679105
3714.56	0.687186
3697.2	0.690316
3679.84	0.678054
3662.48	0.679966
3645.12	0.68953
3627.76	0.694625
3610.4	0.707425
3593.04	0.723066
3575.68	0.725429
3558.32	0.724648
3540.96	0.723951
3523.6	0.719329
3506.24	0.72501
3488.88	0.724629
3471.52	0.715055
3454.16	0.696693
3436.8	0.688321
3419.44	0.662278
3402.08	0.619452
3384.72	0.560341
3367.36	0.460761
3350	0.336446
3332.64	0.352763
3315.28	0.339839
3297.92	0.25565
3280.56	0.175333
3263.2	0.139802
3245.84	0.212025
3228.48	0.299581
3211.12	0.358026
3193.76	0.40704
3176.4	0.451768
3159.04	0.439045
3141.68	0.46576
3124.32	0.468316
3106.96	0.48151
3089.6	0.49203
3072.24	0.515327
3054.88	0.530746
3037.53	0.534511
3020.17	0.543323
3002.81	0.531639
2985.45	0.531595
2968.09	0.540538
2950.73	0.556063
2933.37	0.557962
2916.01	0.562806
2898.65	0.573802
2881.29	0.580466
2863.93	0.58078
2846.57	0.581607
2829.21	0.580699
2811.85	0.563588
2794.49	0.541254
2777.13	0.509529
2759.77	0.489833
2742.41	0.506275
2725.05	0.461918
2707.69	0.449856
2690.33	0.394656
2672.97	0.353327
2655.61	0.270212
2638.25	0.165072
2620.89	0.110016
2603.53	0.15861
2586.17	0.179617
2568.81	0.128234
2551.45	0.142957
2534.09	0.161823
2516.73	0.193956
2499.37	0.215633
2482.01	0.151851
2464.65	0.215245
2447.29	0.16779
2429.93	0.201318
2412.57	0.195259
2395.21	0.147316
2377.85	0.136899
2360.49	0.161752
2343.13	0.180162
2325.77	0.109729
2308.41	0.1097
2291.05	0.177013
2273.69	0.196138
2256.33	0.174777
2238.97	0.102105
2221.61	0.0859213
2204.25	0.10442
2186.89	0.123328
2169.53	0.126529
2152.18	0.19197
2134.82	0.291258
2117.46	0.239059
2100.1	0.183595
2082.74	0.18967
2065.38	0.225528
2048.02	0.209912
2030.66	0.220401
2013.3	0.308068
1995.94	0.311384
1978.58	0.307001
1961.22	0.276053
1943.86	0.24166
1926.5	0.249876
1909.14	0.176269
1891.78	0.147847
1874.42	0.0875727
1857.06	0.0560598
1839.7	0.0425779
1822.34	0.0384833
1804.98	0.0418308
1787.62	0.0437902
1770.26	0.101284
1752.9	0.113718
1735.54	0.123118
1718.18	0.147134
1700.82	0.181416
1683.46	0.214018
1666.1	0.174032
1648.74	0.232032
1631.38	0.18706
1614.02	0.158476
1596.66	0.14571
1579.3	0.175732
1561.94	0.217972
1544.58	0.124247
1527.22	0.130957
1509.86	0.170525
1492.5	0.115969
1475.14	0.0917535
1457.78	0.14734
1440.42	0.0876879
1423.06	0.110606
1405.7	0.240775
1388.34	0.238165
1370.98	0.181537
1353.62	0.249367
1336.26	0.260494
1318.9	0.280179
1301.54	0.273986
1284.19	0.179681
1266.83	0.0399143
1249.47	0.0966465
1232.11	0.043136
1214.75	0.142607
1197.39	0.0618266
1180.03	0.045142
1162.67	0.0840425
1145.31	0.0733143
1127.95	0.0428015
1110.59	0.0505007
1093.23	0.0392649
1075.87	0.0394719
1058.51	0.0486832
1041.15	0.048068
1023.79	0.0416074
1006.43	0.0616466
989.068	0.141683
971.709	0.139911
954.349	0.0567575
936.989	0.0528642
919.629	0.0578108
902.269	0.0580668
884.91	0.0429507
867.55	0.0530572
850.19	0.0625353
832.83	0.0558842
815.47	0.106604
798.111	0.0805514
780.751	0.0333866
763.391	0.0860762
746.031	0.0392433
728.671	0.0325168
711.312	0.0406799
693.952	0.0712392
676.592	0.0285536
659.232	0.0362254
641.872	0.111693
624.513	0.195365
607.153	0.274425
