Infrared Spectrum: PERSIAN RED OXIDE
Formula: O3 Fe2
CAS: 1309-37-1
State: SOLID (0.6 mg / 300 mg CsI DISC)
Class: COBLENTZ
Instrument: Not specified, most likely a grating spectrometer.
Sampling: TRANSMISSION
Resolution: 4
Origin: DESOTO CHEMICAL COATINGS, INC.
1/CM	TRANSMITTANCE
200	0.843
210.643	0.847
221.286	0.86
231.929	0.872
242.572	0.867
253.215	0.865
263.858	0.864
274.501	0.86
285.144	0.857
295.787	0.848
306.43	0.828
317.073	0.799
327.716	0.6461
338.359	0.49
349.002	0.382
359.646	0.317
370.289	0.3919
380.932	0.5459
391.575	0.688
402.218	0.736
412.861	0.769
423.504	0.775
434.147	0.765
444.79	0.728
455.433	0.634
466.076	0.529
476.719	0.4041
487.362	0.3689
498.005	0.6139
508.648	0.663
519.291	0.634
529.934	0.5141
540.577	0.3671
551.22	0.25
561.863	0.162
572.506	0.144
583.149	0.18
593.792	0.246
604.435	0.335
615.078	0.453
625.721	0.585
636.364	0.6989
647.007	0.777
657.65	0.793
668.293	0.811
678.937	0.829
689.58	0.851
700.223	0.856
710.866	0.884
721.509	0.896
732.152	0.908
742.795	0.91
753.438	0.914
764.081	0.912
774.724	0.9
785.367	0.889
796.01	0.882
806.653	0.893
817.296	0.921
827.939	0.933
838.582	0.938
849.225	0.942
859.868	0.946
870.511	0.942
881.154	0.94
891.797	0.936
902.44	0.926
913.083	0.916
923.726	0.913
934.369	0.909
945.012	0.908
955.655	0.901
966.298	0.892
976.941	0.868
987.584	0.832
998.228	0.797
1008.87	0.776
1019.51	0.759
1030.16	0.739
1040.8	0.736
1051.44	0.738
1062.09	0.731
1072.73	0.712
1083.37	0.691
1094.01	0.69
1104.66	0.708
1115.3	0.724
1125.94	0.752
1136.59	0.776
1147.23	0.791
1157.87	0.804
1168.52	0.811
1179.16	0.835
1189.8	0.855
1200.45	0.877
1211.09	0.89
1221.73	0.897
1232.37	0.904
1243.02	0.905
1253.66	0.906
1264.3	0.908
1274.95	0.909
1285.59	0.912
1296.23	0.91
1306.88	0.912
1317.52	0.913
1328.16	0.914
1338.8	0.913
1349.45	0.913
1360.09	0.916
1370.73	0.912
1381.38	0.912
1392.02	0.913
1402.66	0.91
1413.31	0.909
1423.95	0.909
1434.59	0.909
1445.23	0.91
1455.88	0.91
1466.52	0.91
1477.16	0.913
1487.81	0.917
1498.45	0.916
1509.09	0.914
1519.74	0.913
1530.38	0.913
1541.02	0.913
1551.67	0.912
1562.31	0.91
1572.95	0.908
1583.59	0.906
1594.24	0.894
1604.88	0.876
1615.52	0.855
1626.17	0.849
1636.81	0.871
1647.45	0.889
1658.1	0.894
1668.74	0.901
1679.38	0.902
1690.02	0.905
1700.67	0.909
1711.31	0.91
1721.95	0.91
1732.6	0.91
1743.24	0.91
1753.88	0.912
1764.53	0.912
1775.17	0.908
1785.81	0.91
1796.46	0.909
1807.1	0.91
1817.74	0.91
1828.38	0.91
1839.03	0.909
1849.67	0.908
1860.31	0.908
1870.96	0.906
1881.6	0.905
1892.24	0.904
1902.89	0.902
1913.53	0.902
1924.17	0.902
1934.81	0.901
1945.46	0.901
1956.1	0.901
1966.74	0.901
1977.39	0.901
1988.03	0.9
1998.67	0.898
2009.32	0.897
2019.96	0.896
2030.6	0.896
2041.24	0.896
2051.89	0.894
2062.53	0.896
2073.17	0.893
2083.82	0.893
2094.46	0.893
2105.1	0.893
2115.75	0.8924
2126.39	0.892
2137.03	0.8926
2147.68	0.892
2158.32	0.89
2168.96	0.89
2179.6	0.8908
2190.25	0.89
2200.89	0.89
2211.53	0.89
2222.18	0.89
2232.82	0.888
2243.46	0.886
2254.11	0.882
2264.75	0.8843
2275.39	0.8813
2286.03	0.8826
2296.68	0.882
2307.32	0.8883
2317.96	0.8874
2328.61	0.8843
2339.25	0.8806
2349.89	0.8775
2360.54	0.881
2371.18	0.8803
2381.82	0.8785
2392.46	0.877
2403.11	0.876
2413.75	0.8762
2424.39	0.8734
2435.04	0.873
2445.68	0.875
2456.32	0.873
2466.97	0.872
2477.61	0.871
2488.25	0.869
2498.9	0.8672
2509.54	0.864
2520.18	0.865
2530.82	0.864
2541.47	0.864
2552.11	0.863
2562.75	0.861
2573.4	0.86
2584.04	0.86
2594.68	0.859
2605.33	0.8572
2615.97	0.855
2626.61	0.852
2637.25	0.8519
2647.9	0.852
2658.54	0.852
2669.18	0.851
2679.83	0.849
2690.47	0.848
2701.11	0.847
2711.76	0.845
2722.4	0.844
2733.04	0.843
2743.69	0.841
2754.33	0.841
2764.97	0.837
2775.61	0.836
2786.26	0.835
2796.9	0.833
2807.54	0.833
2818.19	0.831
2828.83	0.831
2839.47	0.828
2850.12	0.8249
2860.76	0.824
2871.4	0.824
2882.04	0.8228
2892.69	0.82
2903.33	0.8187
2913.97	0.8079
2924.62	0.803
2935.26	0.804
2945.9	0.805
2956.55	0.805
2967.19	0.8071
2977.83	0.808
2988.47	0.808
2999.12	0.807
3009.76	0.8048
3020.4	0.803
3031.05	0.803
3041.69	0.801
3052.33	0.801
3062.98	0.7986
3073.62	0.796
3084.26	0.793
3094.91	0.7945
3105.55	0.7918
3116.19	0.789
3126.83	0.788
3137.48	0.7878
3148.12	0.784
3158.76	0.7825
3169.41	0.78
3180.05	0.7764
3190.69	0.771
3201.34	0.771
3211.98	0.7687
3222.62	0.764
3233.26	0.761
3243.91	0.7597
3254.55	0.7563
3265.19	0.751
3275.84	0.7476
3286.48	0.7453
3297.12	0.7396
3307.77	0.735
3318.41	0.7299
3329.05	0.7212
3339.69	0.7152
3350.34	0.7072
3360.98	0.697
3371.62	0.685
3382.27	0.6767
3392.91	0.6672
3403.55	0.6554
3414.2	0.6466
3424.84	0.6426
3435.48	0.6385
3446.13	0.636
3456.77	0.636
3467.41	0.638
3478.05	0.6395
3488.7	0.642
3499.34	0.6435
3509.98	0.647
3520.63	0.6505
3531.27	0.6555
3541.91	0.6646
3552.56	0.6705
3563.2	0.676
3573.84	0.6852
3584.48	0.691
3595.13	0.6971
3605.77	0.7036
3616.41	0.708
3627.06	0.712
3637.7	0.718
3648.34	0.7212
3658.99	0.724
3669.63	0.726
3680.27	0.727
3690.92	0.728
3701.56	0.728
3712.2	0.727
3722.84	0.728
3733.49	0.727
3744.13	0.7247
3754.77	0.723
3765.42	0.722
3776.06	0.72
3786.7	0.72
3797.35	0.72
3807.99	0.719
3818.63	0.716
3829.27	0.714
3839.92	0.712
3850.56	0.711
3861.2	0.71
3871.85	0.708
3882.49	0.708
3893.13	0.707
3903.78	0.7045
3914.42	0.7022
3925.06	0.702
3935.7	0.7
3946.35	0.7
3956.99	0.699
3967.63	0.6982
3978.28	0.698
3988.92	0.696
