Infrared Spectrum: TITANIUM DIOXIDE (RUTILE)
Formula: O2 Ti
CAS: 13463-67-7
State: SOLID (0.3 mg / 300 mg CsI DISC)
Class: COBLENTZ
Instrument: BECKMAN IR-12 (GRATING)
Instrument parameters: GRATING BLAZED AT 3330, 1330, 445, 220 CM^-^1
Sampling: TRANSMISSION
Resolution: 4
Origin: DESOTO CHEMICAL COATINGS
1/CM	TRANSMITTANCE
198.667	0.765
209.334	0.768
220	0.778
230.667	0.782
241.334	0.78
252	0.777
262.667	0.766
273.334	0.749
284	0.72
294.667	0.653
305.334	0.6
316	0.5291
326.667	0.4131
337.334	0.342
348	0.308
358.667	0.288
369.334	0.442
380	0.469
390.667	0.369
401.334	0.306
412.001	0.284
422.667	0.278
433.334	0.322
444.001	0.43
454.667	0.494
465.334	0.49
476.001	0.4381
486.667	0.3851
497.334	0.316
508.001	0.26
518.667	0.218
529.334	0.198
540.001	0.189
550.667	0.188
561.334	0.189
572.001	0.188
582.667	0.184
593.334	0.185
604.001	0.176
614.667	0.157
625.334	0.137
636.001	0.126
646.667	0.121
657.334	0.124
668.001	0.129
678.667	0.145
689.334	0.168
700.001	0.194
710.667	0.228
721.334	0.281
732.001	0.349
742.667	0.4319
753.334	0.537
764.001	0.613
774.667	0.674
785.334	0.72
796.001	0.76
806.667	0.789
817.334	0.813
828.001	0.836
838.668	0.857
849.334	0.869
860.001	0.882
870.668	0.885
881.334	0.892
892.001	0.898
902.668	0.902
913.334	0.91
924.001	0.914
934.668	0.917
945.334	0.922
956.001	0.928
966.668	0.932
977.334	0.936
988.001	0.94
998.668	0.942
1009.33	0.942
1020	0.941
1030.67	0.94
1041.33	0.94
1052	0.938
1062.67	0.94
1073.33	0.937
1084	0.941
1094.67	0.94
1105.33	0.941
1116	0.942
1126.67	0.945
1137.33	0.946
1148	0.95
1158.67	0.952
1169.33	0.953
1180	0.954
1190.67	0.956
1201.33	0.958
1212	0.961
1222.67	0.962
1233.33	0.964
1244	0.964
1254.67	0.964
1265.33	0.965
1276	0.966
1286.67	0.966
1297.33	0.969
1308	0.969
1318.67	0.968
1329.33	0.969
1340	0.969
1350.67	0.968
1361.33	0.966
1372	0.966
1382.67	0.962
1393.33	0.962
1404	0.962
1414.67	0.964
1425.33	0.961
1436	0.957
1446.67	0.957
1457.33	0.957
1468	0.957
1478.67	0.961
1489.33	0.969
1500	0.969
1510.67	0.968
1521.33	0.966
1532	0.965
1542.67	0.962
1553.33	0.96
1564	0.96
1574.67	0.952
1585.33	0.945
1596	0.932
1606.67	0.916
1617.33	0.902
1628	0.906
1638.67	0.917
1649.33	0.922
1660	0.918
1670.67	0.92
1681.33	0.926
1692	0.942
1702.67	0.952
1713.33	0.952
1724	0.949
1734.67	0.949
1745.33	0.956
1756	0.958
1766.67	0.96
1777.33	0.961
1788	0.961
1798.67	0.961
1809.33	0.96
1820	0.958
1830.67	0.96
1841.33	0.96
1852	0.956
1862.67	0.957
1873.33	0.957
1884	0.956
1894.67	0.953
1905.34	0.952
1916	0.95
1926.67	0.952
1937.34	0.95
1948	0.949
1958.67	0.952
1969.34	0.948
1980	0.948
1990.67	0.945
2001.34	0.9485
2012	0.939
2022.67	0.937
2033.34	0.934
2044	0.9335
2054.67	0.932
2065.34	0.93
2076	0.9294
2086.67	0.929
2097.34	0.93
2108	0.93
2118.67	0.929
2129.34	0.929
2140	0.929
2150.67	0.928
2161.34	0.9243
2172	0.922
2182.67	0.9233
2193.34	0.922
2204	0.922
2214.67	0.922
2225.34	0.921
2236	0.921
2246.67	0.92
2257.34	0.92
2268	0.918
2278.67	0.918
2289.34	0.918
2300	0.917
2310.67	0.917
2321.34	0.916
2332	0.914
2342.67	0.912
2353.34	0.91
2364	0.9081
2374.67	0.9023
2385.34	0.9059
2396	0.909
2406.67	0.91
2417.34	0.91
2428	0.91
2438.67	0.91
2449.34	0.909
2460	0.909
2470.67	0.908
2481.34	0.906
2492	0.905
2502.67	0.902
2513.34	0.902
2524	0.902
2534.67	0.901
2545.34	0.901
2556	0.9
2566.67	0.9
2577.34	0.9
2588	0.898
2598.67	0.898
2609.34	0.897
2620	0.896
2630.67	0.894
2641.34	0.893
2652	0.8929
2662.67	0.892
2673.34	0.892
2684	0.89
2694.67	0.89
2705.34	0.89
2716	0.889
2726.67	0.888
2737.34	0.886
2748	0.885
2758.67	0.8847
2769.34	0.8835
2780	0.881
2790.67	0.8794
2801.34	0.877
2812	0.876
2822.67	0.8737
2833.34	0.8727
2844	0.8687
2854.67	0.8606
2865.34	0.8446
2876	0.8454
2886.67	0.8564
2897.34	0.8532
2908	0.8468
2918.67	0.8343
2929.34	0.8115
2940	0.8054
2950.67	0.8262
2961.34	0.8325
2972	0.8349
2982.67	0.845
2993.34	0.8485
3004	0.85
3014.67	0.8495
3025.34	0.849
3036	0.848
3046.67	0.846
3057.34	0.845
3068	0.8444
3078.67	0.841
3089.34	0.8388
3100	0.838
3110.67	0.8364
3121.34	0.8334
3132	0.8324
3142.67	0.832
3153.34	0.8284
3164	0.826
3174.67	0.825
3185.34	0.8226
3196	0.8186
3206.67	0.816
3217.34	0.813
3228	0.808
3238.67	0.8053
3249.34	0.801
3260	0.798
3270.67	0.7932
3281.34	0.7904
3292	0.7864
3302.67	0.7802
3313.34	0.7744
3324	0.7722
3334.67	0.769
3345.34	0.7642
3356	0.7583
3366.67	0.7503
3377.34	0.7425
3388	0.7342
3398.67	0.7281
3409.34	0.7202
3420	0.714
3430.67	0.71
3441.34	0.7081
3452	0.706
3462.67	0.706
3473.34	0.708
3484	0.709
3494.67	0.712
3505.34	0.714
3516	0.718
3526.67	0.7221
3537.34	0.728
3548	0.7301
3558.67	0.7361
3569.34	0.7401
3580	0.7492
3590.67	0.7571
3601.34	0.7641
3612	0.768
3622.67	0.7702
3633.34	0.7771
3644	0.78
3654.67	0.781
3665.34	0.781
3676	0.782
3686.67	0.7852
3697.34	0.788
3708	0.785
3718.67	0.784
3729.34	0.782
3740	0.782
3750.67	0.78
3761.34	0.777
3772	0.777
3782.67	0.777
3793.34	0.7754
3804	0.773
3814.67	0.7727
3825.34	0.7714
3836	0.77
3846.67	0.77
3857.34	0.769
3868	0.766
3878.67	0.766
3889.34	0.765
3900	0.765
3910.67	0.764
3921.34	0.762
3932	0.76
3942.67	0.76
3953.34	0.758
3964	0.757
3974.67	0.75
3985.34	0.75
