Infrared Spectrum: 1,2-Diethylbenzene
Formula: C10 H14
CAS: 135-01-3
State: SOLUTION (10% CCl4 FOR 3800-1340, 10% CS2 FOR 1340-400)
Class: COBLENTZ III
Instrument: BECKMAN IR-9 (GRATING)
Instrument parameters: ORDER CHANGES: 670, 1200, 2000 CM^-^1
Sampling: TRANSMISSION
Path length: 0.011 CM, 0.011 CM
Resolution: 2
Origin: DOW CHEMICAL COMPANY
1/CM	TRANSMITTANCE
3814	0.8999
3805	0.9001
3796	0.8996
3787	0.8993
3778	0.8989
3769	0.8985
3760	0.899
3751	0.8985
3742	0.8994
3733	0.9004
3724	0.9026
3715	0.9037
3706	0.9057
3697	0.9069
3688	0.9072
3679	0.9075
3670	0.9091
3661	0.9046
3652	0.8977
3643	0.8965
3634	0.8984
3625	0.9043
3616	0.907
3607	0.9071
3598	0.9067
3589	0.9075
3580	0.9079
3571	0.9073
3562	0.9078
3553	0.908
3544	0.908
3535	0.9081
3526	0.9068
3517	0.9066
3508	0.9065
3499	0.9064
3490	0.9065
3481	0.9066
3472	0.9067
3463	0.9071
3454	0.9076
3445	0.9081
3436	0.9088
3427	0.9053
3418	0.9033
3409	0.9063
3400	0.9073
3391	0.9071
3382	0.9072
3373	0.9076
3364	0.908
3355	0.9084
3346	0.9093
3337	0.9108
3328	0.9106
3319	0.9111
3310	0.9126
3301	0.9122
3292	0.9128
3283	0.9134
3274	0.9129
3265	0.9117
3256	0.9092
3247	0.908
3238	0.9062
3229	0.9041
3220	0.9022
3211	0.8994
3202	0.8956
3193	0.8934
3184	0.889
3175	0.8842
3166	0.8802
3157	0.8828
3148	0.8857
3139	0.8848
3130	0.8754
3121	0.8539
3112	0.7907
3103	0.8082
3094	0.8176
3085	0.6996
3076	0.5834
3067	0.5605
3058	0.6705
3049	0.6433
3040	0.6063
3031	0.4943
3022	0.4523
3013	0.5588
3004	0.5929
2995	0.5204
2986	0.1463
2977	0.0132
2968	0.0565
2959	0.2486
2950	0.2744
2941	0.1471
2932	0.2776
2923	0.3812
2914	0.4417
2905	0.4272
2896	0.4103
2887	0.2591
2878	0.1778
2869	0.4598
2860	0.6334
2851	0.7192
2842	0.7655
2833	0.7962
2824	0.8278
2815	0.8603
2806	0.8724
2797	0.872
2788	0.8746
2779	0.8817
2770	0.8884
2761	0.8941
2752	0.8961
2743	0.8858
2734	0.8821
2725	0.8972
2716	0.9056
2707	0.9055
2698	0.9047
2689	0.9088
2680	0.913
2671	0.9133
2662	0.9115
2653	0.9095
2644	0.9051
2635	0.9007
2626	0.8983
2617	0.9003
2608	0.9047
2599	0.9088
2590	0.9123
2581	0.9149
2572	0.9158
2563	0.9156
2554	0.9151
2545	0.9147
2536	0.9144
2527	0.9148
2518	0.9154
2509	0.9165
2500	0.9173
2491	0.9174
2482	0.916
2473	0.9204
2464	0.9211
2455	0.9194
2446	0.9192
2437	0.9168
2428	0.9094
2419	0.9088
2410	0.9131
2401	0.9163
2392	0.9165
2383	0.9185
2374	0.9196
2365	0.9165
2356	0.9157
2347	0.9129
2338	0.9086
2329	0.9062
2320	0.9101
2311	0.9112
2302	0.9104
2293	0.9099
2284	0.9107
2275	0.9101
2266	0.9117
2257	0.9134
2248	0.9147
2239	0.913
2230	0.9129
2221	0.9165
2212	0.9192
2203	0.9204
2194	0.9206
2185	0.9197
2176	0.9206
2167	0.9197
2158	0.9197
2149	0.9197
2140	0.9196
2131	0.9196
2122	0.9188
2113	0.9196
2104	0.9196
2095	0.9196
2086	0.9196
2077	0.9196
2068	0.9196
2059	0.9196
2050	0.9185
2041	0.916
2032	0.9141
2023	0.915
2014	0.9158
2005	0.9157
1996	0.8812
1987	0.9121
1978	0.9122
1969	0.9121
1960	0.9102
1951	0.8914
1942	0.8586
1933	0.8871
1924	0.8953
1915	0.8766
1906	0.8275
1897	0.8866
1888	0.9023
1879	0.8901
1870	0.8937
1861	0.8986
1852	0.9018
1843	0.8889
1834	0.8734
1825	0.8967
1816	0.898
1807	0.8782
1798	0.8484
1789	0.8886
1780	0.8999
1771	0.9046
1762	0.9076
1753	0.9084
1744	0.9059
1735	0.8963
1726	0.8959
1717	0.9024
1708	0.9052
1699	0.896
1690	0.8803
1681	0.8929
1672	0.8992
1663	0.8969
1654	0.8937
1645	0.8907
1636	0.8909
1627	0.879
1618	0.8542
1609	0.8418
1600	0.7137
1591	0.7961
1582	0.7533
1573	0.7537
1564	0.7549
1555	0.6922
1546	0.6762
1537	0.7223
1528	0.7607
1519	0.7628
1510	0.7606
1501	0.7376
1492	0.487
1483	0.3546
1474	0.6551
1465	0.3717
1456	0.3679
1447	0.3486
1438	0.6313
1429	0.7775
1420	0.8323
1411	0.8466
1402	0.8545
1393	0.8554
1384	0.8316
1375	0.5927
1366	0.8318
1357	0.8733
1348	0.8714
1339	0.8314
1330	0.8347
1321	0.8272
1312	0.8522
1303	0.8657
1294	0.8849
1285	0.885
1276	0.9087
1267	0.9235
1258	0.9253
1249	0.9166
1240	0.9141
1231	0.9366
1222	0.9403
1213	0.9392
1204	0.937
1195	0.9316
1186	0.929
1177	0.8737
1168	0.8944
1159	0.8907
1150	0.9034
1141	0.918
1132	0.9095
1123	0.8583
1114	0.9
1105	0.9069
1096	0.914
1087	0.9147
1078	0.8927
1069	0.8285
1060	0.6521
1051	0.6647
1042	0.8322
1033	0.8087
1024	0.8327
1015	0.9136
1006	0.9326
997	0.9318
988	0.9222
979	0.8878
970	0.8631
961	0.7936
952	0.8975
943	0.9122
934	0.7637
925	0.9475
916	0.9534
907	0.9514
898	0.9459
889	0.9226
880	0.8971
871	0.8798
862	0.8373
853	0.8677
844	0.9105
835	0.9199
826	0.9072
817	0.8729
808	0.8136
799	0.7238
790	0.5914
781	0.6955
772	0.773
763	0.6769
754	0.0647
745	0.3098
736	0.7254
727	0.6894
718	0.7491
709	0.7564
700	0.7998
691	0.9386
682	0.9737
673	0.9714
664	0.946
655	0.9153
646	0.9401
637	0.9537
628	0.9658
619	0.9725
610	0.9744
601	0.9681
592	0.9265
583	0.9562
574	0.9674
565	0.9551
556	0.9044
547	0.779
538	0.9082
529	0.9394
520	0.9399
511	0.9275
502	0.8836
493	0.8364
484	0.8404
475	0.8261
466	0.7283
457	0.7519
448	0.7259
439	0.6923
430	0.6329
421	0.4909
412	0.4336
403	0.4667
