Infrared Spectrum: 2-Naphthol
Formula: C 10 H 7 O H
CAS: 135-19-3
State: solid
Instrument: Bruker IR Cube FTIR
Resolution: 0.96450084
Origin: Pacific Northwest National Laboratory Under IARPA Contract
1/cm	Reflectance
7498.03	0.859364
7480.67	0.812728
7463.31	0.786938
7445.95	0.78143
7428.59	0.750634
7411.23	0.726043
7393.87	0.727842
7376.51	0.715331
7359.15	0.69166
7341.79	0.677443
7324.43	0.659974
7307.07	0.658719
7289.71	0.656469
7272.35	0.643582
7254.99	0.669352
7237.63	0.645509
7220.27	0.627443
7202.91	0.605542
7185.55	0.57989
7168.19	0.564659
7150.83	0.54058
7133.47	0.516467
7116.11	0.4917
7098.75	0.466567
7081.39	0.44391
7064.03	0.422499
7046.67	0.401175
7029.32	0.389145
7011.96	0.373274
6994.6	0.359637
6977.24	0.348261
6959.88	0.337236
6942.52	0.327469
6925.16	0.320875
6907.8	0.318763
6890.44	0.320389
6873.08	0.322751
6855.72	0.327139
6838.36	0.330955
6821	0.325466
6803.64	0.306001
6786.28	0.312977
6768.92	0.30153
6751.56	0.267423
6734.2	0.20973
6716.84	0.209862
6699.48	0.264039
6682.12	0.304136
6664.76	0.326858
6647.4	0.342041
6630.04	0.357381
6612.68	0.375534
6595.32	0.38119
6577.96	0.382863
6560.6	0.39281
6543.24	0.402596
6525.88	0.412003
6508.52	0.424922
6491.16	0.442793
6473.8	0.439917
6456.44	0.444394
6439.08	0.443808
6421.72	0.446463
6404.36	0.453289
6387	0.460311
6369.64	0.47109
6352.28	0.468308
6334.92	0.462975
6317.56	0.458289
6300.2	0.450247
6282.84	0.44305
6265.48	0.416688
6248.12	0.383907
6230.76	0.337718
6213.4	0.309721
6196.04	0.282654
6178.69	0.26142
6161.33	0.242512
6143.97	0.224679
6126.61	0.209479
6109.25	0.19886
6091.89	0.174166
6074.53	0.149012
6057.17	0.157236
6039.81	0.18107
6022.45	0.194435
6005.09	0.214539
5987.73	0.228338
5970.37	0.223336
5953.01	0.233933
5935.65	0.259379
5918.29	0.21685
5900.93	0.19167
5883.57	0.220927
5866.21	0.242461
5848.85	0.214169
5831.49	0.200308
5814.13	0.252646
5796.77	0.234094
5779.41	0.20025
5762.05	0.162681
5744.69	0.147303
5727.33	0.142831
5709.97	0.157073
5692.61	0.199987
5675.25	0.188841
5657.89	0.188111
5640.53	0.173244
5623.17	0.188674
5605.81	0.19023
5588.45	0.166166
5571.09	0.165509
5553.73	0.170134
5536.37	0.128803
5519.01	0.0880557
5501.65	0.0617823
5484.29	0.0500262
5466.93	0.0389626
5449.57	0.0326808
5432.21	0.0296692
5414.85	0.0285688
5397.49	0.0278965
5380.13	0.0284984
5362.77	0.0293466
5345.41	0.0312887
5328.06	0.0340863
5310.7	0.0372375
5293.34	0.0409338
5275.98	0.0344089
5258.62	0.0458387
5241.26	0.0502855
5223.9	0.0585712
5206.54	0.0561248
5189.18	0.0649768
5171.82	0.0612136
5154.46	0.0670779
5137.1	0.0629065
5119.74	0.0668103
5102.38	0.0644372
5085.02	0.0675756
5067.66	0.0675108
5050.3	0.0764097
5032.94	0.0727243
5015.58	0.0705344
4998.22	0.084777
4980.86	0.0973494
4963.5	0.0904123
4946.14	0.0979069
4928.78	0.105326
4911.42	0.126431
4894.06	0.113859
4876.7	0.146404
4859.34	0.140674
4841.98	0.126633
4824.62	0.121832
4807.26	0.115477
4789.9	0.103892
4772.54	0.128832
4755.18	0.135627
4737.82	0.120229
4720.46	0.0838222
4703.1	0.0662311
4685.74	0.105908
4668.38	0.074363
4651.02	0.084797
4633.66	0.0808336
4616.3	0.073886
4598.94	0.0543952
4581.58	0.0475242
4564.22	0.0293561
4546.86	0.0330438
4529.5	0.0605612
4512.14	0.0381313
4494.78	0.0385747
4477.43	0.0292869
4460.07	0.0297218
4442.71	0.0349003
4425.35	0.0382418
4407.99	0.0333271
4390.63	0.0245827
4373.27	0.0257255
4355.91	0.0330973
4338.55	0.0243096
4321.19	0.0400644
4303.83	0.0625665
4286.47	0.0707752
4269.11	0.0734722
4251.75	0.0674238
4234.39	0.0548201
4217.03	0.0665885
4199.67	0.0411072
4182.31	0.0540979
4164.95	0.0358352
4147.59	0.0464256
4130.23	0.0370177
4112.87	0.0346197
4095.51	0.0380022
4078.15	0.036939
4060.79	0.843745
4043.43	0.833358
4026.07	0.824947
4008.71	0.795071
3991.35	0.766549
3973.99	0.762657
3956.63	0.74089
3939.27	0.718921
3921.91	0.714004
3904.55	0.702315
3887.19	0.691746
3869.83	0.681399
3852.47	0.682718
3835.11	0.690548
3817.75	0.685545
3800.39	0.659503
3783.03	0.644899
3765.67	0.613895
3748.31	0.588751
3730.95	0.576223
3713.59	0.54842
3696.23	0.524413
3678.87	0.504415
3661.51	0.474232
3644.15	0.447655
3626.8	0.427557
3609.44	0.410588
3592.08	0.395494
3574.72	0.377382
3557.36	0.365182
3540	0.351956
3522.64	0.34314
3505.28	0.334722
3487.92	0.329792
3470.56	0.32834
3453.2	0.328228
3435.84	0.33473
3418.48	0.337001
3401.12	0.338262
3383.76	0.327995
3366.4	0.312379
3349.04	0.322113
3331.68	0.298066
3314.32	0.254545
3296.96	0.205334
3279.6	0.230985
3262.24	0.284656
3244.88	0.32174
3227.52	0.341575
3210.16	0.355697
3192.8	0.373555
3175.44	0.388088
3158.08	0.392152
3140.72	0.396097
3123.36	0.407735
3106	0.415023
3088.64	0.428043
3071.28	0.446276
3053.92	0.457386
3036.56	0.454146
3019.2	0.45609
3001.84	0.459606
2984.48	0.457791
2967.12	0.471349
2949.76	0.478228
2932.4	0.483818
2915.04	0.479706
2897.68	0.477063
2880.32	0.467438
2862.96	0.46134
2845.6	0.446031
2828.24	0.417651
2810.88	0.376202
2793.53	0.335091
2776.17	0.307193
2758.81	0.279996
2741.45	0.260083
2724.09	0.239193
2706.73	0.223416
2689.37	0.209524
2672.01	0.197625
2654.65	0.168385
2637.29	0.155788
2619.93	0.168333
2602.57	0.187986
2585.21	0.203576
2567.85	0.228021
2550.49	0.232464
2533.13	0.217881
2515.77	0.254716
2498.41	0.265007
2481.05	0.190915
2463.69	0.199557
2446.33	0.242889
2428.97	0.2359
2411.61	0.202224
2394.25	0.216094
2376.89	0.25703
2359.53	0.217038
2342.17	0.195274
2324.81	0.134296
2307.45	0.15682
2290.09	0.165174
2272.73	0.183193
2255.37	0.199672
2238.01	0.191306
2220.65	0.186749
2203.29	0.173775
2185.93	0.181147
2168.57	0.191585
2151.21	0.166778
2133.85	0.177421
2116.49	0.15949
2099.13	0.118597
2081.77	0.0831592
2064.41	0.0595584
2047.05	0.0470144
2029.69	0.0384198
2012.33	0.0327536
1994.97	0.0314036
1977.61	0.030431
1960.25	0.0302575
1942.9	0.0298602
1925.54	0.0318653
1908.18	0.033845
1890.82	0.0372883
1873.46	0.0396566
1856.1	0.0419778
1838.74	0.0409688
1821.38	0.0525196
1804.02	0.0554055
1786.66	0.0589122
1769.3	0.0624342
1751.94	0.0628192
1734.58	0.0696751
1717.22	0.0673133
1699.86	0.0662669
1682.5	0.0671351
1665.14	0.0676606
1647.78	0.0694359
1630.42	0.0711791
1613.06	0.0786109
1595.7	0.0703963
1578.34	0.0759099
1560.98	0.0899517
1543.62	0.0960813
1526.26	0.094336
1508.9	0.100778
1491.54	0.100223
1474.18	0.135075
1456.82	0.123664
1439.46	0.139941
1422.1	0.142155
1404.74	0.112938
1387.38	0.129896
1370.02	0.138722
1352.66	0.118534
1335.3	0.138859
1317.94	0.127672
1300.58	0.109548
1283.22	0.0738229
1265.86	0.0752963
1248.5	0.10698
1231.14	0.078988
1213.78	0.0803028
1196.42	0.0724966
1179.06	0.0646542
1161.7	0.0581903
1144.34	0.050119
1126.98	0.0421252
1109.62	0.0291839
1092.27	0.0599197
1074.91	0.028294
1057.55	0.0336724
1040.19	0.0388118
1022.83	0.0255729
1005.47	0.0338309
988.106	0.0400984
970.747	0.034256
953.387	0.0273616
936.027	0.0305086
918.667	0.0426424
901.307	0.0311992
883.948	0.0552824
866.588	0.0700872
849.228	0.0696555
831.868	0.0759664
814.508	0.0782384
797.149	0.0259497
779.789	0.0667609
762.429	0.0538688
745.069	0.0255551
727.709	0.0300583
710.35	0.0439391
692.99	0.0277086
675.63	0.0291002
658.27	0.0385651
640.91	0.0255919
