Infrared Spectrum: 2,5-DIMETHYL-P-QUINONE
Formula: C8 H8 O2
CAS: 137-18-8
State: SOLID (MINERAL OIL MULL)
Class: COBLENTZ
Instrument: Not specified, most likely a prism, grating, or hybrid spectrometer.
Sampling: TRANSMISSION
Resolution: 4
Origin: WYANDOTTE CHEMICALS CORP., WYANDOTTE, MICHIGAN, USA
MICROMETERS	TRANSMITTANCE
2.02	0.546
2.05979	0.556
2.09958	0.564
2.13937	0.564
2.17917	0.563
2.21896	0.563
2.25875	0.569
2.29854	0.583
2.33833	0.591
2.37812	0.602
2.41791	0.606
2.45771	0.612
2.4975	0.612
2.53729	0.621
2.57708	0.637
2.61687	0.621
2.65666	0.652
2.69645	0.649
2.73625	0.654
2.77604	0.652
2.81583	0.651
2.85562	0.647
2.89541	0.637
2.9352	0.639
2.975	0.636
3.01479	0.639
3.05458	0.634
3.09437	0.621
3.13416	0.641
3.17395	0.646
3.21374	0.639
3.25354	0.609
3.29333	0.554
3.33312	0.307
3.37291	0.061
3.4127	0.066
3.45249	0.166
3.49228	0.136
3.53208	0.471
3.57187	0.661
3.61166	0.724
3.65145	0.73
3.69124	0.725
3.73103	0.74
3.77082	0.749
3.81062	0.757
3.85041	0.764
3.8902	0.772
3.92999	0.777
3.96978	0.79
4.00957	0.797
4.04936	0.802
4.08916	0.799
4.12895	0.8
4.16874	0.81
4.20853	0.815
4.24832	0.792
4.28811	0.779
4.3279	0.803
4.3677	0.838
4.40749	0.86
4.44728	0.853
4.48707	0.853
4.52686	0.86
4.56665	0.862
4.60645	0.865
4.64624	0.872
4.68603	0.875
4.72582	0.875
4.76561	0.883
4.8054	0.892
4.84519	0.893
4.88499	0.897
4.92478	0.901
4.96457	0.905
5.00436	0.91
5.04415	0.905
5.08394	0.897
5.12373	0.921
5.16353	0.916
5.20332	0.921
5.24311	0.928
5.2829	0.938
5.32269	0.935
5.36248	0.943
5.40227	0.953
5.44207	0.94
5.48186	0.953
5.52165	0.955
5.56144	0.94
5.60123	0.915
5.64102	0.938
5.68081	0.953
5.72061	0.94
5.7604	0.935
5.80019	0.938
5.83998	0.916
5.87977	0.858
5.91956	0.664
5.95936	0.182
5.99915	0.044
6.03894	0.058
6.07873	0.068
6.11852	0.161
6.15831	0.053
6.1981	0.191
6.2379	0.375
6.27769	0.475
6.31748	0.529
6.35727	0.551
6.39706	0.574
6.43685	0.569
6.47664	0.588
6.51644	0.609
6.55623	0.621
6.59602	0.651
6.63581	0.654
6.6756	0.639
6.71539	0.586
6.75518	0.397
6.79498	0.166
6.83477	0.172
6.87456	0.186
6.91435	0.161
6.95414	0.29
6.99393	0.42
7.03372	0.536
7.07352	0.574
7.11331	0.604
7.1531	0.591
7.19289	0.47
7.23268	0.074
7.27247	0.156
7.31226	0.29
7.35206	0.46
7.39185	0.149
7.43164	0.39
7.47143	0.568
7.51122	0.654
7.55101	0.682
7.59081	0.7
7.6306	0.699
7.67039	0.681
7.71018	0.599
7.74997	0.574
7.78976	0.652
7.82955	0.672
7.86935	0.647
7.90914	0.496
7.94893	0.061
7.98872	0.107
8.02851	0.292
8.0683	0.481
8.10809	0.589
8.14789	0.656
8.18768	0.692
8.22747	0.709
8.26726	0.717
8.30705	0.712
8.34684	0.702
8.38663	0.709
8.42643	0.667
8.46622	0.642
8.50601	0.71
8.5458	0.729
8.58559	0.73
8.62538	0.481
8.66517	0.114
8.70497	0.421
8.74476	0.606
8.78455	0.694
8.82434	0.722
8.86413	0.742
8.90392	0.745
8.94371	0.747
8.98351	0.752
9.0233	0.764
9.06309	0.76
9.10288	0.76
9.14267	0.769
9.18246	0.769
9.22226	0.762
9.26205	0.769
9.30184	0.765
9.34163	0.765
9.38142	0.767
9.42121	0.77
9.461	0.77
9.5008	0.765
9.54059	0.76
9.58038	0.745
9.62017	0.687
9.65996	0.548
9.69975	0.513
9.73954	0.679
9.77934	0.729
9.81913	0.732
9.85892	0.687
9.89871	0.538
9.9385	0.177
9.97829	0.303
10.0181	0.491
10.0579	0.644
10.0977	0.694
10.1375	0.714
10.1773	0.74
10.217	0.747
10.2568	0.742
10.2966	0.74
10.3364	0.745
10.3762	0.749
10.416	0.745
10.4558	0.74
10.4956	0.74
10.5354	0.74
10.5752	0.727
10.615	0.702
10.6547	0.671
10.6945	0.611
10.7343	0.47
10.7741	0.26
10.8139	0.084
10.8537	0.084
10.8935	0.272
10.9333	0.513
10.9731	0.656
11.0129	0.71
11.0527	0.74
11.0925	0.799
11.1322	0.832
11.172	0.83
11.2118	0.842
11.2516	0.845
11.2914	0.84
11.3312	0.852
11.371	0.868
11.4108	0.875
11.4506	0.883
11.4904	0.883
11.5302	0.89
11.57	0.888
11.6097	0.892
11.6495	0.895
11.6893	0.895
11.7291	0.893
11.7689	0.895
11.8087	0.898
11.8485	0.901
11.8883	0.901
11.9281	0.908
11.9679	0.918
12.0077	0.92
12.0474	0.923
12.0872	0.928
12.127	0.93
12.1668	0.938
12.2066	0.938
12.2464	0.936
12.2862	0.936
12.326	0.931
12.3658	0.925
12.4056	0.91
12.4454	0.887
12.4852	0.815
12.5249	0.626
12.5647	0.418
12.6045	0.332
12.6443	0.49
12.6841	0.707
12.7239	0.805
12.7637	0.86
12.8035	0.887
12.8433	0.901
12.8831	0.905
12.9229	0.901
12.9627	0.906
13.0024	0.908
13.0422	0.908
13.082	0.908
13.1218	0.905
13.1616	0.898
13.2014	0.895
13.2412	0.893
13.281	0.892
13.3208	0.892
13.3606	0.897
13.4004	0.9
13.4402	0.892
13.4799	0.883
13.5197	0.888
13.5595	0.873
13.5993	0.87
13.6391	0.87
13.6789	0.868
13.7187	0.863
13.7585	0.862
13.7983	0.853
13.8381	0.84
13.8779	0.825
13.9176	0.817
13.9574	0.79
13.9972	0.745
14.037	0.651
14.0768	0.491
14.1166	0.435
14.1564	0.475
14.1962	0.548
14.236	0.629
14.2758	0.722
14.3156	0.774
14.3554	0.808
14.3951	0.815
14.4349	0.828
14.4747	0.835
14.5145	0.838
14.5543	0.833
14.5941	0.83
14.6339	0.825
14.6737	0.823
14.7135	0.817
14.7533	0.813
14.7931	0.8
14.8329	0.787
14.8726	0.78
14.9124	0.764
14.9522	0.734
14.992	0.696
15.0318	0.636
15.0716	0.524
15.1114	0.45
15.1512	0.435
15.191	0.443
15.2308	0.493
15.2706	0.549
15.3103	0.596
15.3501	0.617
15.3899	0.627
15.4297	0.632
15.4695	0.624
15.5093	0.621
15.5491	0.621
15.5889	0.616
15.6287	0.601
15.6685	0.594
15.7083	0.581
15.7481	0.564
15.7878	0.551
15.8276	0.531
15.8674	0.523
15.9072	0.509
15.947	0.503
15.9868	0.486
