Infrared Spectrum: p-Benzoquinone, 2,5-dimethyl-
Formula: C8 H8 O2
CAS: 137-18-8
State: SOLID (OIL MULL)
Class: COBLENTZ III
Instrument: PERKIN-ELMER 21 (GRATING)
Instrument parameters: NaCl PRISM
Sampling: TRANSMISSION
Resolution: 2
Origin: SMITH KLINE & FRENCH LABS.
1/CM	TRANSMITTANCE
4000	0.4219
3991	0.423
3982	0.4242
3973	0.4254
3964	0.4266
3955	0.4277
3946	0.4286
3937	0.4296
3928	0.4304
3919	0.4312
3910	0.4322
3901	0.4326
3892	0.4328
3883	0.4329
3874	0.4331
3865	0.4332
3856	0.4334
3847	0.4336
3838	0.4338
3829	0.434
3820	0.4342
3811	0.4344
3802	0.4346
3793	0.4349
3784	0.4353
3775	0.436
3766	0.4366
3757	0.4373
3748	0.438
3739	0.4386
3730	0.4393
3721	0.44
3712	0.4407
3703	0.4415
3694	0.4422
3685	0.4431
3676	0.4439
3667	0.4446
3658	0.4455
3649	0.4462
3640	0.4471
3631	0.4479
3622	0.4488
3613	0.4496
3604	0.4504
3595	0.4512
3586	0.4521
3577	0.453
3568	0.4539
3559	0.4548
3550	0.4559
3541	0.4571
3532	0.4581
3523	0.4592
3514	0.46
3505	0.4605
3496	0.461
3487	0.4615
3478	0.4617
3469	0.4619
3460	0.4621
3451	0.4623
3442	0.4622
3433	0.4621
3424	0.462
3415	0.462
3406	0.4621
3397	0.4633
3388	0.4651
3379	0.4673
3370	0.4687
3361	0.4697
3352	0.4707
3343	0.4716
3334	0.4721
3325	0.4722
3316	0.4724
3307	0.4726
3298	0.4724
3289	0.4721
3280	0.4717
3271	0.4714
3262	0.471
3253	0.4708
3244	0.4706
3235	0.4704
3226	0.4704
3217	0.4704
3208	0.4706
3199	0.471
3190	0.4716
3181	0.4721
3172	0.4729
3163	0.4742
3154	0.4759
3145	0.478
3136	0.481
3127	0.4846
3118	0.4874
3109	0.4882
3100	0.4886
3091	0.4886
3082	0.4888
3073	0.4886
3064	0.4885
3055	0.4871
3046	0.4808
3037	0.4544
3028	0.4515
3019	0.4504
3010	0.4493
3001	0.4479
2992	0.4437
2983	0.4246
2974	0.4032
2965	0.3491
2956	0.2748
2947	0.2001
2938	0.169
2929	0.1482
2920	0.1271
2911	0.0905
2902	0.0891
2893	0.0934
2884	0.1155
2875	0.1428
2866	0.176
2857	0.1804
2848	0.1837
2839	0.1967
2830	0.2353
2821	0.3169
2812	0.399
2803	0.4803
2794	0.5306
2785	0.5535
2776	0.5738
2767	0.5903
2758	0.6009
2749	0.6098
2740	0.6154
2731	0.6192
2722	0.6216
2713	0.6237
2704	0.6249
2695	0.6259
2686	0.6297
2677	0.6347
2668	0.6364
2659	0.6374
2650	0.6388
2641	0.6406
2632	0.6425
2623	0.6443
2614	0.6467
2605	0.6492
2596	0.6518
2587	0.655
2578	0.6584
2569	0.6611
2560	0.6635
2551	0.6658
2542	0.6671
2533	0.6678
2524	0.6674
2515	0.6674
2506	0.6698
2497	0.6749
2488	0.6808
2479	0.6867
2470	0.6925
2461	0.6971
2452	0.6995
2443	0.7011
2434	0.7022
2425	0.7034
2416	0.7051
2407	0.7065
2398	0.7071
2389	0.7075
2380	0.7078
2371	0.7082
2362	0.7082
2353	0.7068
2344	0.7034
2335	0.6998
2326	0.6981
2317	0.7003
2308	0.706
2299	0.7114
2290	0.7175
2281	0.724
2272	0.7305
2263	0.7356
2254	0.7397
2245	0.7418
2236	0.7442
2227	0.7462
2218	0.7484
2209	0.7506
2200	0.7524
2191	0.7534
2182	0.7543
2173	0.756
2164	0.7576
2155	0.7593
2146	0.7608
2137	0.7631
2128	0.7687
2119	0.7736
2110	0.7746
2101	0.7749
2092	0.7767
2083	0.7808
2074	0.7806
2065	0.7788
2056	0.7794
2047	0.7818
2038	0.7857
2029	0.7891
2020	0.7924
2011	0.7958
2002	0.7968
1993	0.8015
1984	0.8094
1975	0.8115
1966	0.8111
1957	0.8119
1948	0.8168
1939	0.8218
1930	0.8287
1921	0.8375
1912	0.8392
1903	0.8401
1894	0.8456
1885	0.8498
1876	0.8532
1867	0.8583
1858	0.8628
1849	0.8673
1840	0.8721
1831	0.8778
1822	0.8823
1813	0.8771
1804	0.8595
1795	0.8575
1786	0.8699
1777	0.8747
1768	0.8492
1759	0.7993
1750	0.8183
1741	0.8788
1732	0.9003
1723	0.9158
1714	0.9185
1705	0.9167
1696	0.8439
1687	0.6958
1678	0.495
1669	0.2634
1660	0.1654
1651	0.2111
1642	0.1774
1633	0.2318
1624	0.3102
1615	0.2122
1606	0.3054
1597	0.4016
1588	0.4702
1579	0.5479
1570	0.603
1561	0.6117
1552	0.6112
1543	0.6082
1534	0.613
1525	0.6286
1516	0.658
1507	0.6789
1498	0.6828
1489	0.639
1480	0.6668
1471	0.4846
1462	0.4231
1453	0.4312
1444	0.4599
1435	0.4489
1426	0.5556
1417	0.6499
1408	0.6953
1399	0.6917
1390	0.6964
1381	0.4635
1372	0.3222
1363	0.5188
1354	0.5774
1345	0.454
1336	0.6996
1327	0.7381
1318	0.7371
1309	0.7436
1300	0.7449
1291	0.6817
1282	0.6758
1273	0.7065
1264	0.6528
1255	0.3459
1246	0.3255
1237	0.5229
1228	0.7005
1219	0.7405
1210	0.7293
1201	0.6448
1192	0.7088
1183	0.7386
1174	0.7764
1165	0.8021
1156	0.5454
1147	0.4965
1138	0.7151
1129	0.7625
1120	0.7915
1111	0.8038
1102	0.8108
1093	0.8146
1084	0.7576
1075	0.8437
1066	0.828
1057	0.8447
1048	0.863
1039	0.8492
1030	0.7758
1021	0.8528
1012	0.7988
1003	0.4524
994	0.7683
985	0.8418
976	0.8501
967	0.866
958	0.8781
949	0.8811
940	0.8645
931	0.6951
922	0.5799
913	0.8488
904	0.8946
895	0.929
886	0.9512
877	0.9695
868	0.9743
859	0.9795
850	0.9725
841	0.9374
832	0.9218
823	0.9674
814	0.9844
805	0.9684
796	0.6401
787	0.9023
778	0.9458
769	0.9653
760	0.9628
751	0.9287
742	0.9265
733	0.9294
724	0.8786
715	0.8468
706	0.6944
697	0.8703
688	0.9045
679	0.9008
670	0.8663
661	0.7272
652	0.7772
643	0.7714
