Infrared Spectrum: DIPENTENE LIMONENE
Formula: C10 H16
CAS: 138-86-3
Class: COBLENTZ
Instrument: Not specified, most likely a prism, grating, or hybrid spectrometer.
Sampling: TRANSMISSION
Resolution: 4
Origin: INTERNATIONAL FLAVORS & FRAGRANCES, INC.
MICROMETERS	TRANSMITTANCE
1.723	0.911
1.76271	0.915
1.80242	0.915
1.84213	0.911
1.88184	0.911
1.92156	0.905
1.96127	0.898
2.00098	0.864
2.04069	0.853
2.0804	0.869
2.12011	0.889
2.15982	0.892
2.19953	0.892
2.23924	0.893
2.27896	0.893
2.31867	0.897
2.35838	0.898
2.39809	0.898
2.4378	0.9
2.47751	0.902
2.51722	0.9
2.55693	0.902
2.59664	0.911
2.63635	0.913
2.67607	0.918
2.71578	0.923
2.75549	0.923
2.7952	0.916
2.83491	0.911
2.87462	0.911
2.91433	0.91
2.95404	0.911
2.99375	0.913
3.03347	0.915
3.07318	0.913
3.11289	0.911
3.1526	0.9
3.19231	0.73
3.23202	0.636
3.27173	0.668
3.31144	0.337
3.35115	0.163
3.39087	0.063
3.43058	0.101
3.47029	0.15
3.51	0.442
3.54971	0.734
3.58942	0.84
3.62913	0.848
3.66884	0.843
3.70855	0.887
3.74826	0.89
3.78798	0.907
3.82769	0.908
3.8674	0.913
3.90711	0.918
3.94682	0.924
3.98653	0.928
4.02624	0.928
4.06595	0.929
4.10566	0.933
4.14538	0.939
4.18509	0.936
4.2248	0.926
4.26451	0.933
4.30422	0.942
4.34393	0.951
4.38364	0.949
4.42335	0.944
4.46306	0.942
4.50278	0.951
4.54249	0.951
4.5822	0.954
4.62191	0.955
4.66162	0.955
4.70133	0.954
4.74104	0.955
4.78075	0.955
4.82046	0.952
4.86018	0.952
4.89989	0.955
4.9396	0.955
4.97931	0.954
5.01902	0.952
5.05873	0.949
5.09844	0.951
5.13815	0.946
5.17786	0.946
5.21757	0.951
5.25729	0.952
5.297	0.952
5.33671	0.942
5.37642	0.947
5.41613	0.949
5.45584	0.942
5.49555	0.938
5.53526	0.924
5.57497	0.877
5.61469	0.869
5.6544	0.915
5.69411	0.921
5.73382	0.926
5.77353	0.915
5.81324	0.892
5.85295	0.895
5.89266	0.903
5.93237	0.841
5.97209	0.83
6.0118	0.82
6.05151	0.249
6.09122	0.554
6.13093	0.789
6.17064	0.838
6.21035	0.864
6.25006	0.859
6.28977	0.864
6.32949	0.88
6.3692	0.898
6.40891	0.902
6.44862	0.907
6.48833	0.907
6.52804	0.908
6.56775	0.905
6.60746	0.893
6.64717	0.885
6.68688	0.862
6.7266	0.827
6.76631	0.779
6.80602	0.654
6.84573	0.282
6.88544	0.194
6.92515	0.159
6.96486	0.223
7.00457	0.522
7.04428	0.665
7.084	0.743
7.12371	0.765
7.16342	0.755
7.20313	0.694
7.24284	0.308
7.28255	0.505
7.32226	0.703
7.36197	0.792
7.40168	0.815
7.4414	0.836
7.48111	0.814
7.52082	0.797
7.56053	0.836
7.60024	0.807
7.63995	0.787
7.67966	0.82
7.71937	0.835
7.75908	0.794
7.79879	0.828
7.83851	0.836
7.87822	0.862
7.91793	0.856
7.95764	0.822
7.99735	0.814
8.03706	0.773
8.07677	0.776
8.11648	0.783
8.15619	0.799
8.19591	0.851
8.23562	0.862
8.27533	0.831
8.31504	0.818
8.35475	0.823
8.39446	0.872
8.43417	0.876
8.47388	0.879
8.51359	0.882
8.55331	0.869
8.59302	0.81
8.63273	0.577
8.67244	0.624
8.71215	0.639
8.75186	0.823
8.79157	0.867
8.83128	0.889
8.87099	0.89
8.91071	0.864
8.95042	0.822
8.99013	0.833
9.02984	0.841
9.06955	0.867
9.10926	0.884
9.14897	0.885
9.18868	0.877
9.22839	0.856
9.2681	0.856
9.30782	0.864
9.34753	0.866
9.38724	0.849
9.42695	0.796
9.46666	0.712
9.50637	0.655
9.54608	0.758
9.58579	0.789
9.6255	0.799
9.66522	0.81
9.70493	0.791
9.74464	0.712
9.78435	0.688
9.82406	0.676
9.86377	0.712
9.90348	0.789
9.94319	0.828
9.9829	0.833
10.0226	0.828
10.0623	0.831
10.102	0.817
10.1417	0.82
10.1815	0.851
10.2212	0.872
10.2609	0.877
10.3006	0.877
10.3403	0.867
10.38	0.835
10.4197	0.734
10.4594	0.766
10.4991	0.822
10.5389	0.848
10.5786	0.859
10.6183	0.861
10.658	0.864
10.6977	0.866
10.7374	0.859
10.7771	0.838
10.8168	0.783
10.8565	0.68
10.8963	0.425
10.936	0.461
10.9757	0.6
11.0154	0.673
11.0551	0.652
11.0948	0.559
11.1345	0.349
11.1742	0.133
11.2139	0.058
11.2537	0.058
11.2934	0.101
11.3331	0.292
11.3728	0.464
11.4125	0.58
11.4522	0.694
11.4919	0.753
11.5316	0.797
11.5713	0.828
11.6111	0.848
11.6508	0.858
11.6905	0.867
11.7302	0.872
11.7699	0.877
11.8096	0.877
11.8493	0.879
11.889	0.882
11.9287	0.885
11.9685	0.887
12.0082	0.89
12.0479	0.89
12.0876	0.889
12.1273	0.887
12.167	0.884
12.2067	0.876
12.2464	0.864
12.2861	0.845
12.3259	0.812
12.3656	0.747
12.4053	0.631
12.445	0.471
12.4847	0.352
12.5244	0.306
12.5641	0.406
12.6038	0.554
12.6435	0.588
12.6833	0.564
12.723	0.703
12.7627	0.797
12.8024	0.843
12.8421	0.867
12.8818	0.877
12.9215	0.882
12.9612	0.884
13.0009	0.882
13.0407	0.871
13.0804	0.841
13.1201	0.796
13.1598	0.774
13.1995	0.774
13.2392	0.81
13.2789	0.846
13.3186	0.864
13.3583	0.872
13.3981	0.874
13.4378	0.876
13.4775	0.879
13.5172	0.879
13.5569	0.877
13.5966	0.872
13.6363	0.874
13.676	0.872
13.7157	0.871
13.7555	0.867
13.7952	0.866
13.8349	0.864
13.8746	0.861
13.9143	0.854
13.954	0.851
13.9937	0.846
14.0334	0.843
14.0731	0.84
14.1129	0.838
14.1526	0.836
14.1923	0.835
14.232	0.83
14.2717	0.825
14.3114	0.822
14.3511	0.82
14.3908	0.815
14.4305	0.815
14.4703	0.812
14.51	0.809
14.5497	0.804
14.5894	0.799
14.6291	0.792
14.6688	0.787
14.7085	0.781
14.7482	0.776
14.7879	0.776
14.8277	0.774
14.8674	0.768
14.9071	0.766
14.9468	0.765
14.9865	0.758
