Infrared Spectrum: LIMONENE
Formula: C10 H16
CAS: 138-86-3
State: SOLUTION (20% CCl4 FOR 4000-1330, 20% CS2 FOR 1330-480 CM^-^1) VS SOLVENT
Class: COBLENTZ III
Instrument: CARY 90 (GRATING)
Instrument parameters: ORDER CHANGES: 3000, 2000, 1200 CM^-^1
Sampling: TRANSMISSION
Path length: 0.010 CM, 0.010 CM
Resolution: 2
Origin: WESTERN REGIONAL RES. USDA
1/CM	TRANSMITTANCE
4024	0.9427
4015	0.9408
4006	0.9385
3997	0.9362
3988	0.9336
3979	0.9307
3970	0.9289
3961	0.9277
3952	0.9266
3943	0.9256
3934	0.9246
3925	0.9237
3916	0.9228
3907	0.9236
3898	0.9246
3889	0.9255
3880	0.9268
3871	0.9282
3862	0.9297
3853	0.9306
3844	0.931
3835	0.9313
3826	0.9316
3817	0.9313
3808	0.931
3799	0.9306
3790	0.9303
3781	0.93
3772	0.93
3763	0.9306
3754	0.9313
3745	0.9318
3736	0.9325
3727	0.933
3718	0.9328
3709	0.9321
3700	0.9316
3691	0.931
3682	0.9304
3673	0.9298
3664	0.9293
3655	0.9287
3646	0.9283
3637	0.9284
3628	0.9285
3619	0.9287
3610	0.9289
3601	0.9293
3592	0.9298
3583	0.9302
3574	0.9307
3565	0.931
3556	0.9314
3547	0.9317
3538	0.9325
3529	0.9333
3520	0.934
3511	0.9347
3502	0.9349
3493	0.9351
3484	0.9354
3475	0.9353
3466	0.935
3457	0.9347
3448	0.9339
3439	0.933
3430	0.9324
3421	0.9318
3412	0.931
3403	0.9289
3394	0.9259
3385	0.9228
3376	0.9203
3367	0.9196
3358	0.919
3349	0.9182
3340	0.9173
3331	0.9164
3322	0.9157
3313	0.9165
3304	0.9171
3295	0.9175
3286	0.9178
3277	0.9181
3268	0.9183
3259	0.9181
3250	0.9178
3241	0.9174
3232	0.9168
3223	0.9148
3214	0.9125
3205	0.9103
3196	0.9071
3187	0.9025
3178	0.8974
3169	0.8911
3160	0.8836
3151	0.8738
3142	0.8611
3133	0.8407
3124	0.8213
3115	0.7932
3106	0.7091
3097	0.4308
3088	0.4601
3079	0.5022
3070	0.6614
3061	0.611
3052	0.6322
3043	0.6808
3034	0.4624
3025	0.35
3016	0.4192
3007	0.4062
2998	0.2356
2989	0.065
2980	0.0637
2971	0.1252
2962	0.1146
2953	0.0441
2944	0.0131
2935	0.0077
2926	0.0092
2917	0.0138
2908	0.0205
2899	0.0316
2890	0.0497
2881	0.0939
2872	0.0731
2863	0.123
2854	0.0984
2845	0.0892
2836	0.3082
2827	0.5527
2818	0.6341
2809	0.7476
2800	0.8053
2791	0.8281
2782	0.8347
2773	0.8387
2764	0.8417
2755	0.8352
2746	0.8203
2737	0.7065
2728	0.7965
2719	0.8594
2710	0.8693
2701	0.8755
2692	0.8742
2683	0.8655
2674	0.8518
2665	0.8623
2656	0.8751
2647	0.8812
2638	0.8844
2629	0.8767
2620	0.8687
2611	0.8731
2602	0.8786
2593	0.8806
2584	0.8792
2575	0.8784
2566	0.8813
2557	0.8835
2548	0.8852
2539	0.8855
2530	0.8862
2521	0.887
2512	0.8877
2503	0.8881
2494	0.8861
2485	0.8832
2476	0.8821
2467	0.8838
2458	0.8862
2449	0.8887
2440	0.8901
2431	0.8905
2422	0.8898
2413	0.8893
2404	0.8889
2395	0.8895
2386	0.8904
2377	0.8912
2368	0.892
2359	0.8925
2350	0.8933
2341	0.8935
2332	0.8939
2323	0.8942
2314	0.8949
2305	0.8956
2296	0.8953
2287	0.8947
2278	0.8936
2269	0.89
2260	0.8856
2251	0.8827
2242	0.8827
2233	0.8832
2224	0.8838
2215	0.8843
2206	0.8849
2197	0.8853
2188	0.8853
2179	0.8858
2170	0.8864
2161	0.8868
2152	0.8874
2143	0.8836
2134	0.8828
2125	0.8821
2116	0.881
2107	0.8798
2098	0.8786
2089	0.8773
2080	0.8759
2071	0.8749
2062	0.8744
2053	0.874
2044	0.8734
2035	0.8718
2026	0.8698
2017	0.8674
2008	0.8655
1999	0.8668
1990	0.896
1981	0.8986
1972	0.8937
1963	0.875
1954	0.877
1945	0.8771
1936	0.8775
1927	0.88
1918	0.8809
1909	0.8794
1900	0.8821
1891	0.883
1882	0.878
1873	0.8738
1864	0.879
1855	0.8816
1846	0.8827
1837	0.8828
1828	0.874
1819	0.8693
1810	0.8657
1801	0.8512
1792	0.8181
1783	0.7618
1774	0.8221
1765	0.8573
1756	0.8628
1747	0.8693
1738	0.8775
1729	0.8749
1720	0.8546
1711	0.8393
1702	0.8436
1693	0.8449
1684	0.8361
1675	0.7437
1666	0.7824
1657	0.7468
1648	0.5132
1639	0.2011
1630	0.6293
1621	0.7368
1612	0.7891
1603	0.8203
1594	0.8237
1585	0.8443
1576	0.8589
1567	0.878
1558	0.9131
1549	0.9271
1540	0.923
1531	0.9021
1522	0.8736
1513	0.8666
1504	0.8528
1495	0.8275
1486	0.7965
1477	0.7545
1468	0.6618
1459	0.4374
1450	0.1362
1441	0.1086
1432	0.1079
1423	0.43
1414	0.6782
1405	0.7169
1396	0.7217
1387	0.6982
1378	0.3993
1369	0.3297
1360	0.6689
1351	0.7614
1342	0.7901
1333	0.7774
1324	0.7497
1315	0.7811
1306	0.7588
1297	0.7976
1288	0.7612
1279	0.8092
1270	0.8451
1261	0.8494
1252	0.8056
1243	0.7711
1234	0.7642
1225	0.7797
1216	0.865
1207	0.8208
1198	0.8278
1189	0.9125
1180	0.9346
1171	0.9478
1162	0.9271
1153	0.585
1144	0.5712
1135	0.9374
1126	0.9543
1117	0.9463
1108	0.8828
1099	0.9217
1090	0.9554
1081	0.9471
1072	0.9174
1063	0.932
1054	0.8811
1045	0.7408
1036	0.8644
1027	0.8794
1018	0.7325
1009	0.766
1000	0.8813
991	0.8813
982	0.8733
973	0.9325
964	0.9349
955	0.7458
946	0.9065
937	0.9216
928	0.911
919	0.6162
910	0.336
901	0.7097
892	0.232
883	0.0855
874	0.5053
865	0.8143
856	0.9178
847	0.9749
838	0.9766
829	0.9663
820	0.9466
811	0.9161
802	0.5909
793	0.3843
784	0.68
775	0.955
766	0.9658
757	0.8503
748	0.9825
739	0.9981
730	0.9966
721	0.9897
712	0.983
703	0.9842
694	0.9877
685	0.9873
676	0.9918
667	1.0002
658	0.9995
649	0.9871
640	0.9559
631	0.9925
622	0.9963
613	0.9984
604	0.9993
595	0.998
586	0.9898
577	0.9794
568	0.9711
559	0.9585
550	0.8277
541	0.6949
532	0.9245
523	0.8352
514	0.8937
505	0.938
496	0.8332
487	0.8171
