Infrared Spectrum: LIMONENE
Formula: C10 H16
CAS: 138-86-3
State: LIQUID (NEAT)
Class: COBLENTZ III
Instrument: CARY 90 (GRATING)
Instrument parameters: ORDER CHANGES: 3000, 2000, 1200 CM^-^1
Sampling: TRANSMISSION
Path length: 0.0025 CM
Resolution: 2
Origin: WESTERN REGIONAL RES. USDA
1/CM	TRANSMITTANCE
4022	0.9459
4013	0.9453
4004	0.9445
3995	0.9437
3986	0.943
3977	0.9418
3968	0.9411
3959	0.9409
3950	0.9409
3941	0.9412
3932	0.9416
3923	0.9421
3914	0.9431
3905	0.9441
3896	0.9448
3887	0.9452
3878	0.9456
3869	0.9452
3860	0.9448
3851	0.9448
3842	0.9449
3833	0.945
3824	0.9459
3815	0.9471
3806	0.9485
3797	0.9497
3788	0.9508
3779	0.9518
3770	0.9528
3761	0.9536
3752	0.954
3743	0.9543
3734	0.9546
3725	0.9549
3716	0.9552
3707	0.9555
3698	0.9559
3689	0.9562
3680	0.9566
3671	0.9568
3662	0.9573
3653	0.9575
3644	0.958
3635	0.9583
3626	0.9587
3617	0.959
3608	0.9592
3599	0.9588
3590	0.9583
3581	0.9577
3572	0.9573
3563	0.9568
3554	0.9566
3545	0.9563
3536	0.956
3527	0.9558
3518	0.9556
3509	0.9554
3500	0.9552
3491	0.9548
3482	0.9544
3473	0.9538
3464	0.9533
3455	0.9527
3446	0.9524
3437	0.952
3428	0.9518
3419	0.9515
3410	0.9514
3401	0.9513
3392	0.9509
3383	0.9501
3374	0.9494
3365	0.9484
3356	0.9471
3347	0.9458
3338	0.9446
3329	0.9439
3320	0.9432
3311	0.9425
3302	0.9423
3293	0.9418
3284	0.9415
3275	0.9411
3266	0.9409
3257	0.9406
3248	0.9402
3239	0.9394
3230	0.9381
3221	0.9367
3212	0.9348
3203	0.9313
3194	0.9271
3185	0.9228
3176	0.9187
3167	0.9141
3158	0.906
3149	0.8947
3140	0.8821
3131	0.8686
3122	0.8465
3113	0.8162
3104	0.7593
3095	0.3504
3086	0.3653
3077	0.4104
3068	0.6118
3059	0.5701
3050	0.5774
3041	0.6471
3032	0.5046
3023	0.2852
3014	0.3464
3005	0.35
2996	0.2276
2987	0.0425
2978	0.0148
2969	0.0584
2960	0.0858
2951	0.0218
2942	0.0096
2933	0.0083
2924	0.0081
2915	0.0094
2906	0.0127
2897	0.0173
2888	0.0245
2879	0.0521
2870	0.0432
2861	0.0693
2852	0.0589
2843	0.0518
2834	0.2028
2825	0.3868
2816	0.556
2807	0.6701
2798	0.7851
2789	0.8151
2780	0.8308
2771	0.8415
2762	0.8504
2753	0.8483
2744	0.8245
2735	0.7864
2726	0.6949
2717	0.8548
2708	0.8834
2699	0.8915
2690	0.8953
2681	0.8923
2672	0.8665
2663	0.8781
2654	0.9071
2645	0.9148
2636	0.9175
2627	0.9088
2618	0.8984
2609	0.9032
2600	0.9108
2591	0.9151
2582	0.9165
2573	0.9144
2564	0.9156
2555	0.9223
2546	0.9288
2537	0.9277
2528	0.9261
2519	0.928
2510	0.9346
2501	0.9375
2492	0.9354
2483	0.9297
2474	0.9255
2465	0.9255
2456	0.9275
2447	0.9312
2438	0.9347
2429	0.937
2420	0.9368
2411	0.9362
2402	0.9349
2393	0.9328
2384	0.9307
2375	0.9294
2366	0.929
2357	0.9296
2348	0.9321
2339	0.9355
2330	0.9388
2321	0.9412
2312	0.9434
2303	0.9443
2294	0.9439
2285	0.942
2276	0.9396
2267	0.9366
2258	0.9346
2249	0.9328
2240	0.9313
2231	0.933
2222	0.935
2213	0.9365
2204	0.9368
2195	0.9373
2186	0.9377
2177	0.9378
2168	0.9381
2159	0.9384
2150	0.9388
2141	0.9395
2132	0.9408
2123	0.9415
2114	0.941
2105	0.9396
2096	0.9378
2087	0.936
2078	0.9339
2069	0.9328
2060	0.9327
2051	0.9328
2042	0.9323
2033	0.9309
2024	0.9291
2015	0.9273
2006	0.9295
1997	0.9478
1988	0.9499
1979	0.9478
1970	0.946
1961	0.9418
1952	0.9391
1943	0.9424
1934	0.9466
1925	0.9496
1916	0.9512
1907	0.9508
1898	0.9488
1889	0.9453
1880	0.9433
1871	0.9407
1862	0.9378
1853	0.9377
1844	0.9387
1835	0.9383
1826	0.9359
1817	0.9312
1808	0.9227
1799	0.8961
1790	0.8415
1781	0.7981
1772	0.8568
1763	0.9009
1754	0.9162
1745	0.9274
1736	0.933
1727	0.9342
1718	0.9073
1709	0.8875
1700	0.8964
1691	0.8994
1682	0.8805
1673	0.7608
1664	0.8132
1655	0.7512
1646	0.2342
1637	0.1853
1628	0.6449
1619	0.768
1610	0.8217
1601	0.835
1592	0.81
1583	0.8245
1574	0.8528
1565	0.8765
1556	0.8857
1547	0.8895
1538	0.8901
1529	0.8878
1520	0.8834
1511	0.8762
1502	0.8625
1493	0.8393
1484	0.8051
1475	0.7444
1466	0.6301
1457	0.3226
1448	0.0615
1439	0.0604
1430	0.0496
1421	0.3388
1412	0.6282
1403	0.6984
1394	0.7025
1385	0.6469
1376	0.1427
1367	0.4064
1358	0.7317
1349	0.7831
1340	0.8153
1331	0.7558
1322	0.8007
1313	0.7644
1304	0.7228
1295	0.8062
1286	0.7347
1277	0.7972
1268	0.8496
1259	0.8404
1250	0.7718
1241	0.7076
1232	0.7217
1223	0.7658
1214	0.856
1205	0.7989
1196	0.7255
1187	0.925
1178	0.9391
1169	0.9531
1160	0.8932
1151	0.52
1142	0.5736
1133	0.9342
1124	0.956
1115	0.8563
1106	0.8627
1097	0.951
1088	0.9545
1079	0.9095
1070	0.9312
1061	0.9249
1052	0.6451
1043	0.7912
1034	0.8581
1025	0.7975
1016	0.6173
1007	0.6919
998	0.8768
989	0.8608
980	0.8318
971	0.93
962	0.927
953	0.66
944	0.8893
935	0.9012
926	0.8855
917	0.6549
908	0.3778
899	0.446
890	0.026
881	0.0128
872	0.5575
863	0.7938
854	0.8924
845	0.9202
836	0.9313
827	0.9325
818	0.9235
809	0.8498
800	0.3359
791	0.2865
782	0.6964
773	0.9433
764	0.9374
755	0.7756
746	0.963
737	0.9904
728	0.9949
719	0.9864
710	0.9831
701	0.9877
692	0.9959
683	0.9975
674	0.9987
665	1.0075
656	1.0125
647	1.0032
638	0.9109
629	0.9844
620	1.0055
611	1.0087
602	1.0057
593	0.9988
584	0.9906
575	0.9825
566	0.9664
557	0.9094
548	0.7246
539	0.5859
530	0.893
521	0.783
512	0.9006
503	0.9565
494	0.8495
485	0.8649
