Infrared Spectrum: 2-NORPINENE, 2,6-DIMETHYL-6-(4-METHYL-3-PENTENYL)
Formula: C15 H24
CAS: 14087-02-6
State: SOLUTION (20% IN CCl4 FOR 4000-1300 CM^-^1, 20% IN CS2 FOR 1300-450 CM^-^1) VS. SOLVENT
Class: COBLENTZ III
Instrument: CARY 90 (GRATING)
Instrument parameters: GRATING CHANGES AT 3000, 2000, 1200 CM^-^1
Sampling: TRANSMISSION
Path length: 0.010 CM, 0.010 CM
Resolution: 4
Origin: WESTERN REGIONAL RES. USDA
1/CM	TRANSMITTANCE
449.845	0.635
459.133	0.726
468.421	0.794
477.709	0.789
486.997	0.772
496.285	0.784
505.573	0.801
514.861	0.828
524.149	0.871
533.437	0.846
542.725	0.787
552.012	0.84
561.3	0.89
570.588	0.891
579.876	0.882
589.164	0.886
598.452	0.886
607.74	0.907
617.028	0.89
626.316	0.775
635.604	0.918
644.892	0.933
654.18	0.937
663.468	0.932
672.756	0.925
682.044	0.921
691.332	0.927
700.62	0.933
709.908	0.927
719.196	0.917
728.484	0.877
737.772	0.804
747.06	0.837
756.347	0.869
765.635	0.722
774.923	0.75
784.211	0.237
793.499	0.5811
802.787	0.771
812.075	0.768
821.363	0.635
830.651	0.565
839.939	0.721
849.227	0.812
858.515	0.854
867.803	0.865
877.091	0.82
886.379	0.611
895.667	0.782
904.955	0.833
914.243	0.862
923.531	0.791
932.819	0.817
942.107	0.797
951.394	0.588
960.682	0.764
969.97	0.782
979.258	0.735
988.546	0.775
997.834	0.821
1007.12	0.72
1016.41	0.641
1025.7	0.79
1034.99	0.798
1044.27	0.811
1053.56	0.831
1062.85	0.755
1072.14	0.772
1081.43	0.571
1090.71	0.691
1100	0.639
1109.29	0.747
1118.58	0.568
1127.87	0.734
1137.15	0.819
1146.44	0.789
1155.73	0.813
1165.02	0.702
1174.31	0.819
1183.59	0.835
1192.88	0.6909
1202.17	0.677
1211.46	0.5869
1220.75	0.7351
1230.03	0.793
1239.32	0.803
1248.61	0.798
1257.9	0.758
1267.18	0.789
1276.47	0.821
1285.76	0.825
1295.05	0.793
1304.34	0.693
1313.62	0.768
1322.91	0.6229
1332.2	0.606
1341.49	0.6441
1350.78	0.701
1360.06	0.67
1369.35	0.1789
1378.64	0.2502
1387.93	0.6451
1397.22	0.733
1406.5	0.723
1415.79	0.659
1425.08	0.4689
1434.37	0.122
1443.66	0.103
1452.94	0.1981
1462.23	0.347
1471.52	0.4241
1480.81	0.692
1490.1	0.773
1499.38	0.826
1508.67	0.857
1517.96	0.874
1527.25	0.893
1536.54	0.921
1545.82	0.952
1555.11	0.944
1564.4	0.917
1573.69	0.889
1582.98	0.904
1592.26	0.907
1601.55	0.888
1610.84	0.874
1620.13	0.863
1629.42	0.844
1638.7	0.836
1647.99	0.842
1657.28	0.7479
1666.57	0.813
1675.85	0.8131
1685.14	0.869
1694.43	0.878
1703.72	0.884
1713.01	0.886
1722.29	0.888
1731.58	0.884
1740.87	0.878
1750.16	0.889
1759.45	0.891
1768.73	0.889
1778.02	0.891
1787.31	0.89
1796.6	0.893
1805.89	0.895
1815.17	0.895
1824.46	0.897
1833.75	0.893
1843.04	0.895
1852.33	0.897
1861.61	0.899
1870.9	0.899
1880.19	0.9
1889.48	0.902
1898.77	0.903
1908.05	0.903
1917.34	0.902
1926.63	0.898
1935.92	0.898
1945.21	0.896
1954.49	0.897
1963.78	0.896
1973.07	0.9
1982.36	0.902
1991.65	0.896
2000.93	0.893
2010.22	0.891
2019.51	0.889
2028.8	0.889
2038.09	0.887
2047.37	0.885
2056.66	0.888
2065.95	0.89
2075.24	0.892
2084.52	0.8941
2093.81	0.896
2103.1	0.8975
2112.39	0.898
2121.68	0.897
2130.96	0.8964
2140.25	0.895
2149.54	0.893
2158.83	0.895
2168.12	0.8966
2177.4	0.898
2186.69	0.9
2195.98	0.902
2205.27	0.903
2214.56	0.9046
2223.84	0.905
2233.13	0.9066
2242.42	0.9096
2251.71	0.911
2261	0.911
2270.28	0.91
2279.57	0.911
2288.86	0.9126
2298.15	0.914
2307.44	0.916
2316.72	0.917
2326.01	0.916
2335.3	0.9134
2344.59	0.9077
2353.88	0.903
2363.16	0.902
2372.45	0.9047
2381.74	0.904
2391.03	0.8993
2400.32	0.898
2409.6	0.9057
2418.89	0.9083
2428.18	0.91
2437.47	0.909
2446.76	0.905
2456.04	0.8973
2465.33	0.895
2474.62	0.8997
2483.91	0.903
2493.19	0.8956
2502.48	0.8941
2511.77	0.8997
2521.06	0.9027
2530.35	0.904
2539.63	0.9005
2548.92	0.899
2558.21	0.9
2567.5	0.903
2576.79	0.9047
2586.07	0.906
2595.36	0.9052
2604.65	0.9043
2613.94	0.9022
2623.23	0.8985
2632.51	0.897
2641.8	0.8922
2651.09	0.8845
2660.38	0.8755
2669.67	0.8801
2678.95	0.8926
2688.24	0.897
2697.53	0.893
2706.82	0.8816
2716.11	0.8618
2725.39	0.7751
2734.68	0.7356
2743.97	0.8333
2753.26	0.8506
2762.55	0.855
2771.83	0.8482
2781.12	0.8325
2790.41	0.8147
2799.7	0.7853
2808.99	0.7465
2818.27	0.6786
2827.56	0.5057
2836.85	0.1746
2846.14	0.1265
2855.42	0.0775
2864.71	0.0583
2874	0.0454
2883.29	0.0323
2892.58	0.0185
2901.86	0.0121
2911.15	0.0062
2920.44	0.0031
2929.73	0.0021
2939.02	0.002
2948.3	0.0039
2957.59	0.0059
2966.88	0.0099
2976.17	0.0148
2985.46	0.0217
2994.74	0.1311
3004.03	0.2926
3013.32	0.36
3022.61	0.2732
3031.9	0.3752
3041.18	0.5609
3050.47	0.6634
3059.76	0.7478
3069.05	0.7777
3078.34	0.8188
3087.62	0.8349
3096.91	0.8429
3106.2	0.849
3115.49	0.8559
3124.78	0.8699
3134.06	0.877
3143.35	0.8879
3152.64	0.898
3161.93	0.906
3171.22	0.913
3180.5	0.919
3189.79	0.924
3199.08	0.928
3208.37	0.93
3217.66	0.927
3226.94	0.928
3236.23	0.931
3245.52	0.934
3254.81	0.937
3264.09	0.94
3273.38	0.941
3282.67	0.944
3291.96	0.946
3301.25	0.948
3310.53	0.948
3319.82	0.948
3329.11	0.948
3338.4	0.947
3347.69	0.947
3356.97	0.947
3366.26	0.946
3375.55	0.946
3384.84	0.946
3394.13	0.946
3403.41	0.946
3412.7	0.9461
3421.99	0.947
3431.28	0.948
3440.57	0.951
3449.85	0.953
3459.14	0.954
3468.43	0.9551
3477.72	0.958
3487.01	0.959
3496.29	0.9591
3505.58	0.96
3514.87	0.96
3524.16	0.96
3533.45	0.96
3542.73	0.96
3552.02	0.96
3561.31	0.961
3570.6	0.962
3579.89	0.963
3589.17	0.963
3598.46	0.9628
3607.75	0.962
3617.04	0.962
3626.33	0.962
3635.61	0.962
3644.9	0.962
3654.19	0.961
3663.48	0.96
3672.76	0.959
3682.05	0.959
3691.34	0.959
3700.63	0.959
3709.92	0.958
3719.2	0.956
3728.49	0.9548
3737.78	0.954
3747.07	0.954
3756.36	0.953
3765.64	0.953
3774.93	0.953
3784.22	0.952
3793.51	0.951
3802.8	0.9505
3812.08	0.948
3821.37	0.947
3830.66	0.9457
3839.95	0.944
3849.24	0.944
3858.52	0.944
3867.81	0.944
3877.1	0.945
3886.39	0.946
3895.68	0.9463
3904.96	0.947
3914.25	0.947
3923.54	0.947
3932.83	0.9457
3942.12	0.944
3951.4	0.941
3960.69	0.9397
3969.98	0.937
3979.27	0.9373
3988.56	0.939
3997.84	0.941
4007.13	0.9443
