Infrared Spectrum: Ethyl Ester-Propenoic Acid
Formula: C H2: C H C O2 C2 H5
CAS: 140-88-5
State: gas
Melting point: -71.2 C
Boiling point: 99.8 C
Class: IUPAC A
Instrument: IFS66V (Bruker)
Instrument parameters: KBr Beam splitter; MCT Detector; Multipass cell
Sampling: 1 L/min Flow
Resolution: 0.1250
Temperature: 23 C
Pressure: 101.3 kPa
Origin: NIST, Anayltical Chemistry Division, 301-975-3108
cm-1	(micromol/mol)-1m-1 (base 10)
574.988	7.70923e-07
583.546	1.2971e-06
592.103	1.09582e-06
600.661	3.63967e-06
609.219	7.40213e-06
617.776	7.3487e-06
626.334	4.07072e-06
634.891	2.30444e-06
643.449	5.50763e-06
652.007	1.32333e-05
660.564	2.01741e-05
669.122	2.13462e-05
677.68	1.22291e-05
686.237	4.93359e-06
694.795	1.80647e-06
703.352	8.97631e-07
711.91	9.06525e-07
720.468	9.8791e-07
729.025	1.13976e-06
737.583	1.68767e-06
746.141	1.87658e-06
754.698	2.41358e-06
763.256	3.27348e-06
771.813	6.53082e-06
780.371	1.55179e-05
788.929	3.55847e-05
797.486	6.88251e-05
806.044	0.000111951
814.602	0.000129149
823.159	8.1916e-05
831.717	4.12528e-05
840.274	2.20459e-05
848.832	2.97772e-05
857.39	4.17496e-05
865.947	4.02931e-05
874.505	2.50061e-05
883.063	1.35637e-05
891.62	1.55405e-05
900.178	2.16497e-05
908.735	2.51204e-05
917.293	2.20014e-05
925.851	1.91004e-05
934.408	1.33294e-05
942.966	2.49208e-05
951.524	6.24049e-05
960.081	0.000114455
968.639	0.000162665
977.196	0.000164433
985.754	0.000183638
994.312	0.000125615
1002.87	7.38469e-05
1011.43	3.87403e-05
1019.98	5.30609e-05
1028.54	0.000138947
1037.1	0.000197673
1045.66	0.000178136
1054.22	0.000160368
1062.77	0.000289476
1071.33	0.000324932
1079.89	0.000203833
1088.45	0.00010882
1097	0.000113365
1105.56	0.000107312
1114.12	7.20174e-05
1122.68	4.76701e-05
1131.23	3.53e-05
1139.79	3.14068e-05
1148.35	3.76708e-05
1156.91	5.84628e-05
1165.46	0.000121186
1174.02	0.000265463
1182.58	0.000744153
1191.14	0.00187486
1199.69	0.00206428
1208.25	0.000892829
1216.81	0.000299041
1225.37	0.000130762
1233.93	8.94642e-05
1242.48	8.00323e-05
1251.04	9.31878e-05
1259.6	0.000255794
1268.16	0.000560949
1276.71	0.000660697
1285.27	0.000410221
1293.83	0.000399061
1302.39	0.000412283
1310.94	0.000229299
1319.5	8.72215e-05
1328.06	3.7732e-05
1336.62	1.86471e-05
1345.17	1.46956e-05
1353.73	1.60114e-05
1362.29	2.98301e-05
1370.85	4.30887e-05
1379.4	7.06546e-05
1387.96	0.000134165
1396.52	0.000213582
1405.08	0.000414341
1413.64	0.000436531
1422.19	0.00022052
1430.75	5.85796e-05
1439.31	4.9947e-05
1447.87	5.91218e-05
1456.42	6.9021e-05
1464.98	7.78422e-05
1473.54	7.49482e-05
1482.1	5.93767e-05
1490.65	3.87087e-05
1499.21	2.44848e-05
1507.77	1.68647e-05
1516.33	1.36114e-05
1524.88	1.06765e-05
1533.44	8.02757e-06
1542	6.8932e-06
1550.56	6.7664e-06
1559.11	8.06321e-06
1567.67	8.72308e-06
1576.23	8.27085e-06
1584.79	8.52664e-06
1593.35	9.41303e-06
1601.9	1.31685e-05
1610.46	2.46355e-05
1619.02	4.59928e-05
1627.58	6.08256e-05
1636.13	0.000108623
1644.69	9.46658e-05
1653.25	4.48883e-05
1661.81	1.30779e-05
1670.36	1.10232e-05
1678.92	1.24706e-05
1687.48	1.49268e-05
1696.04	2.05378e-05
1704.59	2.8243e-05
1713.15	4.43412e-05
1721.71	9.56876e-05
1730.27	0.000296825
1738.83	0.000804989
1747.38	0.00100455
1755.94	0.00107297
1764.5	0.00042786
1773.06	0.000126544
1781.61	3.94368e-05
1790.17	2.26073e-05
1798.73	1.68718e-05
1807.29	1.41613e-05
1815.84	1.17414e-05
1824.4	1.11356e-05
1832.96	1.02278e-05
1841.52	8.56037e-06
1850.07	6.36202e-06
1858.63	4.91346e-06
1867.19	4.30453e-06
1875.75	4.97461e-06
1884.3	6.96318e-06
1892.86	8.30875e-06
1901.42	8.40853e-06
1909.98	9.56636e-06
1918.54	1.52729e-05
1927.09	2.49639e-05
1935.65	2.44816e-05
1944.21	1.60977e-05
1952.77	8.80487e-06
1961.32	6.84076e-06
1969.88	5.04606e-06
1978.44	4.39985e-06
1987	4.21447e-06
1995.55	3.89496e-06
2004.11	2.82699e-06
2012.67	2.79971e-06
2021.23	3.28286e-06
2029.78	4.30096e-06
2038.34	6.81684e-06
2046.9	1.22692e-05
2055.46	1.57911e-05
2064.01	1.3177e-05
2072.57	8.61133e-06
2081.13	5.80105e-06
2089.69	5.59733e-06
2098.25	5.38182e-06
2106.8	4.4852e-06
2115.36	4.25701e-06
2123.92	4.41316e-06
2132.48	4.19675e-06
2141.03	3.62245e-06
2149.59	3.11464e-06
2158.15	3.00857e-06
2166.71	2.92105e-06
2175.26	2.28582e-06
2183.82	1.57126e-06
2192.38	1.5996e-06
2200.94	1.59345e-06
2209.49	1.49297e-06
2218.05	1.53767e-06
2226.61	1.75761e-06
2235.17	1.87864e-06
2243.72	1.82491e-06
2252.28	1.85324e-06
2260.84	1.86416e-06
2269.4	1.9152e-06
2277.96	1.88812e-06
2286.51	1.87395e-06
2295.07	1.99442e-06
2303.63	2.44223e-06
2312.19	3.02423e-06
2320.74	3.0688e-06
2329.3	2.86216e-06
2337.86	2.31502e-06
2346.42	1.93834e-06
2354.97	2.51713e-06
2363.53	3.68839e-06
2372.09	5.09595e-06
2380.65	6.67592e-06
2389.2	7.19456e-06
2397.76	5.25117e-06
2406.32	3.33624e-06
2414.88	2.76156e-06
2423.44	2.54933e-06
2431.99	2.00796e-06
2440.55	1.43112e-06
2449.11	1.2979e-06
2457.67	1.39876e-06
2466.22	1.91417e-06
2474.78	2.54885e-06
2483.34	2.77744e-06
2491.9	2.56677e-06
2500.45	2.25222e-06
2509.01	1.61862e-06
2517.57	1.29576e-06
2526.13	1.48371e-06
2534.68	1.70684e-06
2543.24	1.99961e-06
2551.8	2.03139e-06
2560.36	1.80491e-06
2568.91	1.45263e-06
2577.47	9.80875e-07
2586.03	1.11777e-06
2594.59	1.50663e-06
2603.15	1.79471e-06
2611.7	1.79147e-06
2620.26	1.52366e-06
2628.82	1.34317e-06
2637.38	1.23129e-06
2645.93	1.41299e-06
2654.49	1.69672e-06
2663.05	2.00583e-06
2671.61	2.06021e-06
2680.16	1.9363e-06
2688.72	1.93041e-06
2697.28	2.50533e-06
2705.84	2.98819e-06
2714.39	2.72604e-06
2722.95	2.67362e-06
2731.51	2.84158e-06
2740.07	2.64992e-06
2748.62	2.70712e-06
2757.18	2.88742e-06
2765.74	3.78032e-06
2774.3	4.05173e-06
2782.86	3.16734e-06
2791.41	2.73139e-06
2799.97	3.14603e-06
2808.53	3.72555e-06
2817.09	5.26809e-06
2825.64	6.50889e-06
2834.2	6.80924e-06
2842.76	6.7629e-06
2851.32	7.37299e-06
2859.87	8.46542e-06
2868.43	1.12567e-05
2876.99	2.34116e-05
2885.55	3.76764e-05
2894.1	4.41045e-05
2902.66	4.79935e-05
2911.22	5.98981e-05
2919.78	5.76101e-05
2928.34	5.51029e-05
2936.89	7.18243e-05
2945.45	9.67839e-05
2954.01	0.000102233
2962.57	9.66135e-05
2971.12	0.000115143
2979.68	0.000201055
2988.24	0.00026244
2996.8	0.000283083
3005.35	0.000168255
3013.91	9.79769e-05
3022.47	4.21169e-05
3031.03	2.47037e-05
3039.58	2.91034e-05
3048.14	3.35945e-05
3056.7	2.93687e-05
3065.26	1.19718e-05
3073.81	1.22338e-05
3082.37	1.31673e-05
3090.93	1.21907e-05
3099.49	9.98728e-06
3108.05	2.8807e-05
3116.6	2.40714e-05
3125.16	1.34964e-05
3133.72	4.9184e-06
3142.28	3.78365e-06
3150.83	3.81185e-06
3159.39	3.70407e-06
3167.95	3.11213e-06
3176.51	2.7376e-06
3185.06	2.31156e-06
3193.62	1.98715e-06
3202.18	1.7916e-06
3210.74	1.54512e-06
3219.29	1.65865e-06
3227.85	1.81234e-06
3236.41	2.02314e-06
3244.97	1.8392e-06
3253.52	1.54354e-06
3262.08	7.29237e-07
3270.64	3.52579e-07
3279.2	1.0208e-07
3287.76	8.55029e-08
3296.31	-7.76234e-08
3304.87	-1.22448e-08
3313.43	1.90737e-07
3321.99	5.39646e-07
3330.54	5.57627e-07
3339.1	5.84383e-07
3347.66	9.07042e-07
3356.22	1.22121e-06
3364.77	1.55344e-06
3373.33	1.55591e-06
3381.89	1.63823e-06
3390.45	1.82503e-06
3399	1.26334e-06
3407.56	4.53223e-07
3416.12	3.92388e-07
3424.68	2.52216e-07
3433.23	4.71102e-07
3441.79	4.85894e-07
3450.35	8.37316e-07
3458.91	3.07576e-06
3467.47	7.99757e-06
3476.02	1.20698e-05
3484.58	1.24776e-05
3493.14	6.47499e-06
3501.7	1.47461e-06
3510.25	1.1359e-07
3518.81	-3.89925e-07
3527.37	-3.72995e-07
3535.93	-1.96488e-07
3544.48	-1.51038e-07
3553.04	-2.19745e-07
3561.6	1.03404e-07
3570.16	1.50394e-07
3578.71	1.65484e-08
3587.27	1.53806e-08
3595.83	1.30219e-07
3604.39	7.36218e-08
3612.95	2.02807e-08
3621.5	2.3773e-08
3630.06	1.49605e-07
3638.62	1.41139e-07
3647.18	5.24935e-08
3655.73	-7.23013e-08
3664.29	1.20458e-07
3672.85	-5.5913e-09
3681.41	-1.77124e-08
3689.96	2.69561e-09
3698.52	-1.86874e-08
3707.08	1.05853e-07
3715.64	1.4429e-07
3724.19	2.54228e-07
3732.75	4.59159e-07
3741.31	3.69455e-07
3749.87	3.85327e-07
3758.42	4.00671e-07
3766.98	4.84653e-07
3775.54	6.16953e-07
3784.1	5.46849e-07
3792.66	4.83682e-07
3801.21	3.58429e-07
3809.77	2.29705e-07
3818.33	2.49615e-07
3826.89	3.47908e-07
3835.44	3.4797e-07
3844	3.12382e-07
3852.56	4.25619e-07
3861.12	2.69696e-07
3869.67	1.84102e-07
3878.23	3.00777e-07
3886.79	3.637e-07
3895.35	3.06168e-07
3903.9	2.90966e-07
3912.46	3.7477e-07
3921.02	2.29356e-07
3929.58	9.49138e-08
3938.13	1.25777e-07
3946.69	3.52081e-07
3955.25	3.64617e-07
3963.81	4.91474e-07
3972.37	6.70974e-07
