Infrared Spectrum: Ethyl Ester-Propenoic Acid
Formula: C H2: C H C O2 C2 H5
CAS: 140-88-5
State: gas
Melting point: -71.2 C
Boiling point: 99.8 C
Class: IUPAC A
Instrument: IFS66V (Bruker)
Instrument parameters: KBr Beam splitter; MCT Detector; Multipass cell
Sampling: 1 L/min Flow
Resolution: 0.2410
Temperature: 23 C
Pressure: 101.3 kPa
Origin: NIST, Anayltical Chemistry Division, 301-975-3108
cm-1	(micromol/mol)-1m-1 (base 10)
575.048	4.34495e-07
583.606	8.42682e-07
592.163	1.239e-06
600.721	3.79712e-06
609.279	7.31743e-06
617.836	7.79769e-06
626.394	4.35441e-06
634.951	2.45137e-06
643.509	5.41202e-06
652.067	1.32413e-05
660.624	2.02003e-05
669.182	2.12316e-05
677.74	1.21994e-05
686.297	4.94466e-06
694.855	1.70632e-06
703.412	7.29935e-07
711.97	8.12135e-07
720.528	9.57022e-07
729.085	1.00327e-06
737.643	1.71636e-06
746.201	1.82959e-06
754.758	2.40976e-06
763.316	3.30412e-06
771.873	6.45557e-06
780.431	1.56019e-05
788.989	3.56921e-05
797.546	6.9325e-05
806.104	0.000111798
814.662	0.000128684
823.219	8.14861e-05
831.777	4.10535e-05
840.334	2.19574e-05
848.892	2.99448e-05
857.45	4.18681e-05
866.007	4.03756e-05
874.565	2.48811e-05
883.123	1.34498e-05
891.68	1.56201e-05
900.238	2.1608e-05
908.795	2.51917e-05
917.353	2.1865e-05
925.911	1.89961e-05
934.468	1.32253e-05
943.026	2.50799e-05
951.584	6.25993e-05
960.141	0.000115161
968.699	0.000159764
977.256	0.000164619
985.814	0.000185456
994.372	0.000125033
1002.93	7.33276e-05
1011.49	3.84934e-05
1020.04	5.31461e-05
1028.6	0.000139802
1037.16	0.000198013
1045.72	0.00017742
1054.28	0.000160682
1062.83	0.000290359
1071.39	0.000324864
1079.95	0.000202595
1088.51	0.000108615
1097.06	0.000113322
1105.62	0.00010717
1114.18	7.149e-05
1122.74	4.75303e-05
1131.29	3.51172e-05
1139.85	3.1322e-05
1148.41	3.74589e-05
1156.97	5.83497e-05
1165.52	0.000121448
1174.08	0.000266165
1182.64	0.000749763
1191.2	0.00188261
1199.75	0.00206941
1208.31	0.000883886
1216.87	0.000296089
1225.43	0.000129534
1233.99	8.89883e-05
1242.54	7.96269e-05
1251.1	9.30821e-05
1259.66	0.000257639
1268.22	0.00056345
1276.77	0.000661374
1285.33	0.000408721
1293.89	0.000400434
1302.45	0.000412977
1311	0.000227075
1319.56	8.63331e-05
1328.12	3.73417e-05
1336.68	1.84568e-05
1345.23	1.46448e-05
1353.79	1.59941e-05
1362.35	2.99205e-05
1370.91	4.29991e-05
1379.46	7.08416e-05
1388.02	0.000134338
1396.58	0.00021461
1405.14	0.000416069
1413.7	0.000437198
1422.25	0.000218197
1430.81	5.80368e-05
1439.37	4.9827e-05
1447.93	5.91336e-05
1456.48	6.90486e-05
1465.04	7.78146e-05
1473.6	7.47982e-05
1482.16	5.91394e-05
1490.71	3.86336e-05
1499.27	2.4343e-05
1507.83	1.67798e-05
1516.39	1.35339e-05
1524.94	1.06832e-05
1533.5	8.02362e-06
1542.06	6.86801e-06
1550.62	6.74543e-06
1559.18	8.04893e-06
1567.73	8.67995e-06
1576.29	8.26667e-06
1584.85	8.46403e-06
1593.41	9.41112e-06
1601.96	1.31189e-05
1610.52	2.47068e-05
1619.08	4.61297e-05
1627.64	6.09949e-05
1636.19	0.000109108
1644.75	9.51509e-05
1653.31	4.40711e-05
1661.87	1.29588e-05
1670.42	1.09622e-05
1678.98	1.24145e-05
1687.54	1.49347e-05
1696.1	2.04564e-05
1704.65	2.80782e-05
1713.21	4.42564e-05
1721.77	9.60215e-05
1730.33	0.000298763
1738.89	0.000810568
1747.44	0.00100323
1756	0.00107042
1764.56	0.000424402
1773.12	0.000124864
1781.67	3.88881e-05
1790.23	2.23456e-05
1798.79	1.67e-05
1807.35	1.40873e-05
1815.9	1.16467e-05
1824.46	1.11147e-05
1833.02	1.0147e-05
1841.58	8.50213e-06
1850.13	6.30933e-06
1858.69	4.91719e-06
1867.25	4.27022e-06
1875.81	4.9865e-06
1884.36	6.98976e-06
1892.92	8.28163e-06
1901.48	8.38069e-06
1910.04	9.57723e-06
1918.6	1.5303e-05
1927.15	2.50464e-05
1935.71	2.44205e-05
1944.27	1.60026e-05
1952.83	8.7854e-06
1961.38	6.8046e-06
1969.94	5.05394e-06
1978.5	4.37782e-06
1987.06	4.22387e-06
1995.61	3.86252e-06
2004.17	2.82564e-06
2012.73	2.77735e-06
2021.29	3.26572e-06
2029.84	4.34183e-06
2038.4	6.84229e-06
2046.96	1.22976e-05
2055.52	1.58082e-05
2064.08	1.31527e-05
2072.63	8.54006e-06
2081.19	5.85573e-06
2089.75	5.58106e-06
2098.31	5.35216e-06
2106.86	4.51804e-06
2115.42	4.27682e-06
2123.98	4.39777e-06
2132.54	4.21118e-06
2141.09	3.61659e-06
2149.65	3.08807e-06
2158.21	2.99172e-06
2166.77	2.9668e-06
2175.32	2.27921e-06
2183.88	1.58698e-06
2192.44	1.57773e-06
2201	1.59201e-06
2209.55	1.49918e-06
2218.11	1.49462e-06
2226.67	1.75852e-06
2235.23	1.85875e-06
2243.79	1.82936e-06
2252.34	1.86017e-06
2260.9	1.86454e-06
2269.46	1.92867e-06
2278.02	1.85476e-06
2286.57	1.85509e-06
2295.13	1.98868e-06
2303.69	2.45788e-06
2312.25	2.9857e-06
2320.8	3.08711e-06
2329.36	2.85317e-06
2337.92	2.30701e-06
2346.48	1.91151e-06
2355.03	2.53211e-06
2363.59	3.68352e-06
2372.15	5.13821e-06
2380.71	6.69261e-06
2389.26	7.19512e-06
2397.82	5.17183e-06
2406.38	3.3133e-06
2414.94	2.78397e-06
2423.5	2.56197e-06
2432.05	1.99399e-06
2440.61	1.44637e-06
2449.17	1.28839e-06
2457.73	1.39116e-06
2466.28	1.90914e-06
2474.84	2.52483e-06
2483.4	2.79248e-06
2491.96	2.54834e-06
2500.51	2.23478e-06
2509.07	1.61087e-06
2517.63	1.32998e-06
2526.19	1.45581e-06
2534.74	1.72668e-06
2543.3	1.99861e-06
2551.86	2.03734e-06
2560.42	1.8259e-06
2568.98	1.42389e-06
2577.53	1.00366e-06
2586.09	1.08989e-06
2594.65	1.47831e-06
2603.21	1.77745e-06
2611.76	1.7515e-06
2620.32	1.53961e-06
2628.88	1.31706e-06
2637.44	1.23366e-06
2645.99	1.49486e-06
2654.55	1.71111e-06
2663.11	2.01384e-06
2671.67	2.03612e-06
2680.22	1.92914e-06
2688.78	1.92711e-06
2697.34	2.50375e-06
2705.9	2.97826e-06
2714.45	2.74336e-06
2723.01	2.63451e-06
2731.57	2.79749e-06
2740.13	2.67946e-06
2748.69	2.74521e-06
2757.24	2.93092e-06
2765.8	3.84628e-06
2774.36	3.97734e-06
2782.92	3.13878e-06
2791.47	2.77287e-06
2800.03	3.14175e-06
2808.59	3.76497e-06
2817.15	5.20685e-06
2825.7	6.4319e-06
2834.26	6.87924e-06
2842.82	6.73859e-06
2851.38	7.37151e-06
2859.93	8.47965e-06
2868.49	1.12169e-05
2877.05	2.35781e-05
2885.61	3.78177e-05
2894.16	4.41917e-05
2902.72	4.80513e-05
2911.28	5.99889e-05
2919.84	5.75155e-05
2928.4	5.51014e-05
2936.95	7.21609e-05
2945.51	9.68494e-05
2954.07	0.000102048
2962.63	9.66935e-05
2971.18	0.000115244
2979.74	0.000202034
2988.3	0.000262793
2996.86	0.000281426
3005.41	0.000167627
3013.97	9.75154e-05
3022.53	4.17866e-05
3031.09	2.46406e-05
3039.64	2.91882e-05
3048.2	3.35416e-05
3056.76	2.91537e-05
3065.32	1.19576e-05
3073.88	1.2279e-05
3082.43	1.31056e-05
3090.99	1.20716e-05
3099.55	9.94274e-06
3108.11	2.89071e-05
3116.66	2.40613e-05
3125.22	1.33369e-05
3133.78	4.77761e-06
3142.34	3.73786e-06
3150.89	3.8764e-06
3159.45	3.77495e-06
3168.01	3.12797e-06
3176.57	2.66014e-06
3185.12	2.35365e-06
3193.68	1.89895e-06
3202.24	1.77676e-06
3210.8	1.60523e-06
3219.35	1.67442e-06
3227.91	1.84128e-06
3236.47	1.93539e-06
3245.03	1.92619e-06
3253.59	1.44673e-06
3262.14	7.56946e-07
3270.7	3.31105e-07
3279.26	-2.50826e-08
3287.82	3.49229e-10
3296.37	-9.95993e-08
3304.93	-9.16726e-09
3313.49	1.59136e-07
3322.05	4.20071e-07
3330.6	6.28615e-07
3339.16	6.41995e-07
3347.72	8.86332e-07
3356.28	1.23298e-06
3364.83	1.55313e-06
3373.39	1.57169e-06
3381.95	1.59588e-06
3390.51	1.7421e-06
3399.06	1.18554e-06
3407.62	3.95553e-07
3416.18	3.75523e-07
3424.74	2.18232e-07
3433.3	3.45784e-07
3441.85	4.30883e-07
3450.41	8.5286e-07
3458.97	3.1846e-06
3467.53	8.02898e-06
3476.08	1.20744e-05
3484.64	1.24216e-05
3493.2	6.42869e-06
3501.76	1.59846e-06
3510.31	1.61373e-08
3518.87	-4.45303e-07
3527.43	-3.70292e-07
3535.99	-2.23881e-07
3544.54	-2.07118e-07
3553.1	-1.98562e-07
3561.66	9.91228e-08
3570.22	1.41045e-07
3578.78	-3.97029e-08
3587.33	-9.63289e-09
3595.89	6.62698e-08
3604.45	8.53173e-08
3613.01	-3.39589e-08
3621.56	1.6843e-09
3630.12	1.192e-07
3638.68	1.71548e-07
3647.24	-3.82842e-08
3655.79	-3.0663e-08
3664.35	1.14711e-07
3672.91	-2.22997e-09
3681.47	8.25126e-08
3690.02	6.48256e-09
3698.58	1.71304e-08
3707.14	9.73184e-08
3715.7	1.77121e-07
3724.25	2.39749e-07
3732.81	3.22749e-07
3741.37	3.23106e-07
3749.93	3.1858e-07
3758.49	3.84916e-07
3767.04	5.73692e-07
3775.6	5.70229e-07
3784.16	5.10904e-07
3792.72	5.05287e-07
3801.27	3.73879e-07
3809.83	2.21342e-07
3818.39	2.45493e-07
3826.95	2.85167e-07
3835.5	3.78208e-07
3844.06	3.40698e-07
3852.62	3.93832e-07
3861.18	3.0101e-07
3869.73	2.29938e-07
3878.29	2.00908e-07
3886.85	2.96404e-07
3895.41	3.33182e-07
3903.96	3.25361e-07
3912.52	4.09285e-07
3921.08	2.72118e-07
3929.64	1.45417e-07
3938.2	1.83218e-07
3946.75	2.4267e-07
3955.31	4.10973e-07
3963.87	5.14214e-07
3972.43	6.24377e-07
