Infrared Spectrum: Ethyl Ester-Propenoic Acid
Formula: C H2: C H C O2 C2 H5
CAS: 140-88-5
State: gas
Melting point: -71.2 C
Boiling point: 99.8 C
Class: IUPAC A
Instrument: IFS66V (Bruker)
Instrument parameters: KBr Beam splitter; MCT Detector; Multipass cell
Sampling: 1 L/min Flow
Resolution: 0.9640
Temperature: 23 C
Pressure: 101.3 kPa
Origin: NIST, Anayltical Chemistry Division, 301-975-3108
cm-1	(micromol/mol)-1m-1 (base 10)
575.169	4.647e-07
583.847	7.63207e-07
592.525	1.12219e-06
601.203	4.01416e-06
609.882	8.43195e-06
618.56	7.44081e-06
627.238	4.13174e-06
635.916	2.84115e-06
644.594	6.10625e-06
653.272	1.46991e-05
661.951	2.06285e-05
670.629	1.98527e-05
679.307	1.1455e-05
687.985	3.99435e-06
696.663	1.46352e-06
705.341	7.94714e-07
714.019	8.52879e-07
722.698	1.05794e-06
731.376	1.28922e-06
740.054	1.56146e-06
748.732	2.02976e-06
757.41	2.62627e-06
766.088	4.00987e-06
774.767	8.73074e-06
783.445	2.08217e-05
792.123	4.65375e-05
800.801	8.41733e-05
809.479	0.000120926
818.157	0.000112002
826.835	6.37914e-05
835.514	2.86859e-05
844.192	2.29666e-05
852.87	3.7297e-05
861.548	4.28556e-05
870.226	3.30884e-05
878.904	1.74335e-05
887.583	1.28015e-05
896.261	1.98188e-05
904.939	2.35843e-05
913.617	2.52551e-05
922.295	1.99969e-05
930.973	1.3476e-05
939.651	1.76314e-05
948.33	4.58058e-05
957.008	9.11253e-05
965.686	0.00014538
974.364	0.000160743
983.042	0.000162278
991.72	0.000158837
1000.4	8.91345e-05
1009.08	4.38291e-05
1017.75	4.30957e-05
1026.43	0.000112909
1035.11	0.000193909
1043.79	0.00019906
1052.47	0.00014897
1061.15	0.00026967
1069.82	0.000337714
1078.5	0.000237311
1087.18	0.000114007
1095.86	0.000113588
1104.54	0.000108768
1113.21	7.63716e-05
1121.89	4.79975e-05
1130.57	3.63434e-05
1139.25	3.11232e-05
1147.93	3.69148e-05
1156.61	5.69209e-05
1165.28	0.000118566
1173.96	0.00026354
1182.64	0.000750579
1191.32	0.00188914
1200	0.00207658
1208.67	0.000839268
1217.35	0.000278297
1226.03	0.000124556
1234.71	8.80558e-05
1243.39	7.89678e-05
1252.07	9.97598e-05
1260.74	0.000298803
1269.42	0.000601986
1278.1	0.000643999
1286.78	0.000369963
1295.46	0.000420718
1304.13	0.000451412
1312.81	0.000180139
1321.49	7.05103e-05
1330.17	3.09469e-05
1338.85	1.67976e-05
1347.52	1.44482e-05
1356.2	1.82157e-05
1364.88	3.31955e-05
1373.56	4.84604e-05
1382.24	9.0891e-05
1390.92	0.000149579
1399.59	0.000272659
1408.27	0.000435374
1416.95	0.000398532
1425.63	0.000115425
1434.31	4.97488e-05
1442.98	5.36254e-05
1451.66	6.63647e-05
1460.34	7.1907e-05
1469.02	7.88607e-05
1477.7	7.16835e-05
1486.38	4.13864e-05
1495.05	3.1375e-05
1503.73	1.97501e-05
1512.41	1.47865e-05
1521.09	1.19578e-05
1529.77	9.09179e-06
1538.44	7.17834e-06
1547.12	6.64641e-06
1555.8	7.42188e-06
1564.48	8.41679e-06
1573.16	8.47255e-06
1581.83	8.28397e-06
1590.51	8.93325e-06
1599.19	1.14689e-05
1607.87	1.99252e-05
1616.55	3.96784e-05
1625.23	5.35426e-05
1633.9	9.28004e-05
1642.58	0.000101459
1651.26	7.21484e-05
1659.94	1.43576e-05
1668.62	1.10487e-05
1677.29	1.20129e-05
1685.97	1.41813e-05
1694.65	1.91363e-05
1703.33	2.77446e-05
1712.01	4.13965e-05
1720.69	8.39236e-05
1729.36	0.000263722
1738.04	0.000744284
1746.72	0.00102977
1755.4	0.00110872
1764.08	0.000450832
1772.75	0.000132196
1781.43	3.98773e-05
1790.11	2.24393e-05
1798.79	1.67207e-05
1807.47	1.40161e-05
1816.15	1.16322e-05
1824.82	1.10621e-05
1833.5	9.99915e-06
1842.18	8.32043e-06
1850.86	6.149e-06
1859.54	4.83151e-06
1868.21	4.26741e-06
1876.89	5.19298e-06
1885.57	7.29706e-06
1894.25	8.4003e-06
1902.93	8.27391e-06
1911.6	1.02975e-05
1920.28	1.6838e-05
1928.96	2.73682e-05
1937.64	2.30398e-05
1946.32	1.27281e-05
1955	8.78928e-06
1963.67	6.09336e-06
1972.35	4.87404e-06
1981.03	4.35915e-06
1989.71	4.09393e-06
1998.39	3.38978e-06
2007.06	2.76275e-06
2015.74	2.93282e-06
2024.42	3.56321e-06
2033.1	4.97292e-06
2041.78	8.74318e-06
2050.46	1.40134e-05
2059.13	1.60277e-05
2067.81	1.10175e-05
2076.49	7.02301e-06
2085.17	5.5567e-06
2093.85	5.55468e-06
2102.52	5.00522e-06
2111.2	4.26599e-06
2119.88	4.38684e-06
2128.56	4.42425e-06
2137.24	3.93457e-06
2145.91	3.27915e-06
2154.59	2.96782e-06
2163.27	3.13399e-06
2171.95	2.59189e-06
2180.63	1.71251e-06
2189.31	1.57718e-06
2197.98	1.61778e-06
2206.66	1.49143e-06
2215.34	1.43603e-06
2224.02	1.6995e-06
2232.7	1.82838e-06
2241.37	1.83363e-06
2250.05	1.86076e-06
2258.73	1.843e-06
2267.41	1.94764e-06
2276.09	1.90904e-06
2284.77	1.84111e-06
2293.44	1.9402e-06
2302.12	2.3732e-06
2310.8	2.91523e-06
2319.48	3.09401e-06
2328.16	2.89188e-06
2336.83	2.31404e-06
2345.51	1.94473e-06
2354.19	2.45988e-06
2362.87	3.64104e-06
2371.55	5.04288e-06
2380.23	6.63305e-06
2388.9	7.1958e-06
2397.58	5.28824e-06
2406.26	3.35706e-06
2414.94	2.79922e-06
2423.62	2.57719e-06
2432.29	1.98951e-06
2440.97	1.43514e-06
2449.65	1.22627e-06
2458.33	1.3565e-06
2467.01	1.99327e-06
2475.68	2.55124e-06
2484.36	2.7102e-06
2493.04	2.50405e-06
2501.72	2.15034e-06
2510.4	1.57714e-06
2519.08	1.31805e-06
2527.75	1.46919e-06
2536.43	1.84989e-06
2545.11	2.06962e-06
2553.79	2.06079e-06
2562.47	1.68611e-06
2571.14	1.26397e-06
2579.82	9.41503e-07
2588.5	1.1671e-06
2597.18	1.57403e-06
2605.86	1.7915e-06
2614.54	1.70011e-06
2623.21	1.38101e-06
2631.89	1.22094e-06
2640.57	1.32587e-06
2649.25	1.55928e-06
2657.93	1.83432e-06
2666.6	2.01196e-06
2675.28	2.01604e-06
2683.96	1.89331e-06
2692.64	2.08228e-06
2701.32	2.77087e-06
2709.99	2.95441e-06
2718.67	2.57601e-06
2727.35	2.65761e-06
2736.03	2.87713e-06
2744.71	2.60078e-06
2753.39	2.82676e-06
2762.06	3.40001e-06
2770.74	4.05928e-06
2779.42	3.70168e-06
2788.1	2.74105e-06
2796.78	2.96272e-06
2805.45	3.47994e-06
2814.13	4.50964e-06
2822.81	6.29214e-06
2831.49	6.80789e-06
2840.17	6.76457e-06
2848.85	7.19542e-06
2857.52	8.2123e-06
2866.2	1.01744e-05
2874.88	1.85941e-05
2883.56	3.63065e-05
2892.24	4.41092e-05
2900.91	4.55087e-05
2909.59	5.81014e-05
2918.27	5.91928e-05
2926.95	5.62128e-05
2935.63	6.64306e-05
2944.31	9.55254e-05
2952.98	0.000103242
2961.66	9.5017e-05
2970.34	0.000112422
2979.02	0.000193218
2987.7	0.000261626
2996.37	0.000299228
3005.05	0.000171473
3013.73	9.97331e-05
3022.41	4.22416e-05
3031.09	2.46114e-05
3039.76	2.94466e-05
3048.44	3.36159e-05
3057.12	2.81775e-05
3065.8	1.17087e-05
3074.48	1.24906e-05
3083.16	1.28247e-05
3091.83	1.15872e-05
3100.51	1.07629e-05
3109.19	2.89985e-05
3117.87	2.72882e-05
3126.55	1.02755e-05
3135.22	4.39667e-06
3143.9	3.67474e-06
3152.58	3.90722e-06
3161.26	3.62297e-06
3169.94	3.10441e-06
3178.62	2.6459e-06
3187.29	2.29164e-06
3195.97	1.95191e-06
3204.65	1.76433e-06
3213.33	1.64666e-06
3222.01	1.69136e-06
3230.68	1.84621e-06
3239.36	1.92071e-06
3248.04	1.74105e-06
3256.72	1.20773e-06
3265.4	5.71109e-07
3274.07	1.78663e-07
3282.75	1.67957e-08
3291.43	-7.11736e-08
3300.11	-9.76386e-08
3308.79	1.11295e-07
3317.47	3.76247e-07
3326.14	4.96414e-07
3334.82	6.12766e-07
3343.5	7.65808e-07
3352.18	1.05668e-06
3360.86	1.47298e-06
3369.53	1.59911e-06
3378.21	1.58549e-06
3386.89	1.89206e-06
3395.57	1.54871e-06
3404.25	6.16571e-07
3412.93	3.35602e-07
3421.6	2.57334e-07
3430.28	2.40422e-07
3438.96	3.18311e-07
3447.64	6.64451e-07
3456.32	2.22694e-06
3464.99	6.38675e-06
3473.67	1.15835e-05
3482.35	1.26519e-05
3491.03	8.04289e-06
3499.71	2.47123e-06
3508.39	1.48455e-07
3517.06	-4.36976e-07
3525.74	-4.59574e-07
3534.42	-4.91038e-07
3543.1	-3.01723e-07
3551.78	-1.15693e-07
3560.45	1.16457e-07
3569.13	1.69059e-07
3577.81	7.54152e-08
3586.49	-1.00731e-08
3595.17	9.55395e-08
3603.84	7.53279e-08
3612.52	1.1944e-07
3621.2	6.22246e-08
3629.88	7.47059e-08
3638.56	8.45206e-08
3647.24	-1.4955e-08
3655.91	7.89112e-08
3664.59	1.35654e-08
3673.27	1.44202e-08
3681.95	3.55268e-08
3690.63	1.73378e-08
3699.3	4.18638e-08
3707.98	6.81178e-08
3716.66	1.63661e-07
3725.34	2.20745e-07
3734.02	2.81493e-07
3742.7	2.75782e-07
3751.37	3.66825e-07
3760.05	5.13395e-07
3768.73	5.53113e-07
3777.41	6.13671e-07
3786.09	5.35077e-07
3794.76	3.77829e-07
3803.44	3.36991e-07
3812.12	2.63733e-07
3820.8	2.45773e-07
3829.48	2.60281e-07
3838.16	3.75654e-07
3846.83	3.67847e-07
3855.51	2.70991e-07
3864.19	2.59353e-07
3872.87	2.03935e-07
3881.55	2.51576e-07
3890.22	3.14404e-07
3898.9	3.60637e-07
3907.58	3.30436e-07
3916.26	3.08897e-07
3924.94	2.46734e-07
3933.61	2.3474e-07
3942.29	1.8775e-07
3950.97	3.38657e-07
3959.65	3.73253e-07
3968.33	5.238e-07
