Infrared Spectrum: Ethyl Ester-Propenoic Acid
Formula: C H2: C H C O2 C2 H5
CAS: 140-88-5
State: gas
Melting point: -71.2 C
Boiling point: 99.8 C
Class: IUPAC A
Instrument: IFS66V (Bruker)
Instrument parameters: KBr Beam splitter; MCT Detector; Multipass cell
Sampling: 1 L/min Flow
Resolution: 0.4820
Temperature: 23 C
Pressure: 101.3 kPa
Origin: NIST, Anayltical Chemistry Division, 301-975-3108
cm-1	(micromol/mol)-1m-1 (base 10)
574.928	5.80138e-07
583.606	9.58066e-07
592.284	1.06748e-06
600.962	3.73975e-06
609.641	7.82486e-06
618.319	7.56807e-06
626.997	4.16088e-06
635.675	2.90295e-06
644.353	6.03997e-06
653.031	1.44151e-05
661.71	2.0398e-05
670.388	2.004e-05
679.066	1.16304e-05
687.744	4.09591e-06
696.422	1.4846e-06
705.1	8.6472e-07
713.778	8.42987e-07
722.457	1.11626e-06
731.135	1.27566e-06
739.813	1.5401e-06
748.491	2.05819e-06
757.169	2.69666e-06
765.847	4.04612e-06
774.526	8.64425e-06
783.204	2.05572e-05
791.882	4.56423e-05
800.56	8.28566e-05
809.238	0.000119491
817.916	0.000112718
826.594	6.49732e-05
835.273	2.94877e-05
843.951	2.30096e-05
852.629	3.69325e-05
861.307	4.28515e-05
869.985	3.34851e-05
878.663	1.79139e-05
887.342	1.28235e-05
896.02	1.97351e-05
904.698	2.35378e-05
913.376	2.53938e-05
922.054	2.00652e-05
930.732	1.38409e-05
939.41	1.7584e-05
948.089	4.48518e-05
956.767	8.99794e-05
965.445	0.000141428
974.123	0.000159857
982.801	0.000162165
991.479	0.000158629
1000.16	9.08323e-05
1008.84	4.51334e-05
1017.51	4.30724e-05
1026.19	0.000110146
1034.87	0.000191871
1043.55	0.000200411
1052.23	0.000149074
1060.9	0.000265572
1069.58	0.000335512
1078.26	0.000242973
1086.94	0.000116098
1095.62	0.000113666
1104.3	0.000109189
1112.97	7.79155e-05
1121.65	4.86604e-05
1130.33	3.73136e-05
1139.01	3.17412e-05
1147.69	3.75005e-05
1156.36	5.71565e-05
1165.04	0.000117271
1173.72	0.000260522
1182.4	0.000727063
1191.08	0.00186215
1199.76	0.00205816
1208.43	0.000872098
1217.11	0.000290415
1225.79	0.000128498
1234.47	8.97949e-05
1243.15	8.03711e-05
1251.82	9.95386e-05
1260.5	0.000289969
1269.18	0.000592413
1277.86	0.0006446
1286.54	0.000376959
1295.21	0.000418224
1303.89	0.000445868
1312.57	0.00018632
1321.25	7.314e-05
1329.93	3.22687e-05
1338.61	1.74654e-05
1347.28	1.4872e-05
1355.96	1.83417e-05
1364.64	3.3355e-05
1373.32	4.81099e-05
1382	8.91491e-05
1390.67	0.000148796
1399.35	0.000267242
1408.03	0.000433352
1416.71	0.00040241
1425.39	0.000121877
1434.07	5.07518e-05
1442.74	5.36841e-05
1451.42	6.58719e-05
1460.1	7.20017e-05
1468.78	7.89114e-05
1477.46	7.19748e-05
1486.13	4.22987e-05
1494.81	3.19052e-05
1503.49	2.00877e-05
1512.17	1.49931e-05
1520.85	1.21029e-05
1529.52	9.27953e-06
1538.2	7.30086e-06
1546.88	6.73362e-06
1555.56	7.47608e-06
1564.24	8.43492e-06
1572.92	8.60512e-06
1581.59	8.35988e-06
1590.27	9.01375e-06
1598.95	1.14982e-05
1607.63	1.96748e-05
1616.31	3.90653e-05
1624.98	5.31294e-05
1633.66	9.07545e-05
1642.34	0.000103312
1651.02	7.5449e-05
1659.7	1.49644e-05
1668.38	1.1329e-05
1677.05	1.22076e-05
1685.73	1.4396e-05
1694.41	1.93124e-05
1703.09	2.80805e-05
1711.77	4.15561e-05
1720.44	8.28429e-05
1729.12	0.00025693
1737.8	0.000724196
1746.48	0.001036
1755.16	0.00111461
1763.84	0.000464805
1772.51	0.000138827
1781.19	4.19873e-05
1789.87	2.32849e-05
1798.55	1.72421e-05
1807.23	1.43843e-05
1815.9	1.18779e-05
1824.58	1.12603e-05
1833.26	1.01564e-05
1841.94	8.50033e-06
1850.62	6.28844e-06
1859.29	4.93929e-06
1867.97	4.38287e-06
1876.65	5.2259e-06
1885.33	7.27903e-06
1894.01	8.43547e-06
1902.69	8.35207e-06
1911.36	1.02395e-05
1920.04	1.66406e-05
1928.72	2.70656e-05
1937.4	2.30766e-05
1946.08	1.31204e-05
1954.75	8.8113e-06
1963.43	6.17742e-06
1972.11	4.91251e-06
1980.79	4.40015e-06
1989.47	4.14997e-06
1998.15	3.45367e-06
2006.82	2.79782e-06
2015.5	2.92975e-06
2024.18	3.5744e-06
2032.86	4.95085e-06
2041.54	8.62146e-06
2050.21	1.38851e-05
2058.89	1.60116e-05
2067.57	1.11453e-05
2076.25	7.12373e-06
2084.93	5.58411e-06
2093.6	5.56432e-06
2102.28	5.04729e-06
2110.96	4.29616e-06
2119.64	4.37921e-06
2128.32	4.42214e-06
2137	3.97681e-06
2145.67	3.30903e-06
2154.35	2.99407e-06
2163.03	3.12642e-06
2171.71	2.60547e-06
2180.39	1.74294e-06
2189.06	1.61617e-06
2197.74	1.61177e-06
2206.42	1.5066e-06
2215.1	1.433e-06
2223.78	1.71931e-06
2232.46	1.84166e-06
2241.13	1.8492e-06
2249.81	1.8815e-06
2258.49	1.85477e-06
2267.17	1.95247e-06
2275.85	1.93364e-06
2284.52	1.84434e-06
2293.2	1.93393e-06
2301.88	2.37022e-06
2310.56	2.88962e-06
2319.24	3.11132e-06
2327.92	2.91485e-06
2336.59	2.32226e-06
2345.27	1.94551e-06
2353.95	2.40811e-06
2362.63	3.63376e-06
2371.31	5.01284e-06
2379.98	6.59565e-06
2388.66	7.18604e-06
2397.34	5.37385e-06
2406.02	3.4298e-06
2414.7	2.81732e-06
2423.37	2.58663e-06
2432.05	2.00386e-06
2440.73	1.46032e-06
2449.41	1.2381e-06
2458.09	1.38614e-06
2466.77	1.98457e-06
2475.44	2.5496e-06
2484.12	2.73158e-06
2492.8	2.51841e-06
2501.48	2.15755e-06
2510.16	1.5967e-06
2518.83	1.35195e-06
2527.51	1.42951e-06
2536.19	1.84193e-06
2544.87	2.06289e-06
2553.55	2.06381e-06
2562.23	1.71008e-06
2570.9	1.27653e-06
2579.58	9.5676e-07
2588.26	1.16458e-06
2596.94	1.57275e-06
2605.62	1.78794e-06
2614.29	1.7343e-06
2622.97	1.42335e-06
2631.65	1.25132e-06
2640.33	1.33357e-06
2649.01	1.5754e-06
2657.68	1.84119e-06
2666.36	2.03372e-06
2675.04	2.00156e-06
2683.72	1.88361e-06
2692.4	2.04142e-06
2701.08	2.71775e-06
2709.75	2.91083e-06
2718.43	2.58585e-06
2727.11	2.68374e-06
2735.79	2.85485e-06
2744.47	2.61664e-06
2753.14	2.84079e-06
2761.82	3.38825e-06
2770.5	4.07865e-06
2779.18	3.75274e-06
2787.86	2.79029e-06
2796.54	2.95669e-06
2805.21	3.48841e-06
2813.89	4.50345e-06
2822.57	6.25031e-06
2831.25	6.79461e-06
2839.93	6.78243e-06
2848.6	7.17688e-06
2857.28	8.20999e-06
2865.96	1.01297e-05
2874.64	1.82632e-05
2883.32	3.61758e-05
2892	4.39745e-05
2900.67	4.53481e-05
2909.35	5.77152e-05
2918.03	5.94853e-05
2926.71	5.64369e-05
2935.39	6.55572e-05
2944.06	9.52477e-05
2952.74	0.000103436
2961.42	9.51534e-05
2970.1	0.000111981
2978.78	0.000190042
2987.45	0.000260704
2996.13	0.000306852
3004.81	0.000173987
3013.49	0.000102064
3022.17	4.34946e-05
3030.85	2.49841e-05
3039.52	2.90851e-05
3048.2	3.35284e-05
3056.88	2.88176e-05
3065.56	1.19677e-05
3074.24	1.2454e-05
3082.91	1.29467e-05
3091.59	1.1751e-05
3100.27	1.06004e-05
3108.95	2.89697e-05
3117.63	2.66082e-05
3126.31	1.0833e-05
3134.98	4.49614e-06
3143.66	3.73258e-06
3152.34	3.91802e-06
3161.02	3.68453e-06
3169.7	3.07779e-06
3178.37	2.67224e-06
3187.05	2.2758e-06
3195.73	2.01927e-06
3204.41	1.77517e-06
3213.09	1.61952e-06
3221.77	1.68824e-06
3230.44	1.85434e-06
3239.12	1.96961e-06
3247.8	1.72177e-06
3256.48	1.22639e-06
3265.16	5.9697e-07
3273.83	2.16438e-07
3282.51	4.61819e-08
3291.19	-9.5023e-08
3299.87	-9.59288e-08
3308.55	1.17104e-07
3317.22	3.97553e-07
3325.9	4.93166e-07
3334.58	6.42676e-07
3343.26	7.63658e-07
3351.94	1.06606e-06
3360.62	1.47631e-06
3369.29	1.63315e-06
3377.97	1.67723e-06
3386.65	1.8814e-06
3395.33	1.56811e-06
3404.01	6.63633e-07
3412.68	3.12865e-07
3421.36	2.65127e-07
3430.04	3.34074e-07
3438.72	3.03764e-07
3447.4	6.38528e-07
3456.08	2.15929e-06
3464.75	6.20828e-06
3473.43	1.14943e-05
3482.11	1.25738e-05
3490.79	8.14346e-06
3499.47	2.59883e-06
3508.14	1.82996e-07
3516.82	-4.44743e-07
3525.5	-4.02373e-07
3534.18	-4.16823e-07
3542.86	-3.18398e-07
3551.53	-9.33678e-08
3560.21	8.17486e-08
3568.89	1.85524e-07
3577.57	6.86526e-08
3586.25	-1.26523e-08
3594.93	7.80272e-08
3603.6	6.21482e-08
3612.28	1.08697e-07
3620.96	9.98649e-08
3629.64	9.42299e-08
3638.32	5.65496e-08
3646.99	-2.80838e-09
3655.67	3.92373e-08
3664.35	5.55674e-08
3673.03	4.34062e-08
3681.71	4.03505e-08
3690.39	2.27071e-08
3699.06	6.06239e-08
3707.74	7.90785e-08
3716.42	1.98482e-07
3725.1	2.39957e-07
3733.78	3.03855e-07
3742.45	2.52885e-07
3751.13	3.50186e-07
3759.81	5.84678e-07
3768.49	5.78879e-07
3777.17	6.02838e-07
3785.85	5.21231e-07
3794.52	3.97735e-07
3803.2	3.224e-07
3811.88	2.57338e-07
3820.56	2.06358e-07
3829.24	2.38196e-07
3837.91	3.78178e-07
3846.59	3.70255e-07
3855.27	3.13189e-07
3863.95	2.42936e-07
3872.63	2.2562e-07
3881.3	2.97863e-07
3889.98	3.67218e-07
3898.66	3.06452e-07
3907.34	3.23597e-07
3916.02	2.91362e-07
3924.7	2.07922e-07
3933.37	2.41066e-07
3942.05	1.86146e-07
3950.73	3.44067e-07
3959.41	4.00198e-07
3968.09	5.76762e-07
