Infrared Spectrum: Ethyl Ester-Propenoic Acid
Formula: C H2: C H C O2 C2 H5
CAS: 140-88-5
State: gas
Melting point: -71.2 C
Boiling point: 99.8 C
Class: IUPAC A
Instrument: IFS66V (Bruker)
Instrument parameters: KBr Beam splitter; MCT Detector; Multipass cell
Sampling: 1 L/min Flow
Resolution: 0.2410
Temperature: 23 C
Pressure: 101.3 kPa
Origin: NIST, Anayltical Chemistry Division, 301-975-3108
cm-1	(micromol/mol)-1m-1 (base 10)
575.048	4.37565e-07
583.606	8.38506e-07
592.163	1.23535e-06
600.721	3.7974e-06
609.279	7.31701e-06
617.836	7.79306e-06
626.394	4.35372e-06
634.951	2.44365e-06
643.509	5.41152e-06
652.067	1.32416e-05
660.624	2.0203e-05
669.182	2.12295e-05
677.74	1.22e-05
686.297	4.94339e-06
694.855	1.70419e-06
703.412	7.26436e-07
711.97	8.09843e-07
720.528	9.55093e-07
729.085	1.00234e-06
737.643	1.71848e-06
746.201	1.82729e-06
754.758	2.40961e-06
763.316	3.30417e-06
771.873	6.45363e-06
780.431	1.56019e-05
788.989	3.56917e-05
797.546	6.93229e-05
806.104	0.000111799
814.662	0.000128691
823.219	8.14837e-05
831.777	4.10556e-05
840.334	2.1957e-05
848.892	2.99451e-05
857.45	4.18686e-05
866.007	4.03757e-05
874.565	2.48815e-05
883.123	1.34507e-05
891.68	1.562e-05
900.238	2.16082e-05
908.795	2.51913e-05
917.353	2.18655e-05
925.911	1.89978e-05
934.468	1.32262e-05
943.026	2.50801e-05
951.584	6.25977e-05
960.141	0.000115156
968.699	0.000159772
977.256	0.000164618
985.814	0.000185448
994.372	0.000125031
1002.93	7.33265e-05
1011.49	3.84923e-05
1020.04	5.31449e-05
1028.6	0.000139804
1037.16	0.000198014
1045.72	0.000177421
1054.28	0.000160685
1062.83	0.000290363
1071.39	0.000324853
1079.95	0.000202595
1088.51	0.000108615
1097.06	0.000113322
1105.62	0.000107167
1114.18	7.14908e-05
1122.74	4.75287e-05
1131.29	3.51159e-05
1139.85	3.13224e-05
1148.41	3.74589e-05
1156.97	5.83494e-05
1165.52	0.000121445
1174.08	0.000266164
1182.64	0.000749761
1191.2	0.00188262
1199.75	0.0020694
1208.31	0.000883875
1216.87	0.000296085
1225.43	0.000129535
1233.99	8.89866e-05
1242.54	7.96275e-05
1251.1	9.30805e-05
1259.66	0.000257636
1268.22	0.000563442
1276.77	0.000661379
1285.33	0.000408719
1293.89	0.000400438
1302.45	0.000412972
1311	0.000227072
1319.56	8.63335e-05
1328.12	3.7342e-05
1336.68	1.84553e-05
1345.23	1.46449e-05
1353.79	1.59948e-05
1362.35	2.99201e-05
1370.91	4.29992e-05
1379.46	7.08421e-05
1388.02	0.000134335
1396.58	0.000214611
1405.14	0.000416068
1413.7	0.000437196
1422.25	0.000218195
1430.81	5.80376e-05
1439.37	4.98266e-05
1447.93	5.91338e-05
1456.48	6.90488e-05
1465.04	7.78138e-05
1473.6	7.47966e-05
1482.16	5.91401e-05
1490.71	3.86343e-05
1499.27	2.43432e-05
1507.83	1.67794e-05
1516.39	1.35338e-05
1524.94	1.06829e-05
1533.5	8.02295e-06
1542.06	6.86936e-06
1550.62	6.74528e-06
1559.18	8.04954e-06
1567.73	8.67985e-06
1576.29	8.26675e-06
1584.85	8.46363e-06
1593.41	9.41113e-06
1601.96	1.31195e-05
1610.52	2.4706e-05
1619.08	4.61304e-05
1627.64	6.0995e-05
1636.19	0.000109108
1644.75	9.51522e-05
1653.31	4.40698e-05
1661.87	1.29591e-05
1670.42	1.09618e-05
1678.98	1.2414e-05
1687.54	1.49356e-05
1696.1	2.04565e-05
1704.65	2.80785e-05
1713.21	4.42553e-05
1721.77	9.60211e-05
1730.33	0.000298761
1738.89	0.000810577
1747.44	0.00100322
1756	0.00107041
1764.56	0.000424398
1773.12	0.000124864
1781.67	3.88882e-05
1790.23	2.23464e-05
1798.79	1.67005e-05
1807.35	1.40879e-05
1815.9	1.16466e-05
1824.46	1.11147e-05
1833.02	1.01479e-05
1841.58	8.50232e-06
1850.13	6.30929e-06
1858.69	4.917e-06
1867.25	4.27087e-06
1875.81	4.98706e-06
1884.36	6.9894e-06
1892.92	8.2816e-06
1901.48	8.38117e-06
1910.04	9.57725e-06
1918.6	1.53036e-05
1927.15	2.50463e-05
1935.71	2.442e-05
1944.27	1.60022e-05
1952.83	8.78583e-06
1961.38	6.805e-06
1969.94	5.05472e-06
1978.5	4.37837e-06
1987.06	4.22335e-06
1995.61	3.86388e-06
2004.17	2.82503e-06
2012.73	2.77745e-06
2021.29	3.26587e-06
2029.84	4.34186e-06
2038.4	6.84268e-06
2046.96	1.22978e-05
2055.52	1.58079e-05
2064.08	1.31529e-05
2072.63	8.54043e-06
2081.19	5.85554e-06
2089.75	5.58158e-06
2098.31	5.35226e-06
2106.86	4.51849e-06
2115.42	4.27672e-06
2123.98	4.398e-06
2132.54	4.20989e-06
2141.09	3.61609e-06
2149.65	3.08786e-06
2158.21	2.9915e-06
2166.77	2.96629e-06
2175.32	2.27927e-06
2183.88	1.58703e-06
2192.44	1.57687e-06
2201	1.59224e-06
2209.55	1.49979e-06
2218.11	1.49411e-06
2226.67	1.75968e-06
2235.23	1.85932e-06
2243.79	1.82901e-06
2252.34	1.86035e-06
2260.9	1.8647e-06
2269.46	1.9282e-06
2278.02	1.85382e-06
2286.57	1.85555e-06
2295.13	1.98916e-06
2303.69	2.45898e-06
2312.25	2.98549e-06
2320.8	3.08623e-06
2329.36	2.85304e-06
2337.92	2.30603e-06
2346.48	1.91047e-06
2355.03	2.53122e-06
2363.59	3.68335e-06
2372.15	5.13769e-06
2380.71	6.69244e-06
2389.26	7.19534e-06
2397.82	5.17161e-06
2406.38	3.31208e-06
2414.94	2.78362e-06
2423.5	2.56091e-06
2432.05	1.99462e-06
2440.61	1.44649e-06
2449.17	1.28971e-06
2457.73	1.39213e-06
2466.28	1.90787e-06
2474.84	2.52543e-06
2483.4	2.79345e-06
2491.96	2.54836e-06
2500.51	2.23515e-06
2509.07	1.61085e-06
2517.63	1.32847e-06
2526.19	1.45641e-06
2534.74	1.72602e-06
2543.3	1.99759e-06
2551.86	2.03745e-06
2560.42	1.82579e-06
2568.98	1.42412e-06
2577.53	1.0044e-06
2586.09	1.09045e-06
2594.65	1.47861e-06
2603.21	1.7766e-06
2611.76	1.75175e-06
2620.32	1.54038e-06
2628.88	1.31761e-06
2637.44	1.23326e-06
2645.99	1.49548e-06
2654.55	1.71097e-06
2663.11	2.01424e-06
2671.67	2.03544e-06
2680.22	1.92944e-06
2688.78	1.92747e-06
2697.34	2.5034e-06
2705.9	2.97927e-06
2714.45	2.74308e-06
2723.01	2.63433e-06
2731.57	2.79713e-06
2740.13	2.67842e-06
2748.69	2.74505e-06
2757.24	2.93045e-06
2765.8	3.8468e-06
2774.36	3.97684e-06
2782.92	3.1381e-06
2791.47	2.77289e-06
2800.03	3.14208e-06
2808.59	3.76374e-06
2817.15	5.20818e-06
2825.7	6.43029e-06
2834.26	6.87829e-06
2842.82	6.73915e-06
2851.38	7.3696e-06
2859.93	8.47874e-06
2868.49	1.12155e-05
2877.05	2.35776e-05
2885.61	3.7817e-05
2894.16	4.41905e-05
2902.72	4.80514e-05
2911.28	5.99894e-05
2919.84	5.75174e-05
2928.4	5.51014e-05
2936.95	7.2161e-05
2945.51	9.68479e-05
2954.07	0.000102048
2962.63	9.66969e-05
2971.18	0.000115242
2979.74	0.000202035
2988.3	0.000262792
2996.86	0.000281422
3005.41	0.000167629
3013.97	9.75148e-05
3022.53	4.1788e-05
3031.09	2.46412e-05
3039.64	2.91877e-05
3048.2	3.35435e-05
3056.76	2.91527e-05
3065.32	1.19574e-05
3073.88	1.22792e-05
3082.43	1.31062e-05
3090.99	1.20707e-05
3099.55	9.94193e-06
3108.11	2.8909e-05
3116.66	2.40582e-05
3125.22	1.33363e-05
3133.78	4.77732e-06
3142.34	3.73821e-06
3150.89	3.87586e-06
3159.45	3.77487e-06
3168.01	3.12667e-06
3176.57	2.6594e-06
3185.12	2.35488e-06
3193.68	1.89795e-06
3202.24	1.77642e-06
3210.8	1.60495e-06
3219.35	1.67597e-06
3227.91	1.84002e-06
3236.47	1.93501e-06
3245.03	1.92667e-06
3253.59	1.44623e-06
3262.14	7.57368e-07
3270.7	3.31422e-07
3279.26	-2.76509e-08
3287.82	-9.96757e-10
3296.37	-1.0064e-07
3304.93	-8.43606e-09
3313.49	1.57713e-07
3322.05	4.21301e-07
3330.6	6.28877e-07
3339.16	6.41439e-07
3347.72	8.87067e-07
3356.28	1.23252e-06
3364.83	1.5525e-06
3373.39	1.57305e-06
3381.95	1.5941e-06
3390.51	1.74505e-06
3399.06	1.18446e-06
3407.62	3.96e-07
3416.18	3.75701e-07
3424.74	2.18246e-07
3433.3	3.47654e-07
3441.85	4.31436e-07
3450.41	8.52311e-07
3458.97	3.18374e-06
3467.53	8.02717e-06
3476.08	1.20755e-05
3484.64	1.24216e-05
3493.2	6.42982e-06
3501.76	1.59675e-06
3510.31	1.70176e-08
3518.87	-4.45641e-07
3527.43	-3.70386e-07
3535.99	-2.23656e-07
3544.54	-2.07558e-07
3553.1	-1.9842e-07
3561.66	9.80351e-08
3570.22	1.42482e-07
3578.78	-4.09034e-08
3587.33	-1.03423e-08
3595.89	6.67136e-08
3604.45	8.45679e-08
3613.01	-3.69091e-08
3621.56	1.40783e-09
3630.12	1.20506e-07
3638.68	1.72926e-07
3647.24	-3.89572e-08
3655.79	-3.1467e-08
3664.35	1.15577e-07
3672.91	-2.80474e-09
3681.47	8.40186e-08
3690.02	6.24974e-09
3698.58	1.64938e-08
3707.14	9.81551e-08
3715.7	1.7723e-07
3724.25	2.40502e-07
3732.81	3.24579e-07
3741.37	3.23339e-07
3749.93	3.18606e-07
3758.49	3.84701e-07
3767.04	5.73157e-07
3775.6	5.69774e-07
3784.16	5.09361e-07
3792.72	5.06196e-07
3801.27	3.7234e-07
3809.83	2.21258e-07
3818.39	2.46821e-07
3826.95	2.85291e-07
3835.5	3.79572e-07
3844.06	3.40305e-07
3852.62	3.93766e-07
3861.18	3.00173e-07
3869.73	2.29189e-07
3878.29	1.99883e-07
3886.85	2.97114e-07
3895.41	3.3371e-07
3903.96	3.23433e-07
3912.52	4.10209e-07
3921.08	2.72315e-07
3929.64	1.45556e-07
3938.2	1.81341e-07
3946.75	2.41059e-07
3955.31	4.11206e-07
3963.87	5.13312e-07
3972.43	6.22642e-07
