Infrared Spectrum: Ethyl Ester-Propenoic Acid
Formula: C H2: C H C O2 C2 H5
CAS: 140-88-5
State: gas
Melting point: -71.2 C
Boiling point: 99.8 C
Class: IUPAC A
Instrument: IFS66V (Bruker)
Instrument parameters: KBr Beam splitter; MCT Detector; Multipass cell
Sampling: 1 L/min Flow
Resolution: 0.2410
Temperature: 23 C
Pressure: 101.3 kPa
Origin: NIST, Anayltical Chemistry Division, 301-975-3108
cm-1	(micromol/mol)-1m-1 (base 10)
575.048	1.54137e-07
583.606	7.09447e-07
592.163	1.31088e-06
600.721	4.19522e-06
609.279	7.56657e-06
617.836	7.74848e-06
626.394	4.46688e-06
634.951	2.37671e-06
643.509	5.23048e-06
652.067	1.32269e-05
660.624	2.00774e-05
669.182	2.13056e-05
677.74	1.20647e-05
686.297	4.84042e-06
694.855	1.76751e-06
703.412	5.34924e-07
711.97	8.47164e-07
720.528	9.61307e-07
729.085	9.4478e-07
737.643	1.79748e-06
746.201	1.87469e-06
754.758	2.43201e-06
763.316	3.32714e-06
771.873	6.50119e-06
780.431	1.55408e-05
788.989	3.5801e-05
797.546	6.9504e-05
806.104	0.00011146
814.662	0.000129109
823.219	8.15849e-05
831.777	4.11872e-05
840.334	2.19878e-05
848.892	2.99752e-05
857.45	4.18009e-05
866.007	4.04081e-05
874.565	2.49208e-05
883.123	1.34223e-05
891.68	1.56037e-05
900.238	2.16277e-05
908.795	2.5163e-05
917.353	2.18098e-05
925.911	1.90127e-05
934.468	1.32593e-05
943.026	2.50371e-05
951.584	6.266e-05
960.141	0.000115009
968.699	0.000160214
977.256	0.000164594
985.814	0.000185386
994.372	0.000125105
1002.93	7.32772e-05
1011.49	3.84267e-05
1020.04	5.3106e-05
1028.6	0.000139755
1037.16	0.000198033
1045.72	0.000177435
1054.28	0.00016092
1062.83	0.000290346
1071.39	0.000324587
1079.95	0.000202579
1088.51	0.000108619
1097.06	0.00011339
1105.62	0.000107142
1114.18	7.14139e-05
1122.74	4.74305e-05
1131.29	3.51756e-05
1139.85	3.13603e-05
1148.41	3.75028e-05
1156.97	5.83983e-05
1165.52	0.000121443
1174.08	0.000266218
1182.64	0.000749651
1191.2	0.00188247
1199.75	0.0020692
1208.31	0.000883328
1216.87	0.000296076
1225.43	0.000129428
1233.99	8.89036e-05
1242.54	7.96867e-05
1251.1	9.3185e-05
1259.66	0.000257461
1268.22	0.000563458
1276.77	0.000661251
1285.33	0.000409005
1293.89	0.000400338
1302.45	0.000412896
1311	0.000226937
1319.56	8.62239e-05
1328.12	3.73933e-05
1336.68	1.84692e-05
1345.23	1.46363e-05
1353.79	1.61014e-05
1362.35	2.99624e-05
1370.91	4.29919e-05
1379.46	7.08478e-05
1388.02	0.000134306
1396.58	0.000214597
1405.14	0.000416221
1413.7	0.00043734
1422.25	0.000218039
1430.81	5.80205e-05
1439.37	4.99302e-05
1447.93	5.91344e-05
1456.48	6.90099e-05
1465.04	7.78013e-05
1473.6	7.48209e-05
1482.16	5.92485e-05
1490.71	3.86493e-05
1499.27	2.43377e-05
1507.83	1.6807e-05
1516.39	1.35816e-05
1524.94	1.06417e-05
1533.5	8.00137e-06
1542.06	6.88409e-06
1550.62	6.73165e-06
1559.18	8.07263e-06
1567.73	8.68951e-06
1576.29	8.32437e-06
1584.85	8.51275e-06
1593.41	9.38397e-06
1601.96	1.30913e-05
1610.52	2.47132e-05
1619.08	4.6125e-05
1627.64	6.0927e-05
1636.19	0.000109057
1644.75	9.51305e-05
1653.31	4.40352e-05
1661.87	1.29231e-05
1670.42	1.09464e-05
1678.98	1.2383e-05
1687.54	1.4909e-05
1696.1	2.04458e-05
1704.65	2.80821e-05
1713.21	4.42633e-05
1721.77	9.60373e-05
1730.33	0.000298702
1738.89	0.00081052
1747.44	0.00100313
1756	0.0010707
1764.56	0.000424523
1773.12	0.000124827
1781.67	3.88578e-05
1790.23	2.23231e-05
1798.79	1.66858e-05
1807.35	1.40886e-05
1815.9	1.16281e-05
1824.46	1.11072e-05
1833.02	1.01655e-05
1841.58	8.5147e-06
1850.13	6.30436e-06
1858.69	4.89234e-06
1867.25	4.2413e-06
1875.81	5.01447e-06
1884.36	6.95881e-06
1892.92	8.27217e-06
1901.48	8.38925e-06
1910.04	9.58883e-06
1918.6	1.53014e-05
1927.15	2.50827e-05
1935.71	2.44253e-05
1944.27	1.59874e-05
1952.83	8.73917e-06
1961.38	6.77753e-06
1969.94	5.03629e-06
1978.5	4.39452e-06
1987.06	4.20529e-06
1995.61	3.91306e-06
2004.17	2.80219e-06
2012.73	2.77382e-06
2021.29	3.20661e-06
2029.84	4.35419e-06
2038.4	6.8469e-06
2046.96	1.23344e-05
2055.52	1.57872e-05
2064.08	1.31309e-05
2072.63	8.5254e-06
2081.19	5.86631e-06
2089.75	5.56762e-06
2098.31	5.3356e-06
2106.86	4.51609e-06
2115.42	4.28973e-06
2123.98	4.34443e-06
2132.54	4.19111e-06
2141.09	3.63229e-06
2149.65	3.11608e-06
2158.21	2.96807e-06
2166.77	2.96619e-06
2175.32	2.25854e-06
2183.88	1.56768e-06
2192.44	1.54988e-06
2201	1.59028e-06
2209.55	1.54425e-06
2218.11	1.50094e-06
2226.67	1.74571e-06
2235.23	1.84406e-06
2243.79	1.84407e-06
2252.34	1.88344e-06
2260.9	1.83663e-06
2269.46	1.89003e-06
2278.02	1.81219e-06
2286.57	1.86901e-06
2295.13	1.96188e-06
2303.69	2.45594e-06
2312.25	2.99175e-06
2320.8	3.09739e-06
2329.36	2.90302e-06
2337.92	2.28781e-06
2346.48	1.87666e-06
2355.03	2.52567e-06
2363.59	3.66583e-06
2372.15	5.12816e-06
2380.71	6.68276e-06
2389.26	7.19519e-06
2397.82	5.13758e-06
2406.38	3.35259e-06
2414.94	2.7537e-06
2423.5	2.55825e-06
2432.05	1.9799e-06
2440.61	1.44919e-06
2449.17	1.30215e-06
2457.73	1.42701e-06
2466.28	1.97093e-06
2474.84	2.52012e-06
2483.4	2.79688e-06
2491.96	2.56326e-06
2500.51	2.26172e-06
2509.07	1.62222e-06
2517.63	1.39404e-06
2526.19	1.50177e-06
2534.74	1.73664e-06
2543.3	2.00475e-06
2551.86	1.99869e-06
2560.42	1.79988e-06
2568.98	1.42656e-06
2577.53	9.86575e-07
2586.09	1.10097e-06
2594.65	1.51809e-06
2603.21	1.76986e-06
2611.76	1.73556e-06
2620.32	1.56341e-06
2628.88	1.36131e-06
2637.44	1.22909e-06
2645.99	1.5213e-06
2654.55	1.73449e-06
2663.11	2.05761e-06
2671.67	2.04114e-06
2680.22	1.93598e-06
2688.78	1.9339e-06
2697.34	2.48139e-06
2705.9	2.99635e-06
2714.45	2.73716e-06
2723.01	2.63564e-06
2731.57	2.81312e-06
2740.13	2.68437e-06
2748.69	2.80181e-06
2757.24	2.9804e-06
2765.8	3.80488e-06
2774.36	4.01452e-06
2782.92	3.06226e-06
2791.47	2.80523e-06
2800.03	3.13013e-06
2808.59	3.80659e-06
2817.15	5.22562e-06
2825.7	6.45472e-06
2834.26	6.96999e-06
2842.82	6.67482e-06
2851.38	7.4337e-06
2859.93	8.53122e-06
2868.49	1.11635e-05
2877.05	2.35708e-05
2885.61	3.79066e-05
2894.16	4.42591e-05
2902.72	4.79765e-05
2911.28	6.00052e-05
2919.84	5.75456e-05
2928.4	5.50807e-05
2936.95	7.20742e-05
2945.51	9.68411e-05
2954.07	0.000102108
2962.63	9.66415e-05
2971.18	0.000115361
2979.74	0.000201736
2988.3	0.000262755
2996.86	0.000281312
3005.41	0.000167547
3013.97	9.75816e-05
3022.53	4.17129e-05
3031.09	2.46499e-05
3039.64	2.91652e-05
3048.2	3.35756e-05
3056.76	2.90934e-05
3065.32	1.19153e-05
3073.88	1.23017e-05
3082.43	1.3123e-05
3090.99	1.20656e-05
3099.55	9.87383e-06
3108.11	2.89222e-05
3116.66	2.40343e-05
3125.22	1.32784e-05
3133.78	4.7857e-06
3142.34	3.85891e-06
3150.89	3.78371e-06
3159.45	3.86654e-06
3168.01	3.04202e-06
3176.57	2.73973e-06
3185.12	2.33161e-06
3193.68	1.83341e-06
3202.24	1.74657e-06
3210.8	1.53462e-06
3219.35	1.6474e-06
3227.91	1.87129e-06
3236.47	1.88788e-06
3245.03	1.92511e-06
3253.59	1.48566e-06
3262.14	8.04449e-07
3270.7	2.6879e-07
3279.26	-1.03968e-08
3287.82	3.84879e-08
3296.37	-6.48802e-08
3304.93	-2.56901e-08
3313.49	1.04256e-07
3322.05	3.5167e-07
3330.6	6.26535e-07
3339.16	6.50853e-07
3347.72	8.35475e-07
3356.28	1.21044e-06
3364.83	1.41517e-06
3373.39	1.5963e-06
3381.95	1.43584e-06
3390.51	1.63668e-06
3399.06	1.15568e-06
3407.62	3.65934e-07
3416.18	4.12192e-07
3424.74	1.41914e-07
3433.3	4.33749e-07
3441.85	4.72521e-07
3450.41	7.53927e-07
3458.97	3.14423e-06
3467.53	8.02737e-06
3476.08	1.21442e-05
3484.64	1.24869e-05
3493.2	6.46843e-06
3501.76	1.52067e-06
3510.31	7.81618e-08
3518.87	-4.61571e-07
3527.43	-3.6286e-07
3535.99	-1.11342e-07
3544.54	-1.75899e-07
3553.1	-3.16067e-07
3561.66	2.2566e-07
3570.22	7.60082e-08
3578.78	-9.22801e-08
3587.33	5.72226e-09
3595.89	1.79744e-08
3604.45	1.42722e-07
3613.01	-4.80444e-08
3621.56	-6.51785e-08
3630.12	1.92767e-07
3638.68	1.96354e-07
3647.24	1.19356e-08
3655.79	-1.49212e-07
3664.35	2.22808e-07
3672.91	-9.53831e-08
3681.47	1.284e-07
3690.02	4.53816e-08
3698.58	9.37898e-08
3707.14	1.64465e-08
3715.7	1.71893e-07
3724.25	2.46014e-07
3732.81	2.30931e-07
3741.37	3.78597e-07
3749.93	4.06586e-07
3758.49	3.95229e-07
3767.04	4.98917e-07
3775.6	5.36033e-07
3784.16	5.15665e-07
3792.72	5.18892e-07
3801.27	3.20468e-07
3809.83	2.0081e-07
3818.39	1.64774e-07
3826.95	2.34158e-07
3835.5	4.27991e-07
3844.06	3.83988e-07
3852.62	4.42989e-07
3861.18	4.16463e-07
3869.73	2.96121e-07
3878.29	2.24543e-07
3886.85	2.72468e-07
3895.41	3.95967e-07
3903.96	2.958e-07
3912.52	4.33327e-07
3921.08	2.46676e-07
3929.64	1.58426e-07
3938.2	2.37603e-07
3946.75	9.65508e-08
3955.31	5.66886e-07
3963.87	5.88429e-07
3972.43	6.63695e-07
