Infrared Spectrum: Ethyl Ester-Propenoic Acid
Formula: C H2: C H C O2 C2 H5
CAS: 140-88-5
State: gas
Melting point: -71.2 C
Boiling point: 99.8 C
Class: IUPAC A
Instrument: IFS66V (Bruker)
Instrument parameters: KBr Beam splitter; MCT Detector; Multipass cell
Sampling: 1 L/min Flow
Resolution: 0.9640
Temperature: 23 C
Pressure: 101.3 kPa
Origin: NIST, Anayltical Chemistry Division, 301-975-3108
cm-1	(micromol/mol)-1m-1 (base 10)
575.169	5.27528e-07
583.847	7.78191e-07
592.525	1.16958e-06
601.203	4.04244e-06
609.882	8.25809e-06
618.56	7.41541e-06
627.238	4.19469e-06
635.916	2.96077e-06
644.594	6.21014e-06
653.272	1.46514e-05
661.951	2.05276e-05
670.629	1.97177e-05
679.307	1.14507e-05
687.985	4.11565e-06
696.663	1.56351e-06
705.341	8.91119e-07
714.019	9.41088e-07
722.698	1.13705e-06
731.376	1.37812e-06
740.054	1.66734e-06
748.732	2.14677e-06
757.41	2.77877e-06
766.088	4.21386e-06
774.767	8.99704e-06
783.445	2.10982e-05
792.123	4.66425e-05
800.801	8.40162e-05
809.479	0.000120272
818.157	0.000111208
826.835	6.38084e-05
835.514	2.91717e-05
844.192	2.33712e-05
852.87	3.7278e-05
861.548	4.2712e-05
870.226	3.31079e-05
878.904	1.77169e-05
887.583	1.31292e-05
896.261	1.99349e-05
904.939	2.3699e-05
913.617	2.53092e-05
922.295	2.02383e-05
930.973	1.3962e-05
939.651	1.82687e-05
948.33	4.62791e-05
957.008	9.14621e-05
965.686	0.000145887
974.364	0.000160206
983.042	0.00016236
991.72	0.000157452
1000.4	8.94959e-05
1009.08	4.49418e-05
1017.75	4.44368e-05
1026.43	0.000113235
1035.11	0.000192804
1043.79	0.000198087
1052.47	0.000150665
1061.15	0.000268139
1069.82	0.00033457
1078.5	0.00023682
1087.18	0.000115495
1095.86	0.000113911
1104.54	0.000108919
1113.21	7.70007e-05
1121.89	4.90074e-05
1130.57	3.74346e-05
1139.25	3.24489e-05
1147.93	3.86024e-05
1156.61	5.93076e-05
1165.28	0.000121983
1173.96	0.000268874
1182.64	0.000755286
1191.32	0.00186773
1200	0.00205217
1208.67	0.000845855
1217.35	0.000284603
1226.03	0.000128618
1234.71	9.07953e-05
1243.39	8.14688e-05
1252.07	0.000103133
1260.74	0.000299823
1269.42	0.000597215
1278.1	0.000637841
1286.78	0.000371991
1295.46	0.000418151
1304.13	0.000446199
1312.81	0.000182139
1321.49	7.22208e-05
1330.17	3.22449e-05
1338.85	1.78331e-05
1347.52	1.53169e-05
1356.2	1.90722e-05
1364.88	3.38712e-05
1373.56	4.93503e-05
1382.24	9.16346e-05
1390.92	0.000150221
1399.59	0.000272491
1408.27	0.000432114
1416.95	0.00039421
1425.63	0.000117874
1434.31	5.12021e-05
1442.98	5.42837e-05
1451.66	6.65441e-05
1460.34	7.20455e-05
1469.02	7.87781e-05
1477.7	7.14469e-05
1486.38	4.18824e-05
1495.05	3.15876e-05
1503.73	2.00337e-05
1512.41	1.50275e-05
1521.09	1.21647e-05
1529.77	9.30069e-06
1538.44	7.38398e-06
1547.12	6.84283e-06
1555.8	7.60405e-06
1564.48	8.58018e-06
1573.16	8.64641e-06
1581.83	8.48493e-06
1590.51	9.17245e-06
1599.19	1.17608e-05
1607.87	2.02419e-05
1616.55	3.97751e-05
1625.23	5.38442e-05
1633.9	9.23628e-05
1642.58	0.00010083
1651.26	7.17878e-05
1659.94	1.51289e-05
1668.62	1.1584e-05
1677.29	1.252e-05
1685.97	1.47746e-05
1694.65	1.98695e-05
1703.33	2.86511e-05
1712.01	4.28796e-05
1720.69	8.67149e-05
1729.36	0.000266651
1738.04	0.000740587
1746.72	0.00102365
1755.4	0.00109354
1764.08	0.00045237
1772.75	0.000135603
1781.43	4.2121e-05
1790.11	2.36777e-05
1798.79	1.75203e-05
1807.47	1.45654e-05
1816.15	1.20646e-05
1824.82	1.13811e-05
1833.5	1.02502e-05
1842.18	8.5331e-06
1850.86	6.35858e-06
1859.54	5.02429e-06
1868.21	4.4492e-06
1876.89	5.34857e-06
1885.57	7.40686e-06
1894.25	8.49738e-06
1902.93	8.40526e-06
1911.6	1.04296e-05
1920.28	1.68904e-05
1928.96	2.71365e-05
1937.64	2.30172e-05
1946.32	1.28627e-05
1955	8.85996e-06
1963.67	6.1859e-06
1972.35	4.94766e-06
1981.03	4.42619e-06
1989.71	4.15217e-06
1998.39	3.45057e-06
2007.06	2.82975e-06
2015.74	2.99984e-06
2024.42	3.63204e-06
2033.1	5.04447e-06
2041.78	8.77923e-06
2050.46	1.39643e-05
2059.13	1.59143e-05
2067.81	1.10249e-05
2076.49	7.07963e-06
2085.17	5.60975e-06
2093.85	5.5805e-06
2102.52	5.03399e-06
2111.2	4.304e-06
2119.88	4.41242e-06
2128.56	4.44157e-06
2137.24	3.95554e-06
2145.91	3.30866e-06
2154.59	2.99702e-06
2163.27	3.14745e-06
2171.95	2.61358e-06
2180.63	1.74979e-06
2189.31	1.60709e-06
2197.98	1.64228e-06
2206.66	1.51808e-06
2215.34	1.46584e-06
2224.02	1.71898e-06
2232.7	1.84625e-06
2241.37	1.85447e-06
2250.05	1.87949e-06
2258.73	1.86373e-06
2267.41	1.96448e-06
2276.09	1.92952e-06
2284.77	1.86452e-06
2293.44	1.96148e-06
2302.12	2.38894e-06
2310.8	2.9255e-06
2319.48	3.10453e-06
2328.16	2.90474e-06
2336.83	2.34017e-06
2345.51	1.98045e-06
2354.19	2.49113e-06
2362.87	3.66126e-06
2371.55	5.04745e-06
2380.23	6.61623e-06
2388.9	7.16379e-06
2397.58	5.29248e-06
2406.26	3.38585e-06
2414.94	2.82055e-06
2423.62	2.59111e-06
2432.29	2.00717e-06
2440.97	1.45978e-06
2449.65	1.24882e-06
2458.33	1.37958e-06
2467.01	2.005e-06
2475.68	2.55773e-06
2484.36	2.71659e-06
2493.04	2.51298e-06
2501.72	2.16209e-06
2510.4	1.5962e-06
2519.08	1.34149e-06
2527.75	1.48845e-06
2536.43	1.86008e-06
2545.11	2.07653e-06
2553.79	2.06802e-06
2562.47	1.70178e-06
2571.14	1.28223e-06
2579.82	9.65901e-07
2588.5	1.18485e-06
2597.18	1.58724e-06
2605.86	1.80248e-06
2614.54	1.71155e-06
2623.21	1.40116e-06
2631.89	1.24173e-06
2640.57	1.34606e-06
2649.25	1.57791e-06
2657.93	1.85329e-06
2666.6	2.0285e-06
2675.28	2.03187e-06
2683.96	1.91429e-06
2692.64	2.10858e-06
2701.32	2.7845e-06
2709.99	2.96573e-06
2718.67	2.60433e-06
2727.35	2.68276e-06
2736.03	2.89821e-06
2744.71	2.63431e-06
2753.39	2.85759e-06
2762.06	3.42946e-06
2770.74	4.07627e-06
2779.42	3.72457e-06
2788.1	2.79742e-06
2796.78	3.01116e-06
2805.45	3.53502e-06
2814.13	4.56344e-06
2822.81	6.32118e-06
2831.49	6.85664e-06
2840.17	6.83883e-06
2848.85	7.28831e-06
2857.52	8.32624e-06
2866.2	1.03519e-05
2874.88	1.88015e-05
2883.56	3.62245e-05
2892.24	4.39998e-05
2900.91	4.56312e-05
2909.59	5.7979e-05
2918.27	5.92134e-05
2926.95	5.63781e-05
2935.63	6.66702e-05
2944.31	9.52506e-05
2952.98	0.000103064
2961.66	9.54582e-05
2970.34	0.000113028
2979.02	0.000192698
2987.7	0.000260378
2996.37	0.000296013
3005.05	0.00017136
3013.73	9.99124e-05
3022.41	4.2946e-05
3031.09	2.5173e-05
3039.76	2.96669e-05
3048.44	3.36323e-05
3057.12	2.8099e-05
3065.8	1.20013e-05
3074.48	1.2622e-05
3083.16	1.29255e-05
3091.83	1.16854e-05
3100.51	1.10239e-05
3109.19	2.85765e-05
3117.87	2.71068e-05
3126.55	1.04905e-05
3135.22	4.5284e-06
3143.9	3.75662e-06
3152.58	3.95424e-06
3161.26	3.66024e-06
3169.94	3.14462e-06
3178.62	2.68002e-06
3187.29	2.32296e-06
3195.97	1.98702e-06
3204.65	1.79558e-06
3213.33	1.67373e-06
3222.01	1.7181e-06
3230.68	1.86552e-06
3239.36	1.93549e-06
3248.04	1.75361e-06
3256.72	1.22037e-06
3265.4	5.992e-07
3274.07	2.11731e-07
3282.75	4.38173e-08
3291.43	-4.50942e-08
3300.11	-7.3971e-08
3308.79	1.35126e-07
3317.47	3.91147e-07
3326.14	5.15243e-07
3334.82	6.32082e-07
3343.5	7.81687e-07
3352.18	1.07274e-06
3360.86	1.48117e-06
3369.53	1.60734e-06
3378.21	1.59738e-06
3386.89	1.89126e-06
3395.57	1.5488e-06
3404.25	6.38314e-07
3412.93	3.55482e-07
3421.6	2.74283e-07
3430.28	2.61478e-07
3438.96	3.41138e-07
3447.64	6.98854e-07
3456.32	2.27092e-06
3464.99	6.386e-06
3473.67	1.14837e-05
3482.35	1.25284e-05
3491.03	8.01378e-06
3499.71	2.5177e-06
3508.39	1.96972e-07
3517.06	-3.99703e-07
3525.74	-4.34735e-07
3534.42	-4.61313e-07
3543.1	-2.87244e-07
3551.78	-1.03539e-07
3560.45	1.20589e-07
3569.13	1.76604e-07
3577.81	8.54737e-08
3586.49	4.51451e-09
3595.17	1.03248e-07
3603.84	8.19887e-08
3612.52	1.24606e-07
3621.2	7.57244e-08
3629.88	8.02353e-08
3638.56	8.87623e-08
3647.24	-8.29418e-10
3655.91	7.90312e-08
3664.59	2.61303e-08
3673.27	2.56829e-08
3681.95	4.5578e-08
3690.63	3.1507e-08
3699.3	5.38067e-08
3707.98	8.15813e-08
3716.66	1.7377e-07
3725.34	2.29101e-07
3734.02	2.88947e-07
3742.7	2.87754e-07
3751.37	3.7358e-07
3760.05	5.15462e-07
3768.73	5.61665e-07
3777.41	6.1875e-07
3786.09	5.42109e-07
3794.76	3.89525e-07
3803.44	3.4598e-07
3812.12	2.74887e-07
3820.8	2.55716e-07
3829.48	2.72908e-07
3838.16	3.76403e-07
3846.83	3.73206e-07
3855.51	2.84702e-07
3864.19	2.66996e-07
3872.87	2.19792e-07
3881.55	2.61671e-07
3890.22	3.23881e-07
3898.9	3.6633e-07
3907.58	3.36202e-07
3916.26	3.19704e-07
3924.94	2.54384e-07
3933.61	2.4279e-07
3942.29	2.01658e-07
3950.97	3.48494e-07
3959.65	3.84337e-07
3968.33	5.34247e-07
