Infrared Spectrum: Acetic acid, benzyl ester
Formula: C9 H10 O2
CAS: 140-11-4
State: SOLUTION (10% CCl4 FOR 3800-1340, 10% CS2 FOR 1340-450 CM^-^1)
Class: COBLENTZ III
Instrument: DOW KBr FOREPRISM-GRATING
Instrument parameters: BLAZED AT 3.5, 12.0, 20.0 MICRON AND CHANGED AT 5.0, 7.5, 14.9 MICRON
Sampling: TRANSMISSION
Path length: 0.011 CM, 0.010 CM
Resolution: 2
Origin: DOW CHEMICAL COMPANY
1/CM	TRANSMITTANCE
3812	0.9106
3803	0.9107
3794	0.9101
3785	0.9096
3776	0.9103
3767	0.9102
3758	0.9099
3749	0.9093
3740	0.9086
3731	0.9076
3722	0.9064
3713	0.9096
3704	0.9121
3695	0.9087
3686	0.9075
3677	0.9082
3668	0.9014
3659	0.8998
3650	0.9055
3641	0.9014
3632	0.9032
3623	0.9085
3614	0.9112
3605	0.9065
3596	0.9065
3587	0.9067
3578	0.9065
3569	0.9073
3560	0.9094
3551	0.9102
3542	0.9077
3533	0.907
3524	0.9053
3515	0.9035
3506	0.8975
3497	0.8865
3488	0.8787
3479	0.8738
3470	0.8723
3461	0.8772
3452	0.8857
3443	0.8947
3434	0.9036
3425	0.9039
3416	0.9045
3407	0.9047
3398	0.9043
3389	0.9042
3380	0.9043
3371	0.9044
3362	0.9043
3353	0.9042
3344	0.9052
3335	0.9028
3326	0.9012
3317	0.902
3308	0.904
3299	0.9035
3290	0.9027
3281	0.9018
3272	0.9015
3263	0.9003
3254	0.899
3245	0.8977
3236	0.8977
3227	0.897
3218	0.8935
3209	0.8944
3200	0.8929
3191	0.8918
3182	0.8896
3173	0.8879
3164	0.886
3155	0.8833
3146	0.8804
3137	0.8779
3128	0.8739
3119	0.842
3110	0.8253
3101	0.7356
3092	0.7242
3083	0.7065
3074	0.5924
3065	0.6536
3056	0.731
3047	0.5764
3038	0.4458
3029	0.6439
3020	0.7414
3011	0.7657
3002	0.7747
2993	0.761
2984	0.743
2975	0.7194
2966	0.6546
2957	0.6126
2948	0.6658
2939	0.7045
2930	0.8008
2921	0.8195
2912	0.8268
2903	0.8129
2894	0.7725
2885	0.7904
2876	0.82
2867	0.8523
2858	0.8722
2849	0.8705
2840	0.8732
2831	0.8766
2822	0.8772
2813	0.878
2804	0.882
2795	0.8848
2786	0.8868
2777	0.8885
2768	0.889
2759	0.8889
2750	0.8883
2741	0.887
2732	0.8865
2723	0.8855
2714	0.885
2705	0.8862
2696	0.8876
2687	0.889
2678	0.89
2669	0.8909
2660	0.8905
2651	0.8898
2642	0.8891
2633	0.8889
2624	0.8886
2615	0.8883
2606	0.888
2597	0.8878
2588	0.8878
2579	0.888
2570	0.8888
2561	0.8898
2552	0.8918
2543	0.894
2534	0.8963
2525	0.8971
2516	0.8969
2507	0.8955
2498	0.8937
2489	0.8901
2480	0.8869
2471	0.8843
2462	0.8832
2453	0.8825
2444	0.883
2435	0.883
2426	0.8834
2417	0.8837
2408	0.8847
2399	0.8855
2390	0.8863
2381	0.8889
2372	0.8918
2363	0.8915
2354	0.8941
2345	0.8944
2336	0.8903
2327	0.889
2318	0.8888
2309	0.8876
2300	0.8872
2291	0.8866
2282	0.8832
2273	0.885
2264	0.887
2255	0.8885
2246	0.8898
2237	0.8911
2228	0.8921
2219	0.8926
2210	0.8916
2201	0.8914
2192	0.8908
2183	0.8908
2174	0.8906
2165	0.8891
2156	0.8883
2147	0.8888
2138	0.8893
2129	0.8901
2120	0.891
2111	0.892
2102	0.8949
2093	0.8963
2084	0.8962
2075	0.8926
2066	0.8841
2057	0.8827
2048	0.8847
2039	0.8876
2030	0.8885
2021	0.8897
2012	0.8903
2003	0.8906
1994	0.8722
1985	0.8623
1976	0.8588
1967	0.8359
1958	0.8565
1949	0.7967
1940	0.8296
1931	0.8482
1922	0.8569
1913	0.8557
1904	0.8504
1895	0.8464
1886	0.8321
1877	0.8202
1868	0.8085
1859	0.8091
1850	0.8177
1841	0.8175
1832	0.802
1823	0.7888
1814	0.7729
1805	0.7246
1796	0.723
1787	0.6982
1778	0.6317
1769	0.5085
1760	0.0881
1751	0.013
1742	0.0118
1733	0.0402
1724	0.252
1715	0.4677
1706	0.5784
1697	0.6779
1688	0.7314
1679	0.7586
1670	0.7692
1661	0.7675
1652	0.7728
1643	0.7915
1634	0.8025
1625	0.8029
1616	0.8036
1607	0.7526
1598	0.7507
1589	0.6615
1580	0.6756
1571	0.6798
1562	0.6215
1553	0.5842
1544	0.5771
1535	0.626
1526	0.6762
1517	0.6965
1508	0.697
1499	0.4407
1490	0.6802
1481	0.7256
1472	0.7174
1463	0.564
1454	0.2635
1445	0.496
1436	0.5621
1427	0.5974
1418	0.6466
1409	0.6913
1400	0.683
1391	0.5983
1382	0.1937
1373	0.2786
1364	0.2132
1355	0.3939
1346	0.7149
1337	0.7533
1328	0.7379
1319	0.7348
1310	0.7155
1301	0.6899
1292	0.6376
1283	0.5267
1274	0.3862
1265	0.2043
1256	0.0677
1247	0.0268
1238	0.0112
1229	0.008
1220	0.0115
1211	0.1173
1202	0.3387
1193	0.5553
1184	0.6559
1175	0.6955
1166	0.7432
1157	0.763
1148	0.7861
1139	0.8066
1130	0.8173
1121	0.8176
1112	0.8093
1103	0.772
1094	0.7596
1085	0.7072
1076	0.6116
1067	0.6397
1058	0.5661
1049	0.3551
1040	0.1784
1031	0.1346
1022	0.1011
1013	0.3024
1004	0.4685
995	0.5671
986	0.6388
977	0.5885
968	0.5127
959	0.5252
950	0.7062
941	0.7567
932	0.7241
923	0.6734
914	0.6453
905	0.6957
896	0.6492
887	0.7416
878	0.7805
869	0.774
860	0.7555
851	0.723
842	0.694
833	0.6266
824	0.7149
815	0.7663
806	0.8277
797	0.8445
788	0.8549
779	0.8527
770	0.833
761	0.7379
752	0.3442
743	0.1938
734	0.2525
725	0.4837
716	0.6859
707	0.5805
698	0.0259
689	0.4492
680	0.7355
671	0.808
662	0.8581
653	0.8078
644	0.7929
635	0.8326
626	0.8489
617	0.7402
608	0.629
599	0.7947
590	0.8625
581	0.8242
572	0.7222
563	0.9001
554	0.9135
545	0.9163
536	0.9178
527	0.914
518	0.8826
509	0.7219
500	0.6441
491	0.657
482	0.7678
473	0.8198
464	0.8374
455	0.841
