Infrared Spectrum: Ethyl Ester-Propenoic Acid
Formula: C H2: C H C O2 C2 H5
CAS: 140-88-5
State: gas
Melting point: -71.2 C
Boiling point: 99.8 C
Class: IUPAC A
Instrument: IFS66V (Bruker)
Instrument parameters: KBr Beam splitter; MCT Detector; Multipass cell
Sampling: 1 L/min Flow
Resolution: 0.4820
Temperature: 23 C
Pressure: 101.3 kPa
Origin: NIST, Anayltical Chemistry Division, 301-975-3108
cm-1	(micromol/mol)-1m-1 (base 10)
574.928	9.22764e-07
583.606	7.98639e-07
592.284	1.05731e-06
600.962	3.62957e-06
609.641	7.88468e-06
618.319	7.44841e-06
626.997	4.055e-06
635.675	2.8875e-06
644.353	5.94715e-06
653.031	1.45585e-05
661.71	2.05425e-05
670.388	2.01754e-05
679.066	1.17014e-05
687.744	3.92976e-06
696.422	1.42202e-06
705.1	7.5197e-07
713.778	8.20531e-07
722.457	1.07188e-06
731.135	1.1506e-06
739.813	1.39793e-06
748.491	2.02677e-06
757.169	2.66577e-06
765.847	3.88396e-06
774.526	8.54493e-06
783.204	2.04876e-05
791.882	4.56539e-05
800.56	8.27966e-05
809.238	0.000119915
817.916	0.000113188
826.594	6.50256e-05
835.273	2.92791e-05
843.951	2.28406e-05
852.629	3.69615e-05
861.307	4.29684e-05
869.985	3.34551e-05
878.663	1.77901e-05
887.342	1.25931e-05
896.02	1.96327e-05
904.698	2.34946e-05
913.376	2.53638e-05
922.054	1.98932e-05
930.732	1.35993e-05
939.41	1.72808e-05
948.089	4.45349e-05
956.767	8.9801e-05
965.445	0.000140599
974.123	0.000160112
982.801	0.000162161
991.479	0.000159413
1000.16	9.06586e-05
1008.84	4.45874e-05
1017.51	4.24712e-05
1026.19	0.000109965
1034.87	0.000192483
1043.55	0.000200741
1052.23	0.000148298
1060.9	0.000266432
1069.58	0.000336953
1078.26	0.000243101
1086.94	0.000115352
1095.62	0.000113533
1104.3	0.000109081
1112.97	7.76254e-05
1121.65	4.81368e-05
1130.33	3.67701e-05
1139.01	3.1101e-05
1147.69	3.66941e-05
1156.36	5.59742e-05
1165.04	0.000115475
1173.72	0.000257833
1182.4	0.000724048
1191.08	0.001874
1199.76	0.00206897
1208.43	0.000867924
1217.11	0.000287461
1225.79	0.000126343
1234.47	8.83928e-05
1243.15	7.91626e-05
1251.82	9.77641e-05
1260.5	0.000289305
1269.18	0.00059466
1277.86	0.000647393
1286.54	0.000376058
1295.21	0.000419698
1303.89	0.000448684
1312.57	0.000185184
1321.25	7.23263e-05
1329.93	3.16018e-05
1338.61	1.69495e-05
1347.28	1.4387e-05
1355.96	1.79004e-05
1364.64	3.3069e-05
1373.32	4.76169e-05
1382	8.87539e-05
1390.67	0.000148586
1399.35	0.000267157
1408.03	0.000435246
1416.71	0.000404696
1425.39	0.000120572
1434.07	4.99536e-05
1442.74	5.33414e-05
1451.42	6.58089e-05
1460.1	7.20157e-05
1468.78	7.89422e-05
1477.46	7.21517e-05
1486.13	4.19901e-05
1494.81	3.17605e-05
1503.49	1.99252e-05
1512.17	1.49141e-05
1520.85	1.19655e-05
1529.52	9.19116e-06
1538.2	7.20502e-06
1546.88	6.62131e-06
1555.56	7.36881e-06
1564.24	8.32118e-06
1572.92	8.52031e-06
1581.59	8.24876e-06
1590.27	8.8927e-06
1598.95	1.13535e-05
1607.63	1.95224e-05
1616.31	3.89997e-05
1624.98	5.29525e-05
1633.66	9.09481e-05
1642.34	0.000104283
1651.02	7.57022e-05
1659.7	1.45445e-05
1668.38	1.10559e-05
1677.05	1.19669e-05
1685.73	1.41102e-05
1694.41	1.89726e-05
1703.09	2.76663e-05
1711.77	4.08797e-05
1720.44	8.1461e-05
1729.12	0.000255432
1737.8	0.000725918
1746.48	0.00103928
1755.16	0.00112319
1763.84	0.000463827
1772.51	0.000137028
1781.19	4.07921e-05
1789.87	2.2616e-05
1798.55	1.68273e-05
1807.23	1.41026e-05
1815.9	1.16422e-05
1824.58	1.10884e-05
1833.26	9.96935e-06
1841.94	8.39959e-06
1850.62	6.16403e-06
1859.29	4.82631e-06
1867.97	4.33248e-06
1876.65	5.14081e-06
1885.33	7.15564e-06
1894.01	8.38035e-06
1902.69	8.28657e-06
1911.36	1.01871e-05
1920.04	1.65989e-05
1928.72	2.72073e-05
1937.4	2.30886e-05
1946.08	1.30538e-05
1954.75	8.74238e-06
1963.43	6.12799e-06
1972.11	4.85892e-06
1980.79	4.36456e-06
1989.47	4.13268e-06
1998.15	3.42114e-06
2006.82	2.77138e-06
2015.5	2.87382e-06
2024.18	3.55086e-06
2032.86	4.91359e-06
2041.54	8.61598e-06
2050.21	1.39e-05
2058.89	1.60875e-05
2067.57	1.11271e-05
2076.25	7.08984e-06
2084.93	5.58817e-06
2093.6	5.53755e-06
2102.28	5.02619e-06
2110.96	4.27677e-06
2119.64	4.3476e-06
2128.32	4.40263e-06
2137	3.95782e-06
2145.67	3.30432e-06
2154.35	2.99562e-06
2163.03	3.10114e-06
2171.71	2.55732e-06
2180.39	1.73574e-06
2189.06	1.62669e-06
2197.74	1.55772e-06
2206.42	1.49204e-06
2215.1	1.39612e-06
2223.78	1.72483e-06
2232.46	1.8399e-06
2241.13	1.86022e-06
2249.81	1.8813e-06
2258.49	1.82563e-06
2267.17	1.93574e-06
2275.85	1.89777e-06
2284.52	1.81083e-06
2293.2	1.91305e-06
2301.88	2.35937e-06
2310.56	2.87308e-06
2319.24	3.11563e-06
2327.92	2.92552e-06
2336.59	2.31474e-06
2345.27	1.89801e-06
2353.95	2.34713e-06
2362.63	3.65142e-06
2371.31	5.02051e-06
2379.98	6.62044e-06
2388.66	7.20111e-06
2397.34	5.36995e-06
2406.02	3.47121e-06
2414.7	2.7947e-06
2423.37	2.57596e-06
2432.05	1.98164e-06
2440.73	1.46522e-06
2449.41	1.18106e-06
2458.09	1.37316e-06
2466.77	1.94192e-06
2475.44	2.53638e-06
2484.12	2.7174e-06
2492.8	2.51124e-06
2501.48	2.14433e-06
2510.16	1.59147e-06
2518.83	1.39045e-06
2527.51	1.34893e-06
2536.19	1.84162e-06
2544.87	2.05369e-06
2553.55	2.09188e-06
2562.23	1.71626e-06
2570.9	1.25956e-06
2579.58	9.26937e-07
2588.26	1.16144e-06
2596.94	1.55461e-06
2605.62	1.78862e-06
2614.29	1.76611e-06
2622.97	1.4257e-06
2631.65	1.25993e-06
2640.33	1.35855e-06
2649.01	1.56042e-06
2657.68	1.84115e-06
2666.36	2.04071e-06
2675.04	1.98797e-06
2683.72	1.82418e-06
2692.4	2.0099e-06
2701.08	2.67171e-06
2709.75	2.85611e-06
2718.43	2.5687e-06
2727.11	2.68336e-06
2735.79	2.7939e-06
2744.47	2.63031e-06
2753.14	2.80075e-06
2761.82	3.34815e-06
2770.5	4.08412e-06
2779.18	3.74425e-06
2787.86	2.7647e-06
2796.54	2.92553e-06
2805.21	3.45934e-06
2813.89	4.48091e-06
2822.57	6.22258e-06
2831.25	6.70511e-06
2839.93	6.73215e-06
2848.6	7.06094e-06
2857.28	8.11581e-06
2865.96	1.00014e-05
2874.64	1.82214e-05
2883.32	3.62477e-05
2892	4.40874e-05
2900.67	4.53403e-05
2909.35	5.7823e-05
2918.03	5.94159e-05
2926.71	5.63406e-05
2935.39	6.53725e-05
2944.06	9.54671e-05
2952.74	0.000103474
2961.42	9.49039e-05
2970.1	0.00011178
2978.78	0.000190386
2987.45	0.000261516
2996.13	0.000307616
3004.81	0.000174001
3013.49	0.000102103
3022.17	4.30326e-05
3030.85	2.46105e-05
3039.52	2.89681e-05
3048.2	3.35655e-05
3056.88	2.88599e-05
3065.56	1.18163e-05
3074.24	1.23419e-05
3082.91	1.2921e-05
3091.59	1.16774e-05
3100.27	1.03755e-05
3108.95	2.91526e-05
3117.63	2.67258e-05
3126.31	1.06746e-05
3134.98	4.39886e-06
3143.66	3.7438e-06
3152.34	3.85633e-06
3161.02	3.69831e-06
3169.7	2.99847e-06
3178.37	2.62628e-06
3187.05	2.25848e-06
3195.73	1.99869e-06
3204.41	1.75247e-06
3213.09	1.60629e-06
3221.77	1.65229e-06
3230.44	1.82732e-06
3239.12	2.05053e-06
3247.8	1.65978e-06
3256.48	1.24443e-06
3265.16	6.21718e-07
3273.83	1.80831e-07
3282.51	6.76231e-08
3291.19	-1.40528e-07
3299.87	-7.51424e-08
3308.55	1.22983e-07
3317.22	3.91907e-07
3325.9	4.84446e-07
3334.58	6.22588e-07
3343.26	7.63341e-07
3351.94	1.03821e-06
3360.62	1.49548e-06
3369.29	1.68103e-06
3377.97	1.79371e-06
3386.65	1.95785e-06
3395.33	1.59264e-06
3404.01	7.29092e-07
3412.68	3.23517e-07
3421.36	2.22168e-07
3430.04	3.71292e-07
3438.72	3.05411e-07
3447.4	6.00779e-07
3456.08	2.1843e-06
3464.75	6.1566e-06
3473.43	1.16134e-05
3482.11	1.26911e-05
3490.79	8.14901e-06
3499.47	2.61677e-06
3508.14	1.78558e-07
3516.82	-5.3543e-07
3525.5	-3.78539e-07
3534.18	-3.68225e-07
3542.86	-3.92839e-07
3551.53	-7.57099e-08
3560.21	-2.40095e-10
3568.89	2.35267e-07
3577.57	6.15152e-08
3586.25	-5.62295e-08
3594.93	4.31261e-08
3603.6	2.07173e-08
3612.28	8.99046e-08
3620.96	8.93917e-08
3629.64	1.11251e-07
3638.32	2.55883e-08
3646.99	1.13208e-08
3655.67	4.80153e-08
3664.35	1.42951e-07
3673.03	7.01077e-08
3681.71	1.14591e-08
3690.39	1.11062e-08
3699.06	9.42554e-08
3707.74	1.08814e-07
3716.42	2.34056e-07
3725.1	2.15591e-07
3733.78	3.33514e-07
3742.45	2.14667e-07
3751.13	3.58796e-07
3759.81	6.18702e-07
3768.49	5.81855e-07
3777.17	5.67482e-07
3785.85	5.07153e-07
3794.52	3.60997e-07
3803.2	2.55006e-07
3811.88	2.71867e-07
3820.56	1.49015e-07
3829.24	2.29673e-07
3837.91	3.49352e-07
3846.59	3.54722e-07
3855.27	2.61085e-07
3863.95	2.62344e-07
3872.63	2.44256e-07
3881.3	2.97896e-07
3889.98	4.18507e-07
3898.66	2.76175e-07
3907.34	3.76589e-07
3916.02	2.20851e-07
3924.7	1.74549e-07
3933.37	1.91505e-07
3942.05	2.24696e-07
3950.73	3.43881e-07
3959.41	4.12716e-07
3968.09	6.99291e-07
