Infrared Spectrum: 2-PROPENOIC ACID, ETHYL ESTER
Formula: C5 H8 O2
CAS: 140-88-5
State: SOLUTION (5% IN CCl4 FOR 3800-1300, 5% IN CS2 FOR 1300-600, AND 5% IN CCl4 FOR 600-240 CM^-^1) VERSUS SOLVENT
Class: COBLENTZ III
Instrument: PERKIN-ELMER 521 (GRATING)
Instrument parameters: FILTERS AT 3150, 2500, 2000, 1150, 700, 410; GRATING CHANGES AT 2000, 630 CM^-^1
Sampling: TRANSMISSION
Path length: 0.010, 0.010, AND 0.020 CM (CsBr CELL)
Resolution: 4
Origin: DOW CORNING CORP.
1/CM	TRANSMITTANCE
228.343	0.794
237.31	0.794
246.277	0.795
255.245	0.799
264.212	0.802
273.179	0.797
282.146	0.792
291.113	0.787
300.081	0.785
309.048	0.746
318.015	0.746
326.982	0.736
335.949	0.706
344.916	0.677
353.884	0.7259
362.851	0.738
371.818	0.689
380.785	0.7391
389.752	0.741
398.72	0.792
407.687	0.813
416.654	0.815
425.621	0.811
434.588	0.811
443.556	0.808
452.523	0.795
461.49	0.787
470.457	0.785
479.424	0.788
488.392	0.795
497.359	0.804
506.326	0.806
515.293	0.806
524.26	0.797
533.228	0.797
542.195	0.813
551.162	0.82
560.129	0.823
569.096	0.828
578.063	0.832
587.031	0.835
595.998	0.837
604.965	0.841
613.932	0.841
622.899	0.842
631.867	0.844
640.834	0.842
649.801	0.82
658.768	0.785
667.735	0.767
676.703	0.846
685.67	0.858
694.637	0.863
703.604	0.87
712.571	0.867
721.539	0.865
730.506	0.869
739.473	0.867
748.44	0.867
757.407	0.863
766.374	0.855
775.342	0.828
784.309	0.767
793.276	0.692
802.243	0.3833
811.21	0.4289
820.178	0.741
829.145	0.809
838.112	0.82
847.079	0.778
856.046	0.692
865.014	0.7989
873.981	0.844
882.948	0.839
891.915	0.832
900.882	0.801
909.85	0.788
918.817	0.8039
927.784	0.835
936.751	0.828
945.718	0.776
954.685	0.5465
963.653	0.2731
972.62	0.492
981.587	0.2141
990.554	0.5949
999.521	0.734
1008.49	0.729
1017.46	0.663
1026.42	0.347
1035.39	0.513
1044.36	0.588
1053.32	0.3571
1062.29	0.146
1071.26	0.5679
1080.23	0.677
1089.19	0.607
1098.16	0.5929
1107.13	0.687
1116.09	0.732
1125.06	0.766
1134.03	0.745
1143	0.712
1151.96	0.619
1160.93	0.4861
1169.9	0.308
1178.87	0.165
1187.83	0.001
1196.8	0.033
1205.77	0.24
1214.73	0.541
1223.7	0.6379
1232.67	0.647
1241.64	0.623
1250.6	0.5741
1259.57	0.2871
1268.54	0.094
1277.5	0.2924
1286.47	0.3801
1295.44	0.094
1304.41	0.4481
1313.37	0.703
1322.34	0.78
1331.31	0.816
1340.27	0.823
1349.24	0.82
1358.21	0.795
1367.18	0.678
1376.14	0.731
1385.11	0.469
1394.08	0.511
1403.05	0.2442
1412.01	0.2889
1420.98	0.687
1429.95	0.745
1438.91	0.705
1447.88	0.581
1456.85	0.668
1465.82	0.603
1474.78	0.663
1483.75	0.75
1492.72	0.827
1501.68	0.832
1510.65	0.839
1519.62	0.848
1528.59	0.858
1537.55	0.865
1546.52	0.863
1555.49	0.862
1564.45	0.855
1573.42	0.846
1582.39	0.839
1591.36	0.835
1600.32	0.815
1609.29	0.778
1618.26	0.6261
1627.22	0.664
1636.19	0.4643
1645.16	0.7798
1654.13	0.815
1663.09	0.802
1672.06	0.781
1681.03	0.736
1690	0.682
1698.96	0.656
1707.93	0.549
1716.9	0.24
1725.86	0.001
1734.83	0.017
1743.8	0.301
1752.77	0.6031
1761.73	0.708
1770.7	0.757
1779.67	0.785
1788.63	0.809
1797.6	0.816
1806.57	0.832
1815.54	0.839
1824.5	0.848
1833.47	0.851
1842.44	0.855
1851.4	0.858
1860.37	0.855
1869.34	0.855
1878.31	0.853
1887.27	0.851
1896.24	0.853
1905.21	0.848
1914.17	0.842
1923.14	0.825
1932.11	0.808
1941.08	0.83
1950.04	0.846
1959.01	0.853
1967.98	0.855
1976.95	0.856
1985.91	0.858
1994.88	0.874
2003.85	0.874
2012.81	0.867
2021.78	0.8615
2030.75	0.856
2039.72	0.8515
2048.68	0.846
2057.65	0.852
2066.62	0.856
2075.58	0.858
2084.55	0.858
2093.52	0.858
2102.49	0.858
2111.45	0.858
2120.42	0.858
2129.39	0.858
2138.35	0.862
2147.32	0.8609
2156.29	0.86
2165.26	0.86
2174.22	0.862
2183.19	0.863
2192.16	0.865
2201.13	0.867
2210.09	0.862
2219.06	0.862
2228.03	0.862
2236.99	0.862
2245.96	0.8619
2254.93	0.858
2263.9	0.858
2272.86	0.8617
2281.83	0.862
2290.8	0.86
2299.76	0.8598
2308.73	0.8572
2317.7	0.856
2326.67	0.858
2335.63	0.858
2344.6	0.855
2353.57	0.855
2362.53	0.855
2371.5	0.855
2380.47	0.853
2389.44	0.853
2398.4	0.855
2407.37	0.855
2416.34	0.855
2425.3	0.8563
2434.27	0.86
2443.24	0.858
2452.21	0.858
2461.17	0.8547
2470.14	0.855
2479.11	0.855
2488.08	0.8537
2497.04	0.853
2506.01	0.855
2514.98	0.855
2523.94	0.855
2532.91	0.8547
2541.88	0.853
2550.85	0.853
2559.81	0.8543
2568.78	0.855
2577.75	0.855
2586.71	0.855
2595.68	0.853
2604.65	0.853
2613.62	0.853
2622.58	0.853
2631.55	0.853
2640.52	0.8534
2649.48	0.855
2658.45	0.853
2667.42	0.8544
2676.39	0.853
2685.35	0.853
2694.32	0.853
2703.29	0.853
2712.25	0.8526
2721.22	0.851
2730.19	0.8526
2739.16	0.853
2748.12	0.851
2757.09	0.851
2766.06	0.8495
2775.03	0.851
2783.99	0.849
2792.96	0.849
2801.93	0.846
2810.89	0.8413
2819.86	0.839
2828.83	0.837
2837.8	0.8362
2846.76	0.827
2855.73	0.8225
2864.7	0.8034
2873.66	0.755
2882.63	0.7791
2891.6	0.7547
2900.57	0.7067
2909.53	0.6853
2918.5	0.7213
2927.47	0.6927
2936.43	0.6441
2945.4	0.6645
2954.37	0.6563
2963.34	0.5951
2972.3	0.5427
2981.27	0.3875
2990.24	0.4114
2999.21	0.5138
3008.17	0.6887
3017.14	0.7669
3026.11	0.7965
3035.07	0.7825
3044.04	0.8101
3053.01	0.8257
3061.98	0.8348
3070.94	0.832
3079.91	0.8382
3088.88	0.841
3097.84	0.8373
3106.81	0.8257
3115.78	0.8463
3124.75	0.8517
3133.71	0.853
3142.68	0.853
3151.65	0.853
3160.61	0.855
3169.58	0.8559
3178.55	0.856
3187.52	0.858
3196.48	0.858
3205.45	0.858
3214.42	0.862
3223.38	0.8629
3232.35	0.8626
3241.32	0.862
3250.29	0.867
3259.25	0.867
3268.22	0.8678
3277.19	0.869
3286.16	0.8694
3295.12	0.87
3304.09	0.87
3313.06	0.872
3322.02	0.87
3330.99	0.869
3339.96	0.8662
3348.93	0.865
3357.89	0.8661
3366.86	0.8668
3375.83	0.869
3384.79	0.8699
3393.76	0.8696
3402.73	0.869
3411.7	0.8626
3420.66	0.856
3429.63	0.8407
3438.6	0.8389
3447.56	0.8493
3456.53	0.8628
3465.5	0.867
3474.47	0.8719
3483.43	0.872
3492.4	0.872
3501.37	0.874
3510.34	0.872
3519.3	0.8729
3528.27	0.874
3537.24	0.872
3546.2	0.874
3555.17	0.874
3564.14	0.877
3573.11	0.8765
3582.07	0.8899
3591.04	0.879
3600.01	0.881
3608.97	0.883
3617.94	0.883
3626.91	0.887
3635.88	0.879
3644.84	0.89
3653.81	0.881
3662.78	0.8825
3671.74	0.8899
3680.71	0.881
3689.68	0.879
3698.65	0.8821
3707.61	0.884
3716.58	0.8851
3725.55	0.891
3734.51	0.8941
3743.48	0.893
3752.45	0.8878
3761.42	0.886
3770.38	0.8834
3779.35	0.8831
3788.32	0.8871
