Infrared Spectrum: Ethyl Ester-Propenoic Acid
Formula: C H2: C H C O2 C2 H5
CAS: 140-88-5
State: gas
Melting point: -71.2 C
Boiling point: 99.8 C
Class: IUPAC A
Instrument: IFS66V (Bruker)
Instrument parameters: KBr Beam splitter; MCT Detector; Multipass cell
Sampling: 1 L/min Flow
Resolution: 1.9290
Temperature: 23 C
Pressure: 101.3 kPa
Origin: NIST, Anayltical Chemistry Division, 301-975-3108
cm-1	(micromol/mol)-1m-1 (base 10)
574.687	5.24869e-07
583.365	6.96952e-07
592.043	1.21416e-06
600.721	3.67638e-06
609.4	7.40763e-06
618.078	7.67713e-06
626.756	4.25599e-06
635.434	2.8339e-06
644.112	5.82141e-06
652.79	1.40631e-05
661.469	2.0442e-05
670.147	2.03155e-05
678.825	1.16262e-05
687.503	4.27758e-06
696.181	1.50629e-06
704.859	8.6962e-07
713.537	8.81417e-07
722.216	1.04547e-06
730.894	1.31612e-06
739.572	1.54433e-06
748.25	1.9965e-06
756.928	2.59851e-06
765.606	3.88239e-06
774.285	8.31648e-06
782.963	1.9934e-05
791.641	4.47364e-05
800.319	8.21519e-05
808.997	0.000119175
817.675	0.000113002
826.353	6.61482e-05
835.032	3.00852e-05
843.71	2.27037e-05
852.388	3.64151e-05
861.066	4.27667e-05
869.744	3.39681e-05
878.422	1.81557e-05
887.101	1.27273e-05
895.779	1.94866e-05
904.457	2.33547e-05
913.135	2.5354e-05
921.813	2.011e-05
930.491	1.38614e-05
939.169	1.70381e-05
947.848	4.35858e-05
956.526	8.86142e-05
965.204	0.00014419
973.882	0.000159343
982.56	0.000162754
991.238	0.000156865
999.917	9.21533e-05
1008.59	4.55775e-05
1017.27	4.19043e-05
1025.95	0.000107222
1034.63	0.000190322
1043.31	0.000201288
1051.99	0.000148619
1060.66	0.000261527
1069.34	0.000334737
1078.02	0.00025043
1086.7	0.000117372
1095.38	0.000113062
1104.05	0.000109304
1112.73	7.89528e-05
1121.41	4.87565e-05
1130.09	3.72893e-05
1138.77	3.10672e-05
1147.45	3.64455e-05
1156.12	5.52837e-05
1164.8	0.000113131
1173.48	0.000253991
1182.16	0.00070514
1190.84	0.00184233
1199.51	0.00206496
1208.19	0.000912768
1216.87	0.000297571
1225.55	0.000128971
1234.23	8.88651e-05
1242.9	7.94249e-05
1251.58	9.6851e-05
1260.26	0.000281065
1268.94	0.000586322
1277.62	0.00064908
1286.3	0.000383339
1294.97	0.000413795
1303.65	0.000439775
1312.33	0.000192608
1321.01	7.44198e-05
1329.69	3.24167e-05
1338.36	1.71578e-05
1347.04	1.44849e-05
1355.72	1.77273e-05
1364.4	3.26978e-05
1373.08	4.7111e-05
1381.76	8.70723e-05
1390.43	0.000146758
1399.11	0.000263243
1407.79	0.000434991
1416.47	0.000408474
1425.15	0.000128215
1433.82	5.05364e-05
1442.5	5.30383e-05
1451.18	6.50885e-05
1459.86	7.16205e-05
1468.54	7.90699e-05
1477.22	7.21337e-05
1485.89	4.33236e-05
1494.57	3.23038e-05
1503.25	2.01758e-05
1511.93	1.49353e-05
1520.61	1.21142e-05
1529.28	9.26432e-06
1537.96	7.23476e-06
1546.64	6.63814e-06
1555.32	7.36595e-06
1564	8.36117e-06
1572.67	8.51532e-06
1581.35	8.24057e-06
1590.03	8.87068e-06
1598.71	1.12451e-05
1607.39	1.92138e-05
1616.07	3.836e-05
1624.74	5.28642e-05
1633.42	8.94146e-05
1642.1	0.000101653
1650.78	7.86981e-05
1659.46	1.49661e-05
1668.13	1.11092e-05
1676.81	1.19037e-05
1685.49	1.40101e-05
1694.17	1.88001e-05
1702.85	2.73631e-05
1711.53	4.00564e-05
1720.2	7.97401e-05
1728.88	0.000248775
1737.56	0.000708963
1746.24	0.00104927
1754.92	0.00112253
1763.59	0.000480048
1772.27	0.000143559
1780.95	4.22677e-05
1789.63	2.29238e-05
1798.31	1.70024e-05
1806.98	1.41767e-05
1815.66	1.17285e-05
1824.34	1.11055e-05
1833.02	1.00982e-05
1841.7	8.42395e-06
1850.38	6.26564e-06
1859.05	4.89283e-06
1867.73	4.27026e-06
1876.41	5.092e-06
1885.09	7.18297e-06
1893.77	8.36635e-06
1902.44	8.30162e-06
1911.12	1.00696e-05
1919.8	1.63912e-05
1928.48	2.67346e-05
1937.16	2.33838e-05
1945.84	1.34949e-05
1954.51	8.77028e-06
1963.19	6.24341e-06
1971.87	4.90032e-06
1980.55	4.35943e-06
1989.23	4.1231e-06
1997.9	3.45132e-06
2006.58	2.76628e-06
2015.26	2.90769e-06
2023.94	3.5207e-06
2032.62	4.86988e-06
2041.3	8.43059e-06
2049.97	1.37958e-05
2058.65	1.60298e-05
2067.33	1.12793e-05
2076.01	7.20333e-06
2084.69	5.57451e-06
2093.36	5.5627e-06
2102.04	5.04716e-06
2110.72	4.27e-06
2119.4	4.38327e-06
2128.08	4.40725e-06
2136.75	3.96817e-06
2145.43	3.32225e-06
2154.11	2.96518e-06
2162.79	3.13163e-06
2171.47	2.63475e-06
2180.15	1.74402e-06
2188.82	1.58276e-06
2197.5	1.62833e-06
2206.18	1.50152e-06
2214.86	1.45717e-06
2223.54	1.68248e-06
2232.21	1.80229e-06
2240.89	1.83005e-06
2249.57	1.86417e-06
2258.25	1.83379e-06
2266.93	1.94796e-06
2275.61	1.91706e-06
2284.28	1.85193e-06
2292.96	1.91774e-06
2301.64	2.32518e-06
2310.32	2.87344e-06
2319	3.10543e-06
2327.67	2.93532e-06
2336.35	2.37018e-06
2345.03	1.96445e-06
2353.71	2.39896e-06
2362.39	3.56461e-06
2371.06	4.95815e-06
2379.74	6.54867e-06
2388.42	7.20741e-06
2397.1	5.45977e-06
2405.78	3.42613e-06
2414.46	2.81769e-06
2423.13	2.58666e-06
2431.81	2.03621e-06
2440.49	1.45862e-06
2449.17	1.21791e-06
2457.85	1.33425e-06
2466.52	1.9385e-06
2475.2	2.53423e-06
2483.88	2.72915e-06
2492.56	2.5255e-06
2501.24	2.17724e-06
2509.92	1.61407e-06
2518.59	1.33611e-06
2527.27	1.4607e-06
2535.95	1.83423e-06
2544.63	2.03414e-06
2553.31	2.03777e-06
2561.98	1.71261e-06
2570.66	1.2965e-06
2579.34	9.51758e-07
2588.02	1.1324e-06
2596.7	1.55252e-06
2605.38	1.79427e-06
2614.05	1.71615e-06
2622.73	1.41219e-06
2631.41	1.21958e-06
2640.09	1.29617e-06
2648.77	1.53266e-06
2657.44	1.82072e-06
2666.12	1.99017e-06
2674.8	2.01745e-06
2683.48	1.87686e-06
2692.16	2.05298e-06
2700.83	2.76191e-06
2709.51	2.96468e-06
2718.19	2.58465e-06
2726.87	2.64772e-06
2735.55	2.92126e-06
2744.23	2.5815e-06
2752.9	2.82178e-06
2761.58	3.35686e-06
2770.26	4.04829e-06
2778.94	3.7189e-06
2787.62	2.76775e-06
2796.29	2.95114e-06
2804.97	3.43094e-06
2813.65	4.42369e-06
2822.33	6.22509e-06
2831.01	6.78848e-06
2839.69	6.7757e-06
2848.36	7.15653e-06
2857.04	8.15228e-06
2865.72	1.00059e-05
2874.4	1.77681e-05
2883.08	3.59832e-05
2891.75	4.3809e-05
2900.43	4.51564e-05
2909.11	5.73501e-05
2917.79	5.99667e-05
2926.47	5.65287e-05
2935.14	6.46369e-05
2943.82	9.44681e-05
2952.5	0.000103545
2961.18	9.51623e-05
2969.86	0.000110678
2978.54	0.000187198
2987.21	0.000260978
2995.89	0.000317942
3004.57	0.00017705
3013.25	0.000104206
3021.93	4.43444e-05
3030.6	2.49839e-05
3039.28	2.8624e-05
3047.96	3.36817e-05
3056.64	2.92568e-05
3065.32	1.20375e-05
3074	1.23519e-05
3082.67	1.29774e-05
3091.35	1.18709e-05
3100.03	1.04783e-05
3108.71	2.86202e-05
3117.39	2.64549e-05
3126.06	1.14887e-05
3134.74	4.53675e-06
3143.42	3.70432e-06
3152.1	3.89571e-06
3160.78	3.63217e-06
3169.46	3.11606e-06
3178.13	2.67944e-06
3186.81	2.265e-06
3195.49	1.97807e-06
3204.17	1.79872e-06
3212.85	1.66898e-06
3221.52	1.6769e-06
3230.2	1.82916e-06
3238.88	1.90859e-06
3247.56	1.76713e-06
3256.24	1.23091e-06
3264.91	5.88138e-07
3273.59	2.19727e-07
3282.27	7.51024e-08
3290.95	-3.61343e-08
3299.63	-1.06515e-07
3308.31	1.08301e-07
3316.98	3.7513e-07
3325.66	5.07782e-07
3334.34	6.23784e-07
3343.02	7.69238e-07
3351.7	1.08701e-06
3360.37	1.46472e-06
3369.05	1.5769e-06
3377.73	1.58333e-06
3386.41	1.84088e-06
3395.09	1.55929e-06
3403.77	6.85314e-07
3412.44	3.66363e-07
3421.12	2.52321e-07
3429.8	2.54235e-07
3438.48	2.86375e-07
3447.16	5.91841e-07
3455.83	2.09648e-06
3464.51	6.07472e-06
3473.19	1.1397e-05
3481.87	1.25281e-05
3490.55	8.40821e-06
3499.22	2.69418e-06
3507.9	2.0893e-07
3516.58	-4.05076e-07
3525.26	-4.79786e-07
3533.94	-4.70037e-07
3542.62	-2.96095e-07
3551.29	-1.29975e-07
3559.97	9.56232e-08
3568.65	1.47898e-07
3577.33	4.37955e-08
3586.01	4.31079e-09
3594.68	5.305e-08
3603.36	7.1832e-08
3612.04	9.93192e-08
3620.72	8.02099e-08
3629.4	7.32689e-08
3638.08	3.4992e-08
3646.75	5.36576e-09
3655.43	3.73929e-08
3664.11	3.21545e-08
3672.79	3.49229e-08
3681.47	3.40935e-08
3690.14	3.63744e-08
3698.82	5.09401e-08
3707.5	9.3084e-08
3716.18	1.65451e-07
3724.86	2.17078e-07
3733.54	2.80252e-07
3742.21	2.75505e-07
3750.89	3.48792e-07
3759.57	4.51953e-07
3768.25	5.74969e-07
3776.93	6.16698e-07
3785.6	5.46783e-07
3794.28	4.01871e-07
3802.96	3.63293e-07
3811.64	2.49648e-07
3820.32	2.19294e-07
3828.99	2.52794e-07
3837.67	3.62885e-07
3846.35	3.62936e-07
3855.03	3.37348e-07
3863.71	2.4721e-07
3872.39	2.35533e-07
3881.06	2.39069e-07
3889.74	3.20086e-07
3898.42	3.37115e-07
3907.1	3.63522e-07
3915.78	3.29341e-07
3924.45	2.18359e-07
3933.13	2.15569e-07
3941.81	1.91465e-07
3950.49	3.06514e-07
3959.17	3.61634e-07
3967.85	5.33367e-07
