Infrared Spectrum: Ethyl Ester-Propenoic Acid
Formula: C H2: C H C O2 C2 H5
CAS: 140-88-5
State: gas
Melting point: -71.2 C
Boiling point: 99.8 C
Class: IUPAC A
Instrument: IFS66V (Bruker)
Instrument parameters: KBr Beam splitter; MCT Detector; Multipass cell
Sampling: 1 L/min Flow
Resolution: 0.1250
Temperature: 23 C
Pressure: 101.3 kPa
Origin: NIST, Anayltical Chemistry Division, 301-975-3108
cm-1	(micromol/mol)-1m-1 (base 10)
574.988	5.9091e-07
583.546	1.24405e-06
592.103	1.13394e-06
600.661	3.71514e-06
609.219	7.4349e-06
617.776	7.41722e-06
626.334	4.08555e-06
634.891	2.29005e-06
643.449	5.45066e-06
652.007	1.32292e-05
660.564	2.01772e-05
669.122	2.13913e-05
677.68	1.22354e-05
686.237	4.98504e-06
694.795	1.78328e-06
703.352	8.28218e-07
711.91	8.92694e-07
720.468	9.61703e-07
729.025	1.07625e-06
737.583	1.68091e-06
746.141	1.86368e-06
754.698	2.39877e-06
763.256	3.27444e-06
771.813	6.46808e-06
780.371	1.54827e-05
788.929	3.55557e-05
797.486	6.88656e-05
806.044	0.000111988
814.602	0.000129429
823.159	8.19071e-05
831.717	4.12153e-05
840.274	2.20073e-05
848.832	2.97628e-05
857.39	4.17933e-05
865.947	4.03176e-05
874.505	2.49714e-05
883.063	1.35282e-05
891.62	1.55236e-05
900.178	2.16052e-05
908.735	2.51262e-05
917.293	2.19772e-05
925.851	1.90597e-05
934.408	1.32602e-05
942.966	2.48451e-05
951.524	6.23317e-05
960.081	0.000114289
968.639	0.000162744
977.196	0.000164536
985.754	0.000183697
994.312	0.000125489
1002.87	7.37611e-05
1011.43	3.85684e-05
1019.98	5.28829e-05
1028.54	0.000139005
1037.1	0.00019773
1045.66	0.000178061
1054.22	0.000160113
1062.77	0.000289746
1071.33	0.000325122
1079.89	0.00020381
1088.45	0.000108656
1097	0.000113352
1105.56	0.000107299
1114.12	7.19143e-05
1122.68	4.75622e-05
1131.23	3.51511e-05
1139.79	3.12576e-05
1148.35	3.74344e-05
1156.91	5.81491e-05
1165.46	0.000120742
1174.02	0.000264739
1182.58	0.00074329
1191.14	0.00187795
1199.69	0.00206695
1208.25	0.000891871
1216.81	0.000298194
1225.37	0.000130185
1233.93	8.90544e-05
1242.48	7.97146e-05
1251.04	9.27583e-05
1259.6	0.000255543
1268.16	0.000561388
1276.71	0.000661605
1285.27	0.000410174
1293.83	0.000399233
1302.39	0.000411977
1310.94	0.000229052
1319.5	8.69554e-05
1328.06	3.75487e-05
1336.62	1.84991e-05
1345.17	1.45954e-05
1353.73	1.59194e-05
1362.29	2.97496e-05
1370.85	4.2997e-05
1379.4	7.05025e-05
1387.96	0.000134098
1396.52	0.000213529
1405.08	0.000414952
1413.64	0.000437105
1422.19	0.000220501
1430.75	5.82864e-05
1439.31	4.9813e-05
1447.87	5.90676e-05
1456.42	6.90039e-05
1464.98	7.78398e-05
1473.54	7.49198e-05
1482.1	5.93831e-05
1490.65	3.87152e-05
1499.21	2.44428e-05
1507.77	1.68285e-05
1516.33	1.35947e-05
1524.88	1.06589e-05
1533.44	8.00981e-06
1542	6.86346e-06
1550.56	6.73604e-06
1559.11	8.04194e-06
1567.67	8.70698e-06
1576.23	8.26038e-06
1584.79	8.48609e-06
1593.35	9.39733e-06
1601.9	1.31224e-05
1610.46	2.45897e-05
1619.02	4.59975e-05
1627.58	6.08119e-05
1636.13	0.000108799
1644.69	9.46994e-05
1653.25	4.47895e-05
1661.81	1.29806e-05
1670.36	1.09594e-05
1678.92	1.24024e-05
1687.48	1.48624e-05
1696.04	2.04365e-05
1704.59	2.81021e-05
1713.15	4.41228e-05
1721.71	9.53012e-05
1730.27	0.000296446
1738.83	0.000805761
1747.38	0.0010049
1755.94	0.00107485
1764.5	0.000427617
1773.06	0.000126074
1781.61	3.9146e-05
1790.17	2.24553e-05
1798.73	1.67606e-05
1807.29	1.40948e-05
1815.84	1.16726e-05
1824.4	1.11059e-05
1832.96	1.01875e-05
1841.52	8.52869e-06
1850.07	6.33691e-06
1858.63	4.90698e-06
1867.19	4.28083e-06
1875.75	4.95708e-06
1884.3	6.95422e-06
1892.86	8.30388e-06
1901.42	8.39033e-06
1909.98	9.55064e-06
1918.54	1.5258e-05
1927.09	2.49776e-05
1935.65	2.44885e-05
1944.21	1.60833e-05
1952.77	8.79009e-06
1961.32	6.83279e-06
1969.88	5.03641e-06
1978.44	4.37454e-06
1987	4.21368e-06
1995.55	3.87369e-06
2004.11	2.80968e-06
2012.67	2.78825e-06
2021.23	3.2682e-06
2029.78	4.30366e-06
2038.34	6.81407e-06
2046.9	1.22675e-05
2055.46	1.58105e-05
2064.01	1.31833e-05
2072.57	8.60296e-06
2081.13	5.79235e-06
2089.69	5.59342e-06
2098.25	5.36629e-06
2106.8	4.47944e-06
2115.36	4.25806e-06
2123.92	4.40945e-06
2132.48	4.20687e-06
2141.03	3.61413e-06
2149.59	3.10747e-06
2158.15	2.99863e-06
2166.71	2.9266e-06
2175.26	2.29554e-06
2183.82	1.57244e-06
2192.38	1.58218e-06
2200.94	1.58843e-06
2209.49	1.48324e-06
2218.05	1.52574e-06
2226.61	1.77066e-06
2235.17	1.88167e-06
2243.72	1.81293e-06
2252.28	1.85728e-06
2260.84	1.8649e-06
2269.4	1.90881e-06
2277.96	1.87762e-06
2286.51	1.87633e-06
2295.07	1.98621e-06
2303.63	2.44553e-06
2312.19	3.01828e-06
2320.74	3.07465e-06
2329.3	2.86279e-06
2337.86	2.31388e-06
2346.42	1.91607e-06
2354.97	2.50362e-06
2363.53	3.67873e-06
2372.09	5.09395e-06
2380.65	6.67931e-06
2389.2	7.20301e-06
2397.76	5.24092e-06
2406.32	3.33287e-06
2414.88	2.76835e-06
2423.44	2.54729e-06
2431.99	1.99248e-06
2440.55	1.42562e-06
2449.11	1.2988e-06
2457.67	1.38436e-06
2466.22	1.89988e-06
2474.78	2.55612e-06
2483.34	2.77415e-06
2491.9	2.57264e-06
2500.45	2.24287e-06
2509.01	1.6116e-06
2517.57	1.29544e-06
2526.13	1.47558e-06
2534.68	1.70877e-06
2543.24	1.97936e-06
2551.8	2.02791e-06
2560.36	1.81654e-06
2568.91	1.44922e-06
2577.47	9.78561e-07
2586.03	1.11404e-06
2594.59	1.48756e-06
2603.15	1.79156e-06
2611.7	1.7784e-06
2620.26	1.52807e-06
2628.82	1.34745e-06
2637.38	1.21902e-06
2645.93	1.43374e-06
2654.49	1.69349e-06
2663.05	2.01557e-06
2671.61	2.0473e-06
2680.16	1.92734e-06
2688.72	1.93305e-06
2697.28	2.5016e-06
2705.84	2.9927e-06
2714.39	2.72402e-06
2722.95	2.66849e-06
2731.51	2.82572e-06
2740.07	2.64929e-06
2748.62	2.70857e-06
2757.18	2.89205e-06
2765.74	3.78578e-06
2774.3	4.03572e-06
2782.86	3.15001e-06
2791.41	2.72878e-06
2799.97	3.14055e-06
2808.53	3.73546e-06
2817.09	5.25719e-06
2825.64	6.46161e-06
2834.2	6.80415e-06
2842.76	6.73884e-06
2851.32	7.34127e-06
2859.87	8.44661e-06
2868.43	1.12315e-05
2876.99	2.33855e-05
2885.55	3.76819e-05
2894.1	4.41202e-05
2902.66	4.79711e-05
2911.22	5.99234e-05
2919.78	5.7578e-05
2928.34	5.50475e-05
2936.89	7.18484e-05
2945.45	9.67825e-05
2954.01	0.000102228
2962.57	9.66463e-05
2971.12	0.00011502
2979.68	0.000201195
2988.24	0.000262655
2996.8	0.000283131
3005.35	0.000168249
3013.91	9.79604e-05
3022.47	4.20353e-05
3031.03	2.46564e-05
3039.58	2.90749e-05
3048.14	3.35568e-05
3056.7	2.93663e-05
3065.26	1.19424e-05
3073.81	1.22277e-05
3082.37	1.31473e-05
3090.93	1.21626e-05
3099.49	9.94581e-06
3108.05	2.8863e-05
3116.6	2.4006e-05
3125.16	1.34883e-05
3133.72	4.86315e-06
3142.28	3.77261e-06
3150.83	3.8355e-06
3159.39	3.73206e-06
3167.95	3.10226e-06
3176.51	2.70471e-06
3185.06	2.32677e-06
3193.62	1.94719e-06
3202.18	1.77537e-06
3210.74	1.54203e-06
3219.29	1.66667e-06
3227.85	1.81665e-06
3236.41	2.00976e-06
3244.97	1.86125e-06
3253.52	1.52921e-06
3262.08	7.41344e-07
3270.64	3.43303e-07
3279.2	9.64235e-08
3287.76	7.36727e-08
3296.31	-7.14464e-08
3304.87	-1.90257e-08
3313.43	1.7739e-07
3321.99	5.04104e-07
3330.54	5.65569e-07
3339.1	6.05446e-07
3347.66	8.97955e-07
3356.22	1.2266e-06
3364.77	1.55205e-06
3373.33	1.56944e-06
3381.89	1.6046e-06
3390.45	1.81471e-06
3399	1.24523e-06
3407.56	4.56493e-07
3416.12	3.87982e-07
3424.68	2.1901e-07
3433.23	4.58065e-07
3441.79	4.46049e-07
3450.35	7.96635e-07
3458.91	3.07273e-06
3467.47	7.9867e-06
3476.02	1.20712e-05
3484.58	1.24763e-05
3493.14	6.46566e-06
3501.7	1.49053e-06
3510.25	8.0701e-08
3518.81	-4.15393e-07
3527.37	-3.75228e-07
3535.93	-2.02956e-07
3544.48	-1.55738e-07
3553.04	-2.0869e-07
3561.6	1.17206e-07
3570.16	1.52413e-07
3578.71	-2.05536e-08
3587.27	-6.32977e-10
3595.83	1.13041e-07
3604.39	9.15052e-08
3612.95	1.16191e-08
3621.5	3.00992e-08
3630.06	1.42809e-07
3638.62	1.56549e-07
3647.18	3.80659e-08
3655.73	-7.18502e-08
3664.29	1.16242e-07
3672.85	2.54646e-11
3681.41	-1.08188e-08
3689.96	-2.07173e-08
3698.52	-1.92949e-08
3707.08	1.25093e-07
3715.64	1.38902e-07
3724.19	2.64424e-07
3732.75	4.43135e-07
3741.31	3.69131e-07
3749.87	3.66836e-07
3758.42	3.99427e-07
3766.98	5.13501e-07
3775.54	6.04479e-07
3784.1	5.40457e-07
3792.66	4.86938e-07
3801.21	3.25601e-07
3809.77	2.34973e-07
3818.33	2.49939e-07
3826.89	3.43663e-07
3835.44	3.6008e-07
3844	3.41346e-07
3852.56	3.92988e-07
3861.12	2.90478e-07
3869.67	1.90606e-07
3878.23	2.85436e-07
3886.79	3.32877e-07
3895.35	3.1029e-07
3903.9	3.04568e-07
3912.46	3.84224e-07
3921.02	2.33805e-07
3929.58	6.71574e-08
3938.13	1.38877e-07
3946.69	3.42219e-07
3955.25	3.79579e-07
3963.81	4.87083e-07
3972.37	6.46026e-07
