Infrared Spectrum: Ethyl Ester-Propenoic Acid
Formula: C H2: C H C O2 C2 H5
CAS: 140-88-5
State: gas
Melting point: -71.2 C
Boiling point: 99.8 C
Class: IUPAC A
Instrument: IFS66V (Bruker)
Instrument parameters: KBr Beam splitter; MCT Detector; Multipass cell
Sampling: 1 L/min Flow
Resolution: 1.9290
Temperature: 23 C
Pressure: 101.3 kPa
Origin: NIST, Anayltical Chemistry Division, 301-975-3108
cm-1	(micromol/mol)-1m-1 (base 10)
574.687	4.90776e-07
583.365	7.28135e-07
592.043	1.24172e-06
600.721	3.62762e-06
609.4	7.48114e-06
618.078	7.69095e-06
626.756	4.25066e-06
635.434	2.81459e-06
644.112	5.81049e-06
652.79	1.40811e-05
661.469	2.04237e-05
670.147	2.03404e-05
678.825	1.16422e-05
687.503	4.25884e-06
696.181	1.49593e-06
704.859	8.62093e-07
713.537	8.70769e-07
722.216	1.04764e-06
730.894	1.31876e-06
739.572	1.53084e-06
748.25	1.99394e-06
756.928	2.58884e-06
765.606	3.88188e-06
774.285	8.30111e-06
782.963	1.99443e-05
791.641	4.4707e-05
800.319	8.20765e-05
808.997	0.000118903
817.675	0.000113111
826.353	6.61636e-05
835.032	3.00101e-05
843.71	2.26584e-05
852.388	3.6449e-05
861.066	4.28243e-05
869.744	3.39612e-05
878.422	1.81315e-05
887.101	1.26878e-05
895.779	1.95172e-05
904.457	2.33582e-05
913.135	2.53959e-05
921.813	2.0052e-05
930.491	1.38172e-05
939.169	1.69925e-05
947.848	4.35342e-05
956.526	8.85703e-05
965.204	0.00014108
973.882	0.000159427
982.56	0.000162512
991.238	0.000157699
999.917	9.21698e-05
1008.59	4.54726e-05
1017.27	4.17839e-05
1025.95	0.000107144
1034.63	0.000190529
1043.31	0.000201848
1051.99	0.00014817
1060.66	0.000261892
1069.34	0.000335713
1078.02	0.00025032
1086.7	0.000117111
1095.38	0.00011319
1104.05	0.00010934
1112.73	7.891e-05
1121.41	4.8617e-05
1130.09	3.72557e-05
1138.77	3.10465e-05
1147.45	3.64218e-05
1156.12	5.52185e-05
1164.8	0.000112928
1173.48	0.000253422
1182.16	0.000702961
1190.84	0.00184675
1199.51	0.00206386
1208.19	0.000908363
1216.87	0.000296858
1225.55	0.000128796
1234.23	8.87884e-05
1242.9	7.93868e-05
1251.58	9.655e-05
1260.26	0.000280737
1268.94	0.000586636
1277.62	0.000650245
1286.3	0.000382824
1294.97	0.000415239
1303.65	0.000440797
1312.33	0.000191843
1321.01	7.42901e-05
1329.69	3.2355e-05
1338.36	1.71577e-05
1347.04	1.44606e-05
1355.72	1.77066e-05
1364.4	3.27427e-05
1373.08	4.70324e-05
1381.76	8.69128e-05
1390.43	0.000146913
1399.11	0.000262838
1407.79	0.000434773
1416.47	0.00040957
1425.15	0.000127406
1433.82	5.04527e-05
1442.5	5.3028e-05
1451.18	6.50829e-05
1459.86	7.16775e-05
1468.54	7.90716e-05
1477.22	7.22226e-05
1485.89	4.31431e-05
1494.57	3.22977e-05
1503.25	2.01715e-05
1511.93	1.49293e-05
1520.61	1.21133e-05
1529.28	9.26181e-06
1537.96	7.23245e-06
1546.64	6.6358e-06
1555.32	7.36351e-06
1564	8.35517e-06
1572.67	8.51884e-06
1581.35	8.2405e-06
1590.03	8.8642e-06
1598.71	1.12402e-05
1607.39	1.91888e-05
1616.07	3.83619e-05
1624.74	5.27202e-05
1633.42	8.9306e-05
1642.1	0.000102347
1650.78	7.89205e-05
1659.46	1.49067e-05
1668.13	1.11029e-05
1676.81	1.18983e-05
1685.49	1.40045e-05
1694.17	1.87832e-05
1702.85	2.74092e-05
1711.53	4.01021e-05
1720.2	7.94798e-05
1728.88	0.000248204
1737.56	0.000708402
1746.24	0.00104945
1754.92	0.00112722
1763.59	0.0004792
1772.27	0.000143074
1780.95	4.21271e-05
1789.63	2.29021e-05
1798.31	1.69923e-05
1806.98	1.41802e-05
1815.66	1.1724e-05
1824.34	1.11056e-05
1833.02	1.01048e-05
1841.7	8.43381e-06
1850.38	6.26139e-06
1859.05	4.88921e-06
1867.73	4.26758e-06
1876.41	5.08977e-06
1885.09	7.18316e-06
1893.77	8.37256e-06
1902.44	8.29641e-06
1911.12	1.00613e-05
1919.8	1.63891e-05
1928.48	2.68043e-05
1937.16	2.33037e-05
1945.84	1.34564e-05
1954.51	8.77056e-06
1963.19	6.23383e-06
1971.87	4.90241e-06
1980.55	4.35802e-06
1989.23	4.12532e-06
1997.9	3.45389e-06
2006.58	2.76671e-06
2015.26	2.90386e-06
2023.94	3.51938e-06
2032.62	4.8648e-06
2041.3	8.42789e-06
2049.97	1.38021e-05
2058.65	1.60564e-05
2067.33	1.12769e-05
2076.01	7.19564e-06
2084.69	5.56677e-06
2093.36	5.56431e-06
2102.04	5.05027e-06
2110.72	4.26935e-06
2119.4	4.38085e-06
2128.08	4.40837e-06
2136.75	3.96904e-06
2145.43	3.32109e-06
2154.11	2.96419e-06
2162.79	3.13052e-06
2171.47	2.63384e-06
2180.15	1.73654e-06
2188.82	1.58551e-06
2197.5	1.62809e-06
2206.18	1.50321e-06
2214.86	1.45376e-06
2223.54	1.6846e-06
2232.21	1.8032e-06
2240.89	1.82966e-06
2249.57	1.86298e-06
2258.25	1.83393e-06
2266.93	1.94734e-06
2275.61	1.92205e-06
2284.28	1.84968e-06
2292.96	1.92085e-06
2301.64	2.32716e-06
2310.32	2.87233e-06
2319	3.10546e-06
2327.67	2.93387e-06
2336.35	2.36558e-06
2345.03	1.96139e-06
2353.71	2.39404e-06
2362.39	3.5625e-06
2371.06	4.95718e-06
2379.74	6.55151e-06
2388.42	7.20997e-06
2397.1	5.45888e-06
2405.78	3.42473e-06
2414.46	2.81812e-06
2423.13	2.58542e-06
2431.81	2.03537e-06
2440.49	1.455e-06
2449.17	1.22369e-06
2457.85	1.33947e-06
2466.52	1.94559e-06
2475.2	2.53376e-06
2483.88	2.73127e-06
2492.56	2.52353e-06
2501.24	2.1789e-06
2509.92	1.61157e-06
2518.59	1.33748e-06
2527.27	1.45906e-06
2535.95	1.83647e-06
2544.63	2.03704e-06
2553.31	2.0393e-06
2561.98	1.70948e-06
2570.66	1.29803e-06
2579.34	9.49051e-07
2588.02	1.13808e-06
2596.7	1.552e-06
2605.38	1.79338e-06
2614.05	1.71693e-06
2622.73	1.41089e-06
2631.41	1.22175e-06
2640.09	1.2951e-06
2648.77	1.53478e-06
2657.44	1.82164e-06
2666.12	1.98981e-06
2674.8	2.01855e-06
2683.48	1.88073e-06
2692.16	2.04661e-06
2700.83	2.75544e-06
2709.51	2.96489e-06
2718.19	2.57601e-06
2726.87	2.64797e-06
2735.55	2.9174e-06
2744.23	2.58019e-06
2752.9	2.82212e-06
2761.58	3.3518e-06
2770.26	4.04697e-06
2778.94	3.72638e-06
2787.62	2.75937e-06
2796.29	2.95722e-06
2804.97	3.42782e-06
2813.65	4.42704e-06
2822.33	6.22672e-06
2831.01	6.78635e-06
2839.69	6.76694e-06
2848.36	7.1531e-06
2857.04	8.15168e-06
2865.72	1.00065e-05
2874.4	1.77206e-05
2883.08	3.60297e-05
2891.75	4.38491e-05
2900.43	4.51058e-05
2909.11	5.73672e-05
2917.79	5.99533e-05
2926.47	5.65385e-05
2935.14	6.45612e-05
2943.82	9.46917e-05
2952.5	0.000103581
2961.18	9.50483e-05
2969.86	0.000110688
2978.54	0.000187187
2987.21	0.000260943
2995.89	0.000321268
3004.57	0.000176902
3013.25	0.000104217
3021.93	4.42531e-05
3030.6	2.49465e-05
3039.28	2.85822e-05
3047.96	3.36175e-05
3056.64	2.9339e-05
3065.32	1.20077e-05
3074	1.23434e-05
3082.67	1.29734e-05
3091.35	1.18693e-05
3100.03	1.04176e-05
3108.71	2.88732e-05
3117.39	2.61852e-05
3126.06	1.13965e-05
3134.74	4.53045e-06
3143.42	3.69849e-06
3152.1	3.90105e-06
3160.78	3.63225e-06
3169.46	3.11354e-06
3178.13	2.68574e-06
3186.81	2.26809e-06
3195.49	1.98495e-06
3204.17	1.80078e-06
3212.85	1.66721e-06
3221.52	1.67871e-06
3230.2	1.8285e-06
3238.88	1.91176e-06
3247.56	1.75959e-06
3256.24	1.2325e-06
3264.91	5.82786e-07
3273.59	2.16995e-07
3282.27	6.86889e-08
3290.95	-3.90954e-08
3299.63	-1.0817e-07
3308.31	1.09243e-07
3316.98	3.80492e-07
3325.66	5.09474e-07
3334.34	6.15105e-07
3343.02	7.68161e-07
3351.7	1.08728e-06
3360.37	1.46876e-06
3369.05	1.57389e-06
3377.73	1.58712e-06
3386.41	1.84449e-06
3395.09	1.5679e-06
3403.77	6.82364e-07
3412.44	3.67414e-07
3421.12	2.59408e-07
3429.8	2.6389e-07
3438.48	2.86066e-07
3447.16	6.01765e-07
3455.83	2.09443e-06
3464.51	6.08118e-06
3473.19	1.14107e-05
3481.87	1.25424e-05
3490.55	8.40248e-06
3499.22	2.69196e-06
3507.9	1.99748e-07
3516.58	-4.06528e-07
3525.26	-4.79284e-07
3533.94	-4.76308e-07
3542.62	-2.958e-07
3551.29	-1.26577e-07
3559.97	9.66927e-08
3568.65	1.52184e-07
3577.33	4.01322e-08
3586.01	-1.24049e-09
3594.68	5.29118e-08
3603.36	7.54625e-08
3612.04	9.95047e-08
3620.72	8.5612e-08
3629.4	8.03153e-08
3638.08	3.58651e-08
3646.75	4.91467e-09
3655.43	4.20311e-08
3664.11	2.85422e-08
3672.79	3.51994e-08
3681.47	3.44791e-08
3690.14	2.82584e-08
3698.82	4.42102e-08
3707.5	8.95153e-08
3716.18	1.65087e-07
3724.86	2.19028e-07
3733.54	2.83159e-07
3742.21	2.77346e-07
3750.89	3.42153e-07
3759.57	4.62845e-07
3768.25	5.72328e-07
3776.93	6.19172e-07
3785.6	5.43062e-07
3794.28	3.98546e-07
3802.96	3.57992e-07
3811.64	2.47163e-07
3820.32	2.16671e-07
3828.99	2.4466e-07
3837.67	3.70801e-07
3846.35	3.67254e-07
3855.03	3.36646e-07
3863.71	2.42194e-07
3872.39	2.26588e-07
3881.06	2.39851e-07
3889.74	3.23102e-07
3898.42	3.34336e-07
3907.1	3.62263e-07
3915.78	3.2555e-07
3924.45	2.19036e-07
3933.13	2.21255e-07
3941.81	1.83312e-07
3950.49	3.00046e-07
3959.17	3.60077e-07
3967.85	5.32188e-07
