Infrared Spectrum: Ethyl Ester-Propenoic Acid
Formula: C H2: C H C O2 C2 H5
CAS: 140-88-5
State: gas
Melting point: -71.2 C
Boiling point: 99.8 C
Class: IUPAC A
Instrument: IFS66V (Bruker)
Instrument parameters: KBr Beam splitter; MCT Detector; Multipass cell
Sampling: 1 L/min Flow
Resolution: 0.4820
Temperature: 23 C
Pressure: 101.3 kPa
Origin: NIST, Anayltical Chemistry Division, 301-975-3108
cm-1	(micromol/mol)-1m-1 (base 10)
574.928	5.11606e-07
583.606	9.88427e-07
592.284	1.08056e-06
600.962	3.7312e-06
609.641	7.8736e-06
618.319	7.62389e-06
626.997	4.14252e-06
635.675	2.86011e-06
644.353	5.9966e-06
653.031	1.44219e-05
661.71	2.04373e-05
670.388	2.00876e-05
679.066	1.16325e-05
687.744	4.07719e-06
696.422	1.44379e-06
705.1	8.23343e-07
713.778	7.76041e-07
722.457	1.07795e-06
731.135	1.25508e-06
739.813	1.50032e-06
748.491	1.99913e-06
757.169	2.61359e-06
765.847	3.95415e-06
774.526	8.50191e-06
783.204	2.0422e-05
791.882	4.55697e-05
800.56	8.29371e-05
809.238	0.000119765
817.916	0.000113151
826.594	6.49758e-05
835.273	2.92489e-05
843.951	2.27831e-05
852.629	3.69387e-05
861.307	4.29199e-05
869.985	3.34792e-05
878.663	1.77698e-05
887.342	1.26658e-05
896.02	1.96856e-05
904.698	2.34726e-05
913.376	2.5372e-05
922.054	1.99447e-05
930.732	1.35969e-05
939.41	1.72632e-05
948.089	4.46177e-05
956.767	8.98145e-05
965.445	0.000140842
974.123	0.000160133
982.801	0.000162132
991.479	0.000159302
1000.16	9.0661e-05
1008.84	4.45712e-05
1017.51	4.2367e-05
1026.19	0.000109941
1034.87	0.000192392
1043.55	0.000201091
1052.23	0.000148173
1060.9	0.000266293
1069.58	0.000337099
1078.26	0.000243323
1086.94	0.000115335
1095.62	0.000113506
1104.3	0.000109124
1112.97	7.76165e-05
1121.65	4.81332e-05
1130.33	3.67732e-05
1139.01	3.10736e-05
1147.69	3.6655e-05
1156.36	5.59789e-05
1165.04	0.000115568
1173.72	0.000257874
1182.4	0.000724471
1191.08	0.00187291
1199.76	0.00206993
1208.43	0.000868841
1217.11	0.000287199
1225.79	0.000126449
1234.47	8.8405e-05
1243.15	7.91154e-05
1251.82	9.78617e-05
1260.5	0.000289369
1269.18	0.000594683
1277.86	0.000647808
1286.54	0.000375992
1295.21	0.000419598
1303.89	0.00044825
1312.57	0.000185301
1321.25	7.22557e-05
1329.93	3.161e-05
1338.61	1.69458e-05
1347.28	1.4449e-05
1355.96	1.79119e-05
1364.64	3.30276e-05
1373.32	4.76591e-05
1382	8.87496e-05
1390.67	0.000148528
1399.35	0.000267296
1408.03	0.000435018
1416.71	0.000404704
1425.39	0.000120638
1434.07	5.00102e-05
1442.74	5.33508e-05
1451.42	6.57435e-05
1460.1	7.19293e-05
1468.78	7.8964e-05
1477.46	7.20879e-05
1486.13	4.2053e-05
1494.81	3.18068e-05
1503.49	1.99463e-05
1512.17	1.48632e-05
1520.85	1.20011e-05
1529.52	9.17567e-06
1538.2	7.19479e-06
1546.88	6.63815e-06
1555.56	7.38703e-06
1564.24	8.36029e-06
1572.92	8.51725e-06
1581.59	8.26175e-06
1590.27	8.89187e-06
1598.95	1.13516e-05
1607.63	1.95131e-05
1616.31	3.90196e-05
1624.98	5.29688e-05
1633.66	9.0922e-05
1642.34	0.00010374
1651.02	7.57168e-05
1659.7	1.45688e-05
1668.38	1.10625e-05
1677.05	1.19494e-05
1685.73	1.40965e-05
1694.41	1.89424e-05
1703.09	2.7639e-05
1711.77	4.08214e-05
1720.44	8.1447e-05
1729.12	0.000255409
1737.8	0.00072579
1746.48	0.00103952
1755.16	0.00112267
1763.84	0.000464107
1772.51	0.000137098
1781.19	4.08423e-05
1789.87	2.26598e-05
1798.55	1.68369e-05
1807.23	1.41058e-05
1815.9	1.1665e-05
1824.58	1.10983e-05
1833.26	1.00405e-05
1841.94	8.39594e-06
1850.62	6.18388e-06
1859.29	4.84433e-06
1867.97	4.28207e-06
1876.65	5.14741e-06
1885.33	7.23116e-06
1894.01	8.39062e-06
1902.69	8.28732e-06
1911.36	1.01711e-05
1920.04	1.66127e-05
1928.72	2.71794e-05
1937.4	2.30748e-05
1946.08	1.30534e-05
1954.75	8.77659e-06
1963.43	6.13069e-06
1972.11	4.87922e-06
1980.79	4.36524e-06
1989.47	4.12134e-06
1998.15	3.42715e-06
2006.82	2.76398e-06
2015.5	2.89986e-06
2024.18	3.5403e-06
2032.86	4.91394e-06
2041.54	8.59994e-06
2050.21	1.39104e-05
2058.89	1.60659e-05
2067.57	1.11447e-05
2076.25	7.09598e-06
2084.93	5.54926e-06
2093.6	5.55043e-06
2102.28	5.03521e-06
2110.96	4.2783e-06
2119.64	4.37085e-06
2128.32	4.41887e-06
2137	3.96204e-06
2145.67	3.2919e-06
2154.35	2.97574e-06
2163.03	3.12019e-06
2171.71	2.60561e-06
2180.39	1.72182e-06
2189.06	1.59671e-06
2197.74	1.6048e-06
2206.42	1.49383e-06
2215.1	1.42231e-06
2223.78	1.70628e-06
2232.46	1.83265e-06
2241.13	1.83395e-06
2249.81	1.86852e-06
2258.49	1.84793e-06
2267.17	1.94005e-06
2275.85	1.92811e-06
2284.52	1.8354e-06
2293.2	1.9263e-06
2301.88	2.36317e-06
2310.56	2.88455e-06
2319.24	3.10135e-06
2327.92	2.90602e-06
2336.59	2.30925e-06
2345.27	1.93199e-06
2353.95	2.40417e-06
2362.63	3.61941e-06
2371.31	5.00854e-06
2379.98	6.60339e-06
2388.66	7.20408e-06
2397.34	5.37494e-06
2406.02	3.405e-06
2414.7	2.80775e-06
2423.37	2.5816e-06
2432.05	1.99527e-06
2440.73	1.44049e-06
2449.41	1.23597e-06
2458.09	1.3749e-06
2466.77	1.98239e-06
2475.44	2.54059e-06
2484.12	2.72831e-06
2492.8	2.51432e-06
2501.48	2.15575e-06
2510.16	1.58393e-06
2518.83	1.33359e-06
2527.51	1.43085e-06
2536.19	1.83572e-06
2544.87	2.06135e-06
2553.55	2.05852e-06
2562.23	1.69953e-06
2570.9	1.27562e-06
2579.58	9.47196e-07
2588.26	1.16077e-06
2596.94	1.56518e-06
2605.62	1.78048e-06
2614.29	1.72195e-06
2622.97	1.41139e-06
2631.65	1.23775e-06
2640.33	1.31448e-06
2649.01	1.56658e-06
2657.68	1.82951e-06
2666.36	2.02603e-06
2675.04	1.99685e-06
2683.72	1.87828e-06
2692.4	2.02887e-06
2701.08	2.71588e-06
2709.75	2.91322e-06
2718.43	2.57147e-06
2727.11	2.67001e-06
2735.79	2.8554e-06
2744.47	2.5924e-06
2753.14	2.82963e-06
2761.82	3.38021e-06
2770.5	4.06742e-06
2779.18	3.74056e-06
2787.86	2.75771e-06
2796.54	2.93526e-06
2805.21	3.46199e-06
2813.89	4.47943e-06
2822.57	6.24421e-06
2831.25	6.78079e-06
2839.93	6.7437e-06
2848.6	7.14313e-06
2857.28	8.16076e-06
2865.96	1.00492e-05
2874.64	1.81458e-05
2883.32	3.62202e-05
2892	4.40278e-05
2900.67	4.52686e-05
2909.35	5.77673e-05
2918.03	5.94937e-05
2926.71	5.63749e-05
2935.39	6.54177e-05
2944.06	9.54188e-05
2952.74	0.000103538
2961.42	9.49043e-05
2970.1	0.000111673
2978.78	0.00019027
2987.45	0.00026131
2996.13	0.000309008
3004.81	0.000174043
3013.49	0.00010196
3022.17	4.31561e-05
3030.85	2.4715e-05
3039.52	2.89549e-05
3048.2	3.34975e-05
3056.88	2.88707e-05
3065.56	1.18227e-05
3074.24	1.23963e-05
3082.91	1.28846e-05
3091.59	1.17041e-05
3100.27	1.04822e-05
3108.95	2.92145e-05
3117.63	2.66499e-05
3126.31	1.07362e-05
3134.98	4.42926e-06
3143.66	3.6793e-06
3152.34	3.90197e-06
3161.02	3.65135e-06
3169.7	3.06643e-06
3178.37	2.66091e-06
3187.05	2.25943e-06
3195.73	1.99346e-06
3204.41	1.75782e-06
3213.09	1.60865e-06
3221.77	1.6741e-06
3230.44	1.84167e-06
3239.12	1.94337e-06
3247.8	1.71823e-06
3256.48	1.21421e-06
3265.16	5.80109e-07
3273.83	2.04124e-07
3282.51	2.12338e-08
3291.19	-1.02961e-07
3299.87	-1.18148e-07
3308.55	1.02742e-07
3317.22	3.97684e-07
3325.9	4.86505e-07
3334.58	6.34007e-07
3343.26	7.46193e-07
3351.94	1.07038e-06
3360.62	1.47658e-06
3369.29	1.6157e-06
3377.97	1.64956e-06
3386.65	1.87031e-06
3395.33	1.56645e-06
3404.01	6.49889e-07
3412.68	2.92992e-07
3421.36	2.56803e-07
3430.04	3.11377e-07
3438.72	2.93887e-07
3447.4	6.30707e-07
3456.08	2.14057e-06
3464.75	6.2287e-06
3473.43	1.15297e-05
3482.11	1.26177e-05
3490.79	8.17522e-06
3499.47	2.57393e-06
3508.14	1.51482e-07
3516.82	-4.48282e-07
3525.5	-4.23036e-07
3534.18	-4.50436e-07
3542.86	-3.17704e-07
3551.53	-9.98285e-08
3560.21	9.00901e-08
3568.89	1.77728e-07
3577.57	6.44072e-08
3586.25	-1.26123e-08
3594.93	7.76561e-08
3603.6	6.27084e-08
3612.28	1.19276e-07
3620.96	9.33205e-08
3629.64	8.84131e-08
3638.32	5.4527e-08
3646.99	-1.22085e-08
3655.67	4.1169e-08
3664.35	3.29003e-08
3673.03	2.43223e-08
3681.71	3.75021e-08
3690.39	1.21939e-08
3699.06	4.82045e-08
3707.74	6.06676e-08
3716.42	1.88118e-07
3725.1	2.40833e-07
3733.78	2.9874e-07
3742.45	2.57469e-07
3751.13	3.44762e-07
3759.81	5.77934e-07
3768.49	5.69639e-07
3777.17	6.08549e-07
3785.85	5.17819e-07
3794.52	3.9074e-07
3803.2	3.28773e-07
3811.88	2.4872e-07
3820.56	2.10829e-07
3829.24	2.29432e-07
3837.91	3.78058e-07
3846.59	3.74424e-07
3855.27	3.02752e-07
3863.95	2.30757e-07
3872.63	2.09919e-07
3881.3	2.81053e-07
3889.98	3.49596e-07
3898.66	3.07405e-07
3907.34	3.05477e-07
3916.02	2.91526e-07
3924.7	2.11109e-07
3933.37	2.50754e-07
3942.05	1.71017e-07
3950.73	3.35765e-07
3959.41	3.87153e-07
3968.09	5.45939e-07
