Infrared Spectrum: Ethyl Ester-Propenoic Acid
Formula: C H2: C H C O2 C2 H5
CAS: 140-88-5
State: gas
Melting point: -71.2 C
Boiling point: 99.8 C
Class: IUPAC A
Instrument: IFS66V (Bruker)
Instrument parameters: KBr Beam splitter; MCT Detector; Multipass cell
Sampling: 1 L/min Flow
Resolution: 1.9290
Temperature: 23 C
Pressure: 101.3 kPa
Origin: NIST, Anayltical Chemistry Division, 301-975-3108
cm-1	(micromol/mol)-1m-1 (base 10)
574.687	5.7212e-07
583.365	8.19058e-07
592.043	1.33292e-06
600.721	3.69431e-06
609.4	7.39548e-06
618.078	7.62361e-06
626.756	4.36853e-06
635.434	3.03592e-06
644.112	6.00043e-06
652.79	1.40331e-05
661.469	2.02024e-05
670.147	2.00611e-05
678.825	1.16651e-05
687.503	4.48118e-06
696.181	1.69847e-06
704.859	1.04028e-06
713.537	1.03573e-06
722.216	1.21194e-06
730.894	1.48905e-06
739.572	1.7327e-06
748.25	2.22394e-06
756.928	2.882e-06
765.606	4.27834e-06
774.285	8.81739e-06
782.963	2.04872e-05
791.641	4.49589e-05
800.319	8.17087e-05
808.997	0.00011753
817.675	0.000111728
826.353	6.61393e-05
835.032	3.09133e-05
843.71	2.346e-05
852.388	3.64789e-05
861.066	4.25773e-05
869.744	3.39701e-05
878.422	1.86561e-05
887.101	1.33251e-05
895.779	1.97775e-05
904.457	2.35933e-05
913.135	2.55274e-05
921.813	2.05111e-05
930.491	1.47243e-05
939.169	1.82077e-05
947.848	4.44979e-05
956.526	8.91435e-05
965.204	0.000141063
973.882	0.000158496
982.56	0.000162312
991.238	0.000156399
999.917	9.28095e-05
1008.59	4.75635e-05
1017.27	4.43581e-05
1025.95	0.000107979
1034.63	0.000188726
1043.31	0.000200122
1051.99	0.000151157
1060.66	0.000259499
1069.34	0.000330415
1078.02	0.000248341
1086.7	0.000119861
1095.38	0.000113995
1104.05	0.000109694
1112.73	8.00336e-05
1121.41	5.05629e-05
1130.09	3.93531e-05
1138.77	3.36541e-05
1147.45	3.97125e-05
1156.12	5.98329e-05
1164.8	0.000119549
1173.48	0.000263182
1182.16	0.000711895
1190.84	0.00180823
1199.51	0.00201953
1208.19	0.000916352
1216.87	0.000308944
1225.55	0.000136965
1234.23	9.43544e-05
1242.9	8.42866e-05
1251.58	0.000102969
1260.26	0.000283261
1268.94	0.00057835
1277.62	0.000638702
1286.3	0.000385677
1294.97	0.000411457
1303.65	0.000434248
1312.33	0.000195262
1321.01	7.76141e-05
1329.69	3.49744e-05
1338.36	1.9229e-05
1347.04	1.62147e-05
1355.72	1.93902e-05
1364.4	3.40833e-05
1373.08	4.87793e-05
1381.76	8.8474e-05
1390.43	0.000148151
1399.11	0.000262445
1407.79	0.000427488
1416.47	0.000400941
1425.15	0.00013142
1433.82	5.34031e-05
1442.5	5.44158e-05
1451.18	6.55973e-05
1459.86	7.19775e-05
1468.54	7.88545e-05
1477.22	7.18562e-05
1485.89	4.39025e-05
1494.57	3.26977e-05
1503.25	2.07346e-05
1511.93	1.54237e-05
1520.61	1.25276e-05
1529.28	9.67668e-06
1537.96	7.64587e-06
1546.64	7.03624e-06
1555.32	7.72344e-06
1564	8.68772e-06
1572.67	8.86485e-06
1581.35	8.64722e-06
1590.03	9.33405e-06
1598.71	1.18157e-05
1607.39	1.9809e-05
1616.07	3.85949e-05
1624.74	5.32037e-05
1633.42	8.86216e-05
1642.1	0.000101447
1650.78	7.77448e-05
1659.46	1.64757e-05
1668.13	1.21802e-05
1676.81	1.29112e-05
1685.49	1.51713e-05
1694.17	2.02141e-05
1702.85	2.92048e-05
1711.53	4.30142e-05
1720.2	8.47483e-05
1728.88	0.000253762
1737.56	0.000702223
1746.24	0.0010336
1754.92	0.00109876
1763.59	0.000481058
1772.27	0.000149529
1780.95	4.66565e-05
1789.63	2.54365e-05
1798.31	1.86117e-05
1806.98	1.5295e-05
1815.66	1.25985e-05
1824.34	1.17521e-05
1833.02	1.06155e-05
1841.7	8.8683e-06
1850.38	6.67904e-06
1859.05	5.27342e-06
1867.73	4.63197e-06
1876.41	5.40573e-06
1885.09	7.41082e-06
1893.77	8.57067e-06
1902.44	8.54572e-06
1911.12	1.03252e-05
1919.8	1.65043e-05
1928.48	2.64381e-05
1937.16	2.32075e-05
1945.84	1.36672e-05
1954.51	8.94072e-06
1963.19	6.41375e-06
1971.87	5.05779e-06
1980.55	4.49417e-06
1989.23	4.24103e-06
1997.9	3.57371e-06
2006.58	2.90482e-06
2015.26	3.03581e-06
2023.94	3.65349e-06
2032.62	5.0051e-06
2041.3	8.51045e-06
2049.97	1.37128e-05
2058.65	1.58546e-05
2067.33	1.12856e-05
2076.01	7.29861e-06
2084.69	5.67161e-06
2093.36	5.61977e-06
2102.04	5.10429e-06
2110.72	4.34722e-06
2119.4	4.43266e-06
2128.08	4.44699e-06
2136.75	4.01164e-06
2145.43	3.3772e-06
2154.11	3.02459e-06
2162.79	3.16188e-06
2171.47	2.67393e-06
2180.15	1.80639e-06
2188.82	1.64411e-06
2197.5	1.67593e-06
2206.18	1.55514e-06
2214.86	1.50756e-06
2223.54	1.72568e-06
2232.21	1.84185e-06
2240.89	1.87055e-06
2249.57	1.90174e-06
2258.25	1.8751e-06
2266.93	1.98258e-06
2275.61	1.95985e-06
2284.28	1.89306e-06
2292.96	1.96765e-06
2301.64	2.36459e-06
2310.32	2.89495e-06
2319	3.1242e-06
2327.67	2.95639e-06
2336.35	2.40997e-06
2345.03	2.02684e-06
2353.71	2.45433e-06
2362.39	3.59738e-06
2371.06	4.96889e-06
2379.74	6.51889e-06
2388.42	7.14595e-06
2397.1	5.45856e-06
2405.78	3.4783e-06
2414.46	2.85954e-06
2423.13	2.61455e-06
2431.81	2.07257e-06
2440.49	1.50418e-06
2449.17	1.27334e-06
2457.85	1.38906e-06
2466.52	1.97399e-06
2475.2	2.54948e-06
2483.88	2.74245e-06
2492.56	2.54179e-06
2501.24	2.20061e-06
2509.92	1.65172e-06
2518.59	1.38332e-06
2527.27	1.49682e-06
2535.95	1.85904e-06
2544.63	2.05814e-06
2553.31	2.05663e-06
2561.98	1.73785e-06
2570.66	1.33077e-06
2579.34	9.96237e-07
2588.02	1.17835e-06
2596.7	1.58106e-06
2605.38	1.81299e-06
2614.05	1.74216e-06
2622.73	1.44714e-06
2631.41	1.26655e-06
2640.09	1.33658e-06
2648.77	1.57495e-06
2657.44	1.85439e-06
2666.12	2.02596e-06
2674.8	2.0515e-06
2683.48	1.93007e-06
2692.16	2.09749e-06
2700.83	2.78102e-06
2709.51	2.98864e-06
2718.19	2.63169e-06
2726.87	2.69808e-06
2735.55	2.95272e-06
2744.23	2.6463e-06
2752.9	2.88471e-06
2761.58	3.40339e-06
2770.26	4.08066e-06
2778.94	3.77309e-06
2787.62	2.8668e-06
2796.29	3.05512e-06
2804.97	3.53694e-06
2813.65	4.5363e-06
2822.33	6.29145e-06
2831.01	6.8753e-06
2839.69	6.90867e-06
2848.36	7.33087e-06
2857.04	8.38113e-06
2865.72	1.03518e-05
2874.4	1.81208e-05
2883.08	3.58293e-05
2891.75	4.36592e-05
2900.43	4.5306e-05
2909.11	5.71706e-05
2917.79	5.9868e-05
2926.47	5.68319e-05
2935.14	6.50737e-05
2943.82	9.42421e-05
2952.5	0.000103213
2961.18	9.57891e-05
2969.86	0.000111852
2978.54	0.000186378
2987.21	0.000258203
2995.89	0.000312769
3004.57	0.000176427
3013.25	0.000104419
3021.93	4.56141e-05
3030.6	2.6054e-05
3039.28	2.90912e-05
3047.96	3.36494e-05
3056.64	2.91649e-05
3065.32	1.25649e-05
3074	1.26203e-05
3082.67	1.31526e-05
3091.35	1.20477e-05
3100.03	1.08889e-05
3108.71	2.81994e-05
3117.39	2.59125e-05
3126.06	1.17246e-05
3134.74	4.7856e-06
3143.42	3.86481e-06
3152.1	3.99587e-06
3160.78	3.71561e-06
3169.46	3.18864e-06
3178.13	2.76005e-06
3186.81	2.33434e-06
3195.49	2.0525e-06
3204.17	1.85967e-06
3212.85	1.72478e-06
3221.52	1.72871e-06
3230.2	1.8719e-06
3238.88	1.94455e-06
3247.56	1.78754e-06
3256.24	1.26573e-06
3264.91	6.31784e-07
3273.59	2.66873e-07
3282.27	1.16202e-07
3290.95	4.92922e-09
3299.63	-5.62695e-08
3308.31	1.4788e-07
3316.98	4.14953e-07
3325.66	5.4081e-07
3334.34	6.47005e-07
3343.02	7.99774e-07
3351.7	1.11534e-06
3360.37	1.48516e-06
3369.05	1.59292e-06
3377.73	1.61029e-06
3386.41	1.85019e-06
3395.09	1.57657e-06
3403.77	7.23806e-07
3412.44	4.0659e-07
3421.12	3.03756e-07
3429.8	3.07776e-07
3438.48	3.41011e-07
3447.16	6.78704e-07
3455.83	2.18144e-06
3464.51	6.08536e-06
3473.19	1.12265e-05
3481.87	1.2332e-05
3490.55	8.33307e-06
3499.22	2.77299e-06
3507.9	2.95546e-07
3516.58	-3.36456e-07
3525.26	-4.27602e-07
3533.94	-4.33047e-07
3542.62	-2.64439e-07
3551.29	-9.84389e-08
3559.97	1.13034e-07
3568.65	1.69878e-07
3577.33	6.54804e-08
3586.01	2.06372e-08
3594.68	7.52042e-08
3603.36	9.2873e-08
3612.04	1.18429e-07
3620.72	1.02993e-07
3629.4	1.00338e-07
3638.08	5.43196e-08
3646.75	2.87313e-08
3655.43	5.7681e-08
3664.11	4.73569e-08
3672.79	5.37485e-08
3681.47	5.56183e-08
3690.14	4.68367e-08
3698.82	6.6499e-08
3707.5	1.08934e-07
3716.18	1.83018e-07
3724.86	2.33652e-07
3733.54	2.97732e-07
3742.21	2.98547e-07
3750.89	3.58691e-07
3759.57	4.78214e-07
3768.25	5.84867e-07
3776.93	6.30984e-07
3785.6	5.5611e-07
3794.28	4.18001e-07
3802.96	3.73005e-07
3811.64	2.70209e-07
3820.32	2.39164e-07
3828.99	2.64112e-07
3837.67	3.87578e-07
3846.35	3.82147e-07
3855.03	3.54893e-07
3863.71	2.60321e-07
3872.39	2.46847e-07
3881.06	2.60299e-07
3889.74	3.39439e-07
3898.42	3.5135e-07
3907.1	3.78484e-07
3915.78	3.412e-07
3924.45	2.41306e-07
3933.13	2.40451e-07
3941.81	2.09377e-07
3950.49	3.20574e-07
3959.17	3.8465e-07
3967.85	5.50312e-07
