Infrared Spectrum: Ethyl Ester-Propenoic Acid
Formula: C H2: C H C O2 C2 H5
CAS: 140-88-5
State: gas
Melting point: -71.2 C
Boiling point: 99.8 C
Class: IUPAC A
Instrument: IFS66V (Bruker)
Instrument parameters: KBr Beam splitter; MCT Detector; Multipass cell
Sampling: 1 L/min Flow
Resolution: 0.1250
Temperature: 23 C
Pressure: 101.3 kPa
Origin: NIST, Anayltical Chemistry Division, 301-975-3108
cm-1	(micromol/mol)-1m-1 (base 10)
3975.02	5.86739e-07
3966.46	5.60541e-07
3957.9	5.15845e-07
3949.34	3.43765e-07
3940.79	1.92578e-07
3932.23	-4.04632e-08
3923.67	2.41275e-07
3915.11	2.41075e-07
3906.56	4.78151e-07
3898	4.17057e-07
3889.44	3.23566e-07
3880.88	2.51574e-07
3872.33	1.53582e-07
3863.77	-5.5893e-08
3855.21	2.23075e-07
3846.65	3.8186e-07
3838.09	5.13146e-07
3829.54	2.75971e-07
3820.98	3.8186e-07
3812.42	2.20876e-07
3803.86	6.11738e-07
3795.31	5.86439e-07
3786.75	5.70842e-07
3778.19	6.04039e-07
3769.63	5.90939e-07
3761.08	3.00468e-07
3752.52	4.24457e-07
3743.96	4.27156e-07
3735.4	1.81281e-07
3726.85	1.8408e-07
3718.29	1.68781e-07
3709.73	1.91967e-08
3701.17	-3.88135e-08
3692.62	-1.56482e-07
3684.06	-1.08788e-07
3675.5	-1.56282e-07
3666.94	7.21812e-08
3658.38	-1.0686e-08
3649.83	4.81827e-08
3641.27	1.55882e-07
3632.71	2.28376e-07
3624.15	-1.18985e-07
3615.6	1.48982e-07
3607.04	1.10585e-07
3598.48	-1.67082e-07
3589.92	-1.90779e-07
3581.37	-1.98178e-07
3572.81	1.87479e-07
3564.25	1.64665e-08
3555.69	-3.1145e-08
3547.14	-4.46052e-07
3538.58	-1.75482e-07
3530.02	-4.63852e-07
3521.46	-3.7306e-07
3512.91	-2.89171e-07
3504.35	1.0229e-06
3495.79	4.90151e-06
3487.23	1.11589e-05
3478.67	1.19688e-05
3470.12	9.83702e-06
3461.56	4.31957e-06
3453	1.21488e-06
3444.44	7.27627e-07
3435.89	2.7057e-07
3427.33	4.20457e-07
3418.77	4.03357e-07
3410.21	3.56262e-07
3401.66	9.75902e-07
3393.1	1.32987e-06
3384.54	1.68183e-06
3375.98	1.61084e-06
3367.43	1.58384e-06
3358.87	1.18788e-06
3350.31	1.17188e-06
3341.75	7.13727e-07
3333.2	7.02828e-07
3324.64	3.63163e-07
3316.08	3.66163e-07
3307.52	1.11386e-07
3298.96	-3.20567e-07
3290.41	2.19177e-07
3281.85	1.71282e-07
3273.29	3.83861e-07
3264.73	2.73171e-07
3256.18	1.14188e-06
3247.62	1.75782e-06
3239.06	2.17478e-06
3230.5	1.86881e-06
3221.95	1.82382e-06
3213.39	1.50585e-06
3204.83	1.66683e-06
3196.27	1.67883e-06
3187.72	2.25177e-06
3179.16	2.71473e-06
3170.6	3.29667e-06
3162.04	3.58064e-06
3153.48	3.85362e-06
3144.93	3.74763e-06
3136.37	4.20158e-06
3127.81	8.37017e-06
3119.25	2.92771e-05
3110.7	2.57874e-05
3102.14	1.33487e-05
3093.58	1.0309e-05
3085.02	1.29087e-05
3076.47	1.30887e-05
3067.91	1.12089e-05
3059.35	2.15879e-05
3050.79	3.20868e-05
3042.24	3.37866e-05
3033.68	2.39876e-05
3025.12	3.33567e-05
3016.56	7.54925e-05
3008.01	0.000145786
2999.45	0.000237576
2990.89	0.000270373
2982.33	0.000238976
2973.77	0.000132687
2965.22	0.00010429
2956.66	9.80803e-05
2948.1	0.00010519
2939.54	8.23718e-05
2930.99	5.46746e-05
2922.43	5.72743e-05
2913.87	6.22538e-05
2905.31	5.17649e-05
2896.76	4.35957e-05
2888.2	4.0656e-05
2879.64	3.0657e-05
2871.08	1.34387e-05
2862.53	9.13809e-06
2853.97	7.63624e-06
2845.41	7.0173e-06
2836.85	6.79632e-06
2828.3	6.58235e-06
2819.74	5.63144e-06
2811.18	4.20658e-06
2802.62	3.25268e-06
2794.06	2.71873e-06
2785.51	2.74572e-06
2776.95	3.77262e-06
2768.39	4.08059e-06
2759.83	3.28467e-06
2751.28	2.83172e-06
2742.72	2.52775e-06
2734.16	2.82972e-06
2725.6	2.63574e-06
2717.05	2.64274e-06
2708.49	2.91371e-06
2699.93	2.69473e-06
2691.37	1.90581e-06
2682.82	2.0488e-06
2674.26	2.12279e-06
2665.7	1.92081e-06
2657.14	1.77882e-06
2648.59	1.57084e-06
2640.03	1.20388e-06
2631.47	1.16088e-06
2622.91	1.45186e-06
2614.35	1.58584e-06
2605.8	1.82882e-06
2597.24	1.64584e-06
2588.68	1.14188e-06
2580.12	9.92399e-07
2571.57	1.07089e-06
2563.01	1.71083e-06
2554.45	1.90581e-06
2545.89	2.0208e-06
2537.34	1.86081e-06
2528.78	1.60184e-06
2520.22	1.41786e-06
2511.66	1.63184e-06
2503.11	2.16378e-06
2494.55	2.35176e-06
2485.99	2.55575e-06
2477.43	2.58274e-06
2468.87	2.17978e-06
2460.32	1.41386e-06
2451.76	1.09989e-06
2443.2	1.42186e-06
2434.64	1.86481e-06
2426.09	2.46575e-06
2417.53	2.80272e-06
2408.97	3.09769e-06
2400.41	4.42856e-06
2391.86	6.92331e-06
2383.3	7.0323e-06
2374.74	5.68343e-06
2366.18	3.92861e-06
2357.63	2.9597e-06
2349.07	1.88681e-06
2340.51	2.14979e-06
2331.95	2.67473e-06
2323.4	3.0137e-06
2314.84	2.95171e-06
2306.28	2.51775e-06
2297.72	2.24578e-06
2289.16	1.92581e-06
2280.61	1.81482e-06
2272.05	1.88981e-06
2263.49	1.78782e-06
2254.93	1.86081e-06
2246.38	1.9988e-06
2237.82	1.71483e-06
2229.26	1.75182e-06
2220.7	1.56484e-06
2212.15	1.47785e-06
2203.59	1.60584e-06
2195.03	1.62284e-06
2186.47	1.54084e-06
2177.92	2.0288e-06
2169.36	2.83172e-06
2160.8	3.06769e-06
2152.24	3.0687e-06
2143.69	3.48865e-06
2135.13	4.0526e-06
2126.57	4.42556e-06
2118.01	4.49355e-06
2109.45	4.41056e-06
2100.9	5.32147e-06
2092.34	5.50745e-06
2083.78	5.59445e-06
2075.22	7.54125e-06
2066.67	1.16088e-05
2058.11	1.62284e-05
2049.55	1.35187e-05
2040.99	8.24718e-06
2032.44	4.84452e-06
2023.88	3.56664e-06
2015.32	2.86471e-06
2006.76	2.91771e-06
1998.21	3.37666e-06
1989.65	4.15759e-06
1981.09	4.35357e-06
1972.53	4.85752e-06
1963.97	6.0934e-06
1955.42	8.84912e-06
1946.86	1.19888e-05
1938.3	2.30077e-05
1929.74	2.78972e-05
1921.19	1.76582e-05
1912.63	1.07489e-05
1904.07	8.22818e-06
1895.51	8.44716e-06
1886.96	7.56525e-06
1878.4	5.51545e-06
1869.84	4.29557e-06
1861.28	4.67453e-06
1852.73	5.78343e-06
1844.17	7.72723e-06
1835.61	9.46206e-06
1827.05	1.08189e-05
1818.5	1.13289e-05
1809.94	1.32787e-05
1801.38	1.56884e-05
1792.82	2.0528e-05
1784.26	3.10169e-05
1775.71	8.34817e-05
1767.15	0.00030307
1758.59	0.000852515
1750.03	0.0010199
1741.48	0.0010049
1732.92	0.000413859
1724.36	0.000135187
1715.8	5.20048e-05
1707.25	2.85472e-05
1698.69	2.30877e-05
1690.13	1.63184e-05
1681.57	1.28287e-05
1673.02	1.10489e-05
1664.46	1.18188e-05
1655.9	2.34877e-05
1647.34	0.00010349
1638.79	0.000110389
1630.23	7.0603e-05
1621.67	5.0185e-05
1613.11	3.0547e-05
1604.55	1.55085e-05
1596	1.0109e-05
1587.44	8.63914e-06
1578.88	8.0792e-06
1570.32	8.71913e-06
1561.77	8.16819e-06
1553.21	7.18028e-06
1544.65	6.58634e-06
1536.09	7.53625e-06
1527.54	9.77703e-06
1518.98	1.27387e-05
1510.42	1.55185e-05
1501.86	2.12979e-05
1493.31	3.47466e-05
1484.75	4.77653e-05
1476.19	7.33527e-05
1467.63	7.94021e-05
1459.08	7.1113e-05
1450.52	6.33037e-05
1441.96	5.24148e-05
1433.4	5.0765e-05
1424.84	0.000133687
1416.29	0.000415459
1407.73	0.000434957
1399.17	0.000263474
1390.61	0.000148185
1382.06	8.92811e-05
1373.5	4.82352e-05
1364.94	3.32467e-05
1356.38	1.84182e-05
1347.83	1.44586e-05
1339.27	1.65984e-05
1330.71	2.94571e-05
1322.15	6.60535e-05
1313.6	0.000164184
1305.04	0.000456955
1296.48	0.000421358
1287.92	0.000345066
1279.36	0.000616139
1270.81	0.000637737
1262.25	0.000358064
1253.69	0.000115689
1245.13	7.84522e-05
1236.58	8.59115e-05
1228.02	0.000110689
1219.46	0.000215679
1210.9	0.000616039
1202.35	0.0019978
1193.79	0.0019888
1185.23	0.00107789
1176.67	0.000342666
1168.12	0.000160584
1159.56	7.0553e-05
1151	4.13959e-05
1142.44	3.23368e-05
1133.89	3.23068e-05
1125.33	4.62054e-05
1116.77	6.0544e-05
1108.21	0.00010219
1099.65	0.000113189
1091.1	0.000106589
1082.54	0.000156784
1073.98	0.000327467
1065.42	0.00030567
1056.87	0.000194581
1048.31	0.000157584
1039.75	0.000213979
1031.19	0.000168283
1022.64	7.15229e-05
1014.08	3.68663e-05
1005.52	5.85142e-05
996.963	0.000110389
988.406	0.000175683
979.848	0.000164684
971.29	0.000150785
962.733	0.000183382
954.175	7.65624e-05
945.618	3.37467e-05
937.06	1.46985e-05
928.502	1.56784e-05
919.945	2.08779e-05
911.387	2.55275e-05
902.829	2.24178e-05
894.272	1.84082e-05
885.714	1.27587e-05
877.157	2.0048e-05
868.599	3.62064e-05
860.041	4.23558e-05
851.484	3.47366e-05
842.926	2.20578e-05
834.368	3.18968e-05
825.811	6.90331e-05
817.253	0.000114489
808.696	0.000116888
800.138	8.0962e-05
791.58	4.38357e-05
783.023	1.9948e-05
774.465	8.19619e-06
765.907	3.83062e-06
757.35	2.45775e-06
748.792	1.90581e-06
740.235	1.35086e-06
731.677	1.51285e-06
723.119	1.06889e-06
714.562	1.17388e-06
706.004	6.50433e-07
697.446	1.34087e-06
688.889	3.64464e-06
680.331	1.06089e-05
671.774	1.87481e-05
663.216	2.12679e-05
654.658	1.59184e-05
646.101	7.36627e-06
637.543	3.27367e-06
628.985	4.36856e-06
620.428	6.52835e-06
611.87	6.44536e-06
603.313	5.50545e-06
594.755	1.60884e-06
586.197	8.22216e-07
577.64	1.12789e-06
