Infrared Spectrum: Ethyl Ester-Propenoic Acid
Formula: C H2: C H C O2 C2 H5
CAS: 140-88-5
State: gas
Melting point: -71.2 C
Boiling point: 99.8 C
Class: IUPAC A
Instrument: IFS66V (Bruker)
Instrument parameters: KBr Beam splitter; MCT Detector; Multipass cell
Sampling: 1 L/min Flow
Resolution: 0.4820
Temperature: 23 C
Pressure: 101.3 kPa
Origin: NIST, Anayltical Chemistry Division, 301-975-3108
cm-1	(micromol/mol)-1m-1 (base 10)
574.928	5.62364e-07
583.606	9.83981e-07
592.284	1.03531e-06
600.962	3.71068e-06
609.641	7.86873e-06
618.319	7.59812e-06
626.997	4.12449e-06
635.675	2.85875e-06
644.353	5.99907e-06
653.031	1.44408e-05
661.71	2.04415e-05
670.388	2.01032e-05
679.066	1.16467e-05
687.744	4.04592e-06
696.422	1.43378e-06
705.1	8.17301e-07
713.778	7.82152e-07
722.457	1.07841e-06
731.135	1.23156e-06
739.813	1.48317e-06
748.491	2.0001e-06
757.169	2.62341e-06
765.847	3.949e-06
774.526	8.51103e-06
783.204	2.04299e-05
791.882	4.5575e-05
800.56	8.29084e-05
809.238	0.000119787
817.916	0.00011322
826.594	6.49769e-05
835.273	2.92391e-05
843.951	2.2795e-05
852.629	3.69453e-05
861.307	4.29301e-05
869.985	3.34715e-05
878.663	1.7774e-05
887.342	1.26507e-05
896.02	1.96771e-05
904.698	2.34769e-05
913.376	2.53731e-05
922.054	1.99336e-05
930.732	1.35968e-05
939.41	1.72625e-05
948.089	4.46048e-05
956.767	8.98158e-05
965.445	0.000140763
974.123	0.000160126
982.801	0.000162119
991.479	0.000159363
1000.16	9.06632e-05
1008.84	4.45746e-05
1017.51	4.239e-05
1026.19	0.00010994
1034.87	0.000192419
1043.55	0.000201041
1052.23	0.000148187
1060.9	0.000266344
1069.58	0.000337073
1078.26	0.000243259
1086.94	0.000115332
1095.62	0.000113511
1104.3	0.000109121
1112.97	7.76167e-05
1121.65	4.81308e-05
1130.33	3.67722e-05
1139.01	3.1081e-05
1147.69	3.66631e-05
1156.36	5.59696e-05
1165.04	0.000115552
1173.72	0.000257845
1182.4	0.000724317
1191.08	0.00187328
1199.76	0.0020698
1208.43	0.000868513
1217.11	0.000287234
1225.79	0.000126423
1234.47	8.8408e-05
1243.15	7.91211e-05
1251.82	9.78367e-05
1260.5	0.000289333
1269.18	0.000594704
1277.86	0.000647752
1286.54	0.000376003
1295.21	0.000419669
1303.89	0.000448423
1312.57	0.000185257
1321.25	7.22656e-05
1329.93	3.16083e-05
1338.61	1.69435e-05
1347.28	1.44391e-05
1355.96	1.79089e-05
1364.64	3.30321e-05
1373.32	4.76525e-05
1382	8.87416e-05
1390.67	0.000148548
1399.35	0.00026725
1408.03	0.000435043
1416.71	0.000404694
1425.39	0.000120605
1434.07	5.00003e-05
1442.74	5.33512e-05
1451.42	6.57593e-05
1460.1	7.19487e-05
1468.78	7.89598e-05
1477.46	7.21044e-05
1486.13	4.20366e-05
1494.81	3.17972e-05
1503.49	1.99429e-05
1512.17	1.48717e-05
1520.85	1.19929e-05
1529.52	9.17593e-06
1538.2	7.19542e-06
1546.88	6.63496e-06
1555.56	7.38495e-06
1564.24	8.35015e-06
1572.92	8.52123e-06
1581.59	8.25938e-06
1590.27	8.89296e-06
1598.95	1.13521e-05
1607.63	1.95105e-05
1616.31	3.90165e-05
1624.98	5.2962e-05
1633.66	9.09209e-05
1642.34	0.000103929
1651.02	7.57197e-05
1659.7	1.45618e-05
1668.38	1.10585e-05
1677.05	1.19516e-05
1685.73	1.41013e-05
1694.41	1.89466e-05
1703.09	2.76438e-05
1711.77	4.08338e-05
1720.44	8.14383e-05
1729.12	0.000255393
1737.8	0.00072578
1746.48	0.00103947
1755.16	0.00112291
1763.84	0.000464022
1772.51	0.000137065
1781.19	4.08294e-05
1789.87	2.26553e-05
1798.55	1.68349e-05
1807.23	1.41075e-05
1815.9	1.16593e-05
1824.58	1.11003e-05
1833.26	1.00285e-05
1841.94	8.39677e-06
1850.62	6.17986e-06
1859.29	4.84053e-06
1867.97	4.29215e-06
1876.65	5.14808e-06
1885.33	7.22112e-06
1894.01	8.38735e-06
1902.69	8.2882e-06
1911.36	1.01727e-05
1920.04	1.66125e-05
1928.72	2.71864e-05
1937.4	2.30732e-05
1946.08	1.30519e-05
1954.75	8.77131e-06
1963.43	6.1262e-06
1972.11	4.87435e-06
1980.79	4.36694e-06
1989.47	4.12327e-06
1998.15	3.42583e-06
2006.82	2.76354e-06
2015.5	2.89456e-06
2024.18	3.54024e-06
2032.86	4.91442e-06
2041.54	8.60377e-06
2050.21	1.39092e-05
2058.89	1.60701e-05
2067.57	1.11419e-05
2076.25	7.09446e-06
2084.93	5.55528e-06
2093.6	5.54851e-06
2102.28	5.03523e-06
2110.96	4.2792e-06
2119.64	4.36519e-06
2128.32	4.41518e-06
2137	3.96571e-06
2145.67	3.29314e-06
2154.35	2.97988e-06
2163.03	3.11639e-06
2171.71	2.59648e-06
2180.39	1.72471e-06
2189.06	1.6025e-06
2197.74	1.59649e-06
2206.42	1.49215e-06
2215.1	1.41618e-06
2223.78	1.71026e-06
2232.46	1.83499e-06
2241.13	1.83849e-06
2249.81	1.87219e-06
2258.49	1.84616e-06
2267.17	1.94093e-06
2275.85	1.92593e-06
2284.52	1.83177e-06
2293.2	1.92303e-06
2301.88	2.3636e-06
2310.56	2.88321e-06
2319.24	3.10451e-06
2327.92	2.90824e-06
2336.59	2.30468e-06
2345.27	1.92639e-06
2353.95	2.39274e-06
2362.63	3.62863e-06
2371.31	5.01152e-06
2379.98	6.60644e-06
2388.66	7.20309e-06
2397.34	5.37338e-06
2406.02	3.41743e-06
2414.7	2.80652e-06
2423.37	2.5813e-06
2432.05	1.99145e-06
2440.73	1.44503e-06
2449.41	1.23019e-06
2458.09	1.37765e-06
2466.77	1.98015e-06
2475.44	2.54291e-06
2484.12	2.72758e-06
2492.8	2.51437e-06
2501.48	2.15157e-06
2510.16	1.58299e-06
2518.83	1.34089e-06
2527.51	1.4163e-06
2536.19	1.83502e-06
2544.87	2.06095e-06
2553.55	2.06285e-06
2562.23	1.70335e-06
2570.9	1.27064e-06
2579.58	9.44951e-07
2588.26	1.15823e-06
2596.94	1.56453e-06
2605.62	1.78061e-06
2614.29	1.7293e-06
2622.97	1.41588e-06
2631.65	1.2428e-06
2640.33	1.32358e-06
2649.01	1.56826e-06
2657.68	1.83106e-06
2666.36	2.03073e-06
2675.04	1.99166e-06
2683.72	1.87039e-06
2692.4	2.02345e-06
2701.08	2.70407e-06
2709.75	2.89923e-06
2718.43	2.57097e-06
2727.11	2.6735e-06
2735.79	2.84013e-06
2744.47	2.5989e-06
2753.14	2.82634e-06
2761.82	3.37624e-06
2770.5	4.07211e-06
2779.18	3.74504e-06
2787.86	2.76181e-06
2796.54	2.92924e-06
2805.21	3.46305e-06
2813.89	4.47945e-06
2822.57	6.23503e-06
2831.25	6.76898e-06
2839.93	6.74251e-06
2848.6	7.12861e-06
2857.28	8.1502e-06
2865.96	1.00362e-05
2874.64	1.81589e-05
2883.32	3.62276e-05
2892	4.40366e-05
2900.67	4.52803e-05
2909.35	5.77782e-05
2918.03	5.94777e-05
2926.71	5.63637e-05
2935.39	6.54157e-05
2944.06	9.54272e-05
2952.74	0.000103547
2961.42	9.49093e-05
2970.1	0.000111698
2978.78	0.000190288
2987.45	0.000261346
2996.13	0.000308493
3004.81	0.000174036
3013.49	0.000101983
3022.17	4.31337e-05
3030.85	2.46975e-05
3039.52	2.89546e-05
3048.2	3.34974e-05
3056.88	2.88783e-05
3065.56	1.18193e-05
3074.24	1.23869e-05
3082.91	1.28902e-05
3091.59	1.16983e-05
3100.27	1.0459e-05
3108.95	2.92166e-05
3117.63	2.66614e-05
3126.31	1.07215e-05
3134.98	4.4236e-06
3143.66	3.68686e-06
3152.34	3.89583e-06
3161.02	3.66464e-06
3169.7	3.05405e-06
3178.37	2.65357e-06
3187.05	2.25689e-06
3195.73	2.0012e-06
3204.41	1.75602e-06
3213.09	1.59876e-06
3221.77	1.67187e-06
3230.44	1.84172e-06
3239.12	1.96232e-06
3247.8	1.7081e-06
3256.48	1.21573e-06
3265.16	5.85558e-07
3273.83	2.0336e-07
3282.51	2.73563e-08
3291.19	-1.13856e-07
3299.87	-1.15282e-07
3308.55	1.0435e-07
3317.22	3.95985e-07
3325.9	4.8362e-07
3334.58	6.37554e-07
3343.26	7.48426e-07
3351.94	1.05946e-06
3360.62	1.47665e-06
3369.29	1.63024e-06
3377.97	1.67704e-06
3386.65	1.88161e-06
3395.33	1.56977e-06
3404.01	6.57107e-07
3412.68	2.92366e-07
3421.36	2.52129e-07
3430.04	3.27176e-07
3438.72	2.8994e-07
3447.4	6.21354e-07
3456.08	2.13851e-06
3464.75	6.2138e-06
3473.43	1.15443e-05
3482.11	1.26297e-05
3490.79	8.15835e-06
3499.47	2.57766e-06
3508.14	1.54166e-07
3516.82	-4.64085e-07
3525.5	-4.10075e-07
3534.18	-4.30501e-07
3542.86	-3.29985e-07
3551.53	-9.62962e-08
3560.21	7.52552e-08
3568.89	1.86514e-07
3577.57	6.70701e-08
3586.25	-1.77743e-08
3594.93	7.59827e-08
3603.6	5.56511e-08
3612.28	1.10669e-07
3620.96	9.64308e-08
3629.64	9.09923e-08
3638.32	5.22643e-08
3646.99	-1.01094e-08
3655.67	3.52576e-08
3664.35	5.09692e-08
3673.03	3.34641e-08
3681.71	3.49665e-08
3690.39	1.32598e-08
3699.06	5.52182e-08
3707.74	6.70628e-08
3716.42	1.96299e-07
3725.1	2.40346e-07
3733.78	3.04782e-07
3742.45	2.46934e-07
3751.13	3.4534e-07
3759.81	5.94868e-07
3768.49	5.73721e-07
3777.17	5.99975e-07
3785.85	5.15265e-07
3794.52	3.89321e-07
3803.2	3.15561e-07
3811.88	2.51663e-07
3820.56	2.01767e-07
3829.24	2.28759e-07
3837.91	3.74464e-07
3846.59	3.69666e-07
3855.27	3.01908e-07
3863.95	2.33743e-07
3872.63	2.17322e-07
3881.3	2.92021e-07
3889.98	3.64653e-07
3898.66	2.981e-07
3907.34	3.10221e-07
3916.02	2.83068e-07
3924.7	2.02753e-07
3933.37	2.43089e-07
3942.05	1.75629e-07
3950.73	3.41291e-07
3959.41	3.94508e-07
3968.09	5.68919e-07
