Infrared Spectrum: Ethyl Ester-Propenoic Acid
Formula: C H2: C H C O2 C2 H5
CAS: 140-88-5
State: gas
Melting point: -71.2 C
Boiling point: 99.8 C
Class: IUPAC A
Instrument: IFS66V (Bruker)
Instrument parameters: KBr Beam splitter; MCT Detector; Multipass cell
Sampling: 1 L/min Flow
Resolution: 0.2410
Temperature: 23 C
Pressure: 101.3 kPa
Origin: NIST, Anayltical Chemistry Division, 301-975-3108
cm-1	(micromol/mol)-1m-1 (base 10)
575.048	4.70342e-07
583.606	8.91352e-07
592.163	1.24711e-06
600.721	3.72034e-06
609.279	7.27366e-06
617.836	7.83447e-06
626.394	4.33807e-06
634.951	2.50802e-06
643.509	5.44947e-06
652.067	1.32413e-05
660.624	2.02059e-05
669.182	2.1231e-05
677.74	1.22208e-05
686.297	4.97111e-06
694.855	1.7075e-06
703.412	7.86107e-07
711.97	8.17887e-07
720.528	9.66749e-07
729.085	1.02033e-06
737.643	1.6881e-06
746.201	1.8351e-06
754.758	2.40693e-06
763.316	3.30002e-06
771.873	6.45852e-06
780.431	1.56135e-05
788.989	3.56747e-05
797.546	6.93051e-05
806.104	0.000111854
814.662	0.000128568
823.219	8.14812e-05
831.777	4.10163e-05
840.334	2.19547e-05
848.892	2.9936e-05
857.45	4.18779e-05
866.007	4.03684e-05
874.565	2.48715e-05
883.123	1.34498e-05
891.68	1.56244e-05
900.238	2.16032e-05
908.795	2.51988e-05
917.353	2.18734e-05
925.911	1.89824e-05
934.468	1.32136e-05
943.026	2.50873e-05
951.584	6.25969e-05
960.141	0.000115218
968.699	0.000159638
977.256	0.000164631
985.814	0.000185512
994.372	0.000125026
1002.93	7.3344e-05
1011.49	3.85119e-05
1020.04	5.31603e-05
1028.6	0.000139799
1037.16	0.000198009
1045.72	0.000177415
1054.28	0.00016062
1062.83	0.000290335
1071.39	0.000324979
1079.95	0.0002026
1088.51	0.000108611
1097.06	0.000113314
1105.62	0.000107191
1114.18	7.1499e-05
1122.74	4.75585e-05
1131.29	3.51144e-05
1139.85	3.13134e-05
1148.41	3.74507e-05
1156.97	5.83431e-05
1165.52	0.000121465
1174.08	0.000266157
1182.64	0.000749793
1191.2	0.00188255
1199.75	0.00206952
1208.31	0.000884052
1216.87	0.000296119
1225.43	0.000129549
1233.99	8.90148e-05
1242.54	7.96126e-05
1251.1	9.30723e-05
1259.66	0.000257695
1268.22	0.000563491
1276.77	0.000661368
1285.33	0.000408675
1293.89	0.00040043
1302.45	0.000413021
1311	0.000227117
1319.56	8.63507e-05
1328.12	3.73303e-05
1336.68	1.84633e-05
1345.23	1.46453e-05
1353.79	1.59703e-05
1362.35	2.99151e-05
1370.91	4.30002e-05
1379.46	7.08386e-05
1388.02	0.000134356
1396.58	0.00021461
1405.14	0.000416043
1413.7	0.000437186
1422.25	0.000218237
1430.81	5.80363e-05
1439.37	4.981e-05
1447.93	5.91317e-05
1456.48	6.90549e-05
1465.04	7.78214e-05
1473.6	7.48028e-05
1482.16	5.91146e-05
1490.71	3.86262e-05
1499.27	2.43427e-05
1507.83	1.67772e-05
1516.39	1.35255e-05
1524.94	1.06927e-05
1533.5	8.03148e-06
1542.06	6.85715e-06
1550.62	6.74865e-06
1559.18	8.04085e-06
1567.73	8.67899e-06
1576.29	8.25543e-06
1584.85	8.45711e-06
1593.41	9.41631e-06
1601.96	1.31212e-05
1610.52	2.47104e-05
1619.08	4.61264e-05
1627.64	6.1007e-05
1636.19	0.000109115
1644.75	9.51472e-05
1653.31	4.40856e-05
1661.87	1.29638e-05
1670.42	1.09673e-05
1678.98	1.24237e-05
1687.54	1.49344e-05
1696.1	2.04579e-05
1704.65	2.80755e-05
1713.21	4.42612e-05
1721.77	9.60206e-05
1730.33	0.000298783
1738.89	0.000810531
1747.44	0.00100331
1756	0.00107038
1764.56	0.000424398
1773.12	0.000124873
1781.67	3.88933e-05
1790.23	2.23459e-05
1798.79	1.66996e-05
1807.35	1.40841e-05
1815.9	1.16509e-05
1824.46	1.11164e-05
1833.02	1.01386e-05
1841.58	8.49865e-06
1850.13	6.31012e-06
1858.69	4.92288e-06
1867.25	4.27192e-06
1875.81	4.97827e-06
1884.36	6.99735e-06
1892.92	8.28362e-06
1901.48	8.37612e-06
1910.04	9.57468e-06
1918.6	1.53002e-05
1927.15	2.50401e-05
1935.71	2.44223e-05
1944.27	1.60074e-05
1952.83	8.79161e-06
1961.38	6.80749e-06
1969.94	5.05297e-06
1978.5	4.37127e-06
1987.06	4.23024e-06
1995.61	3.84542e-06
2004.17	2.83328e-06
2012.73	2.77741e-06
2021.29	3.27622e-06
2029.84	4.33914e-06
2038.4	6.83936e-06
2046.96	1.22896e-05
2055.52	1.58138e-05
2064.08	1.3156e-05
2072.63	8.54063e-06
2081.19	5.85484e-06
2089.75	5.58071e-06
2098.31	5.35459e-06
2106.86	4.51564e-06
2115.42	4.27512e-06
2123.98	4.40672e-06
2132.54	4.22207e-06
2141.09	3.61662e-06
2149.65	3.08401e-06
2158.21	2.99745e-06
2166.77	2.96993e-06
2175.32	2.28305e-06
2183.88	1.5904e-06
2192.44	1.58764e-06
2201	1.59081e-06
2209.55	1.48726e-06
2218.11	1.49634e-06
2226.67	1.75434e-06
2235.23	1.85839e-06
2243.79	1.82845e-06
2252.34	1.85472e-06
2260.9	1.86908e-06
2269.46	1.93875e-06
2278.02	1.86806e-06
2286.57	1.84972e-06
2295.13	1.99088e-06
2303.69	2.45205e-06
2312.25	2.98551e-06
2320.8	3.09005e-06
2329.36	2.84462e-06
2337.92	2.31596e-06
2346.48	1.92381e-06
2355.03	2.53845e-06
2363.59	3.68802e-06
2372.15	5.14307e-06
2380.71	6.69568e-06
2389.26	7.19399e-06
2397.82	5.17955e-06
2406.38	3.3128e-06
2414.94	2.79227e-06
2423.5	2.56838e-06
2432.05	1.99278e-06
2440.61	1.44512e-06
2449.17	1.2785e-06
2457.73	1.37892e-06
2466.28	1.90436e-06
2474.84	2.52228e-06
2483.4	2.78598e-06
2491.96	2.54554e-06
2500.51	2.22736e-06
2509.07	1.60856e-06
2517.63	1.32661e-06
2526.19	1.44381e-06
2534.74	1.72828e-06
2543.3	2.00351e-06
2551.86	2.04382e-06
2560.42	1.83133e-06
2568.98	1.42208e-06
2577.53	1.00275e-06
2586.09	1.08448e-06
2594.65	1.46921e-06
2603.21	1.78369e-06
2611.76	1.75299e-06
2620.32	1.53019e-06
2628.88	1.30582e-06
2637.44	1.23694e-06
2645.99	1.48663e-06
2654.55	1.70769e-06
2663.11	2.00298e-06
2671.67	2.03935e-06
2680.22	1.92604e-06
2688.78	1.92346e-06
2697.34	2.50962e-06
2705.9	2.9688e-06
2714.45	2.7459e-06
2723.01	2.63568e-06
2731.57	2.79651e-06
2740.13	2.68437e-06
2748.69	2.73528e-06
2757.24	2.92426e-06
2765.8	3.85076e-06
2774.36	3.97313e-06
2782.92	3.15714e-06
2791.47	2.76666e-06
2800.03	3.14178e-06
2808.59	3.76413e-06
2817.15	5.19564e-06
2825.7	6.43649e-06
2834.26	6.86722e-06
2842.82	6.74705e-06
2851.38	7.37067e-06
2859.93	8.47547e-06
2868.49	1.12346e-05
2877.05	2.3582e-05
2885.61	3.78049e-05
2894.16	4.41855e-05
2902.72	4.80649e-05
2911.28	5.99834e-05
2919.84	5.74989e-05
2928.4	5.51055e-05
2936.95	7.21758e-05
2945.51	9.68597e-05
2954.07	0.000102039
2962.63	9.66842e-05
2971.18	0.000115234
2979.74	0.000202082
2988.3	0.000262804
2996.86	0.000281472
3005.41	0.000167626
3013.97	9.75063e-05
3022.53	4.17922e-05
3031.09	2.46347e-05
3039.64	2.91956e-05
3048.2	3.35237e-05
3056.76	2.91704e-05
3065.32	1.19664e-05
3073.88	1.22737e-05
3082.43	1.30991e-05
3090.99	1.20777e-05
3099.55	9.9604e-06
3108.11	2.88929e-05
3116.66	2.40845e-05
3125.22	1.33511e-05
3133.78	4.77716e-06
3142.34	3.71252e-06
3150.89	3.89721e-06
3159.45	3.75754e-06
3168.01	3.15113e-06
3176.57	2.64864e-06
3185.12	2.35045e-06
3193.68	1.91698e-06
3202.24	1.7853e-06
3210.8	1.62042e-06
3219.35	1.6705e-06
3227.91	1.84261e-06
3236.47	1.94533e-06
3245.03	1.92407e-06
3253.59	1.44269e-06
3262.14	7.45498e-07
3270.7	3.41167e-07
3279.26	-1.41365e-08
3287.82	2.1463e-10
3296.37	-9.99013e-08
3304.93	-1.12226e-08
3313.49	1.77943e-07
3322.05	4.2631e-07
3330.6	6.27488e-07
3339.16	6.4273e-07
3347.72	8.92109e-07
3356.28	1.23982e-06
3364.83	1.58284e-06
3373.39	1.55944e-06
3381.95	1.63559e-06
3390.51	1.74497e-06
3399.06	1.19666e-06
3407.62	3.9803e-07
3416.18	3.6729e-07
3424.74	2.31986e-07
3433.3	3.17893e-07
3441.85	4.19988e-07
3450.41	8.74356e-07
3458.97	3.19762e-06
3467.53	8.03941e-06
3476.08	1.20547e-05
3484.64	1.24087e-05
3493.2	6.41419e-06
3501.76	1.62182e-06
3510.31	-7.56662e-10
3518.87	-4.40818e-07
3527.43	-3.70954e-07
3535.99	-2.45875e-07
3544.54	-2.10232e-07
3553.1	-1.77626e-07
3561.66	8.17668e-08
3570.22	1.4445e-07
3578.78	-2.29545e-08
3587.33	-9.23274e-09
3595.89	7.29379e-08
3604.45	7.89512e-08
3613.01	-1.39546e-08
3621.56	1.60609e-08
3630.12	9.7453e-08
3638.68	1.58554e-07
3647.24	-4.43702e-08
3655.79	-3.69964e-09
3664.35	8.96427e-08
3672.91	1.90221e-08
3681.47	6.46983e-08
3690.02	2.983e-10
3698.58	6.08604e-09
3707.14	1.08734e-07
3715.7	1.77448e-07
3724.25	2.35002e-07
3732.81	3.29159e-07
3741.37	3.11345e-07
3749.93	3.01475e-07
3758.49	3.83835e-07
3767.04	5.90797e-07
3775.6	5.79025e-07
3784.16	5.18088e-07
3792.72	4.97469e-07
3801.27	3.91904e-07
3809.83	2.2566e-07
3818.39	2.53726e-07
3826.95	2.93545e-07
3835.5	3.6075e-07
3844.06	3.34798e-07
3852.62	3.85298e-07
3861.18	2.83476e-07
3869.73	2.22004e-07
3878.29	2.01952e-07
3886.85	2.97245e-07
3895.41	3.18053e-07
3903.96	3.40935e-07
3912.52	3.99118e-07
3921.08	2.75811e-07
3929.64	1.43213e-07
3938.2	1.83436e-07
3946.75	2.79154e-07
3955.31	3.80492e-07
3963.87	5.05742e-07
3972.43	6.26426e-07
