Infrared Spectrum: Ethyl Ester-Propenoic Acid
Formula: C H2: C H C O2 C2 H5
CAS: 140-88-5
State: gas
Melting point: -71.2 C
Boiling point: 99.8 C
Class: IUPAC A
Instrument: IFS66V (Bruker)
Instrument parameters: KBr Beam splitter; MCT Detector; Multipass cell
Sampling: 1 L/min Flow
Resolution: 0.1250
Temperature: 23 C
Pressure: 101.3 kPa
Origin: NIST, Anayltical Chemistry Division, 301-975-3108
cm-1	(micromol/mol)-1m-1 (base 10)
574.988	7.33308e-07
583.546	1.31378e-06
592.103	1.06737e-06
600.661	3.66631e-06
609.219	7.46119e-06
617.776	7.3068e-06
626.334	4.03187e-06
634.891	2.23511e-06
643.449	5.48181e-06
652.007	1.32488e-05
660.564	2.01913e-05
669.122	2.13898e-05
677.68	1.2221e-05
686.237	4.92064e-06
694.795	1.79433e-06
703.352	8.65793e-07
711.91	8.96368e-07
720.468	9.71795e-07
729.025	1.11774e-06
737.583	1.68593e-06
746.141	1.86011e-06
754.698	2.39391e-06
763.256	3.2496e-06
771.813	6.49791e-06
780.371	1.5477e-05
788.929	3.5576e-05
797.486	6.88211e-05
806.044	0.000112038
814.602	0.000129442
823.159	8.19418e-05
831.717	4.12168e-05
840.274	2.1991e-05
848.832	2.97489e-05
857.39	4.17546e-05
865.947	4.02967e-05
874.505	2.49831e-05
883.063	1.35307e-05
891.62	1.55049e-05
900.178	2.16339e-05
908.735	2.51051e-05
917.293	2.19776e-05
925.851	1.90798e-05
934.408	1.32695e-05
942.966	2.48263e-05
951.524	6.23606e-05
960.081	0.000114296
968.639	0.000162877
977.196	0.000164505
985.754	0.000183643
994.312	0.000125513
1002.87	7.37708e-05
1011.43	3.85759e-05
1019.98	5.28899e-05
1028.54	0.000138983
1037.1	0.000197727
1045.66	0.00017811
1054.22	0.000160165
1062.77	0.000289749
1071.33	0.000325038
1079.89	0.000203754
1088.45	0.000108614
1097	0.00011333
1105.56	0.000107292
1114.12	7.19365e-05
1122.68	4.75398e-05
1131.23	3.51428e-05
1139.79	3.1234e-05
1148.35	3.74532e-05
1156.91	5.81551e-05
1165.46	0.000120735
1174.02	0.000264749
1182.58	0.000743403
1191.14	0.00187784
1199.69	0.00206708
1208.25	0.000891794
1216.81	0.000298175
1225.37	0.00013022
1233.93	8.90705e-05
1242.48	7.97198e-05
1251.04	9.27646e-05
1259.6	0.000255518
1268.16	0.000561363
1276.71	0.000661544
1285.27	0.000410106
1293.83	0.00039927
1302.39	0.000412005
1310.94	0.000229053
1319.5	8.69884e-05
1328.06	3.75558e-05
1336.62	1.84917e-05
1345.17	1.45751e-05
1353.73	1.59025e-05
1362.29	2.97445e-05
1370.85	4.29951e-05
1379.4	7.05164e-05
1387.96	0.000134113
1396.52	0.000213531
1405.08	0.000414931
1413.64	0.000437076
1422.19	0.000220476
1430.75	5.83072e-05
1439.31	4.98315e-05
1447.87	5.90607e-05
1456.42	6.89893e-05
1464.98	7.78501e-05
1473.54	7.49282e-05
1482.1	5.93965e-05
1490.65	3.87083e-05
1499.21	2.44471e-05
1507.77	1.683e-05
1516.33	1.35934e-05
1524.88	1.06411e-05
1533.44	7.99507e-06
1542	6.87348e-06
1550.56	6.73601e-06
1559.11	8.04671e-06
1567.67	8.70639e-06
1576.23	8.25197e-06
1584.79	8.50286e-06
1593.35	9.3826e-06
1601.9	1.31321e-05
1610.46	2.45928e-05
1619.02	4.59975e-05
1627.58	6.08062e-05
1636.13	0.000108792
1644.69	9.46782e-05
1653.25	4.47826e-05
1661.81	1.29863e-05
1670.36	1.09532e-05
1678.92	1.24024e-05
1687.48	1.4847e-05
1696.04	2.04433e-05
1704.59	2.81118e-05
1713.15	4.41258e-05
1721.71	9.53013e-05
1730.27	0.000296448
1738.83	0.000805706
1747.38	0.0010049
1755.94	0.00107487
1764.5	0.000427598
1773.06	0.000126091
1781.61	3.91481e-05
1790.17	2.24572e-05
1798.73	1.677e-05
1807.29	1.40917e-05
1815.84	1.16823e-05
1824.4	1.10949e-05
1832.96	1.02002e-05
1841.52	8.53577e-06
1850.07	6.33597e-06
1858.63	4.88817e-06
1867.19	4.2813e-06
1875.75	4.95541e-06
1884.3	6.94387e-06
1892.86	8.29962e-06
1901.42	8.39616e-06
1909.98	9.5495e-06
1918.54	1.52642e-05
1927.09	2.49852e-05
1935.65	2.44877e-05
1944.21	1.60844e-05
1952.77	8.78617e-06
1961.32	6.83114e-06
1969.88	5.03373e-06
1978.44	4.38907e-06
1987	4.2067e-06
1995.55	3.89318e-06
2004.11	2.81168e-06
2012.67	2.79248e-06
2021.23	3.27164e-06
2029.78	4.29205e-06
2038.34	6.81331e-06
2046.9	1.22751e-05
2055.46	1.58043e-05
2064.01	1.31783e-05
2072.57	8.6104e-06
2081.13	5.78349e-06
2089.69	5.59503e-06
2098.25	5.37762e-06
2106.8	4.47482e-06
2115.36	4.25153e-06
2123.92	4.4108e-06
2132.48	4.19022e-06
2141.03	3.61674e-06
2149.59	3.11334e-06
2158.15	3.00156e-06
2166.71	2.91291e-06
2175.26	2.2858e-06
2183.82	1.56428e-06
2192.38	1.58865e-06
2200.94	1.59068e-06
2209.49	1.49027e-06
2218.05	1.53442e-06
2226.61	1.76348e-06
2235.17	1.88091e-06
2243.72	1.81814e-06
2252.28	1.85459e-06
2260.84	1.86155e-06
2269.4	1.90668e-06
2277.96	1.88152e-06
2286.51	1.87692e-06
2295.07	1.99046e-06
2303.63	2.44387e-06
2312.19	3.02682e-06
2320.74	3.06375e-06
2329.3	2.86543e-06
2337.86	2.30867e-06
2346.42	1.92611e-06
2354.97	2.50591e-06
2363.53	3.68293e-06
2372.09	5.08941e-06
2380.65	6.67637e-06
2389.2	7.20226e-06
2397.76	5.25097e-06
2406.32	3.33171e-06
2414.88	2.75644e-06
2423.44	2.54291e-06
2431.99	2.00011e-06
2440.55	1.42551e-06
2449.11	1.30236e-06
2457.67	1.39834e-06
2466.22	1.90831e-06
2474.78	2.55468e-06
2483.34	2.77816e-06
2491.9	2.56999e-06
2500.45	2.25309e-06
2509.01	1.61326e-06
2517.57	1.28887e-06
2526.13	1.48626e-06
2534.68	1.70083e-06
2543.24	1.98993e-06
2551.8	2.02843e-06
2560.36	1.80494e-06
2568.91	1.4546e-06
2577.47	9.77451e-07
2586.03	1.1226e-06
2594.59	1.50605e-06
2603.15	1.79201e-06
2611.7	1.79046e-06
2620.26	1.52581e-06
2628.82	1.35241e-06
2637.38	1.22361e-06
2645.93	1.41094e-06
2654.49	1.69156e-06
2663.05	2.00967e-06
2671.61	2.05555e-06
2680.16	1.93375e-06
2688.72	1.93162e-06
2697.28	2.50118e-06
2705.84	2.9947e-06
2714.39	2.71918e-06
2722.95	2.67197e-06
2731.51	2.83853e-06
2740.07	2.64001e-06
2748.62	2.70323e-06
2757.18	2.8824e-06
2765.74	3.77457e-06
2774.3	4.05654e-06
2782.86	3.1528e-06
2791.41	2.72258e-06
2799.97	3.14083e-06
2808.53	3.71576e-06
2817.09	5.27484e-06
2825.64	6.49582e-06
2834.2	6.79424e-06
2842.76	6.7474e-06
2851.32	7.35092e-06
2859.87	8.44176e-06
2868.43	1.12278e-05
2876.99	2.33891e-05
2885.55	3.76742e-05
2894.1	4.41027e-05
2902.66	4.79826e-05
2911.22	5.9917e-05
2919.78	5.75996e-05
2928.34	5.50484e-05
2936.89	7.18098e-05
2945.45	9.67947e-05
2954.01	0.000102258
2962.57	9.65814e-05
2971.12	0.000115039
2979.68	0.000201126
2988.24	0.000262598
2996.8	0.000283177
3005.35	0.000168258
3013.91	9.79402e-05
3022.47	4.20307e-05
3031.03	2.46408e-05
3039.58	2.90708e-05
3048.14	3.3589e-05
3056.7	2.93891e-05
3065.26	1.19267e-05
3073.81	1.22155e-05
3082.37	1.3163e-05
3090.93	1.21819e-05
3099.49	9.94753e-06
3108.05	2.88767e-05
3116.6	2.39907e-05
3125.16	1.34706e-05
3133.72	4.9036e-06
3142.28	3.78507e-06
3150.83	3.80118e-06
3159.39	3.70748e-06
3167.95	3.09166e-06
3176.51	2.72875e-06
3185.06	2.30844e-06
3193.62	1.97194e-06
3202.18	1.7811e-06
3210.74	1.52728e-06
3219.29	1.66307e-06
3227.85	1.80807e-06
3236.41	2.02652e-06
3244.97	1.83944e-06
3253.52	1.55243e-06
3262.08	7.25967e-07
3270.64	3.48414e-07
3279.2	1.00654e-07
3287.76	8.74345e-08
3296.31	-7.7256e-08
3304.87	-1.4573e-08
3313.43	1.78882e-07
3321.99	5.40868e-07
3330.54	5.52185e-07
3339.1	5.81557e-07
3347.66	9.04175e-07
3356.22	1.21722e-06
3364.77	1.54425e-06
3373.33	1.56064e-06
3381.89	1.61669e-06
3390.45	1.83507e-06
3399	1.25724e-06
3407.56	4.58166e-07
3416.12	3.95011e-07
3424.68	2.4068e-07
3433.23	4.89812e-07
3441.79	4.85399e-07
3450.35	8.12492e-07
3458.91	3.05479e-06
3467.47	7.99329e-06
3476.02	1.20879e-05
3484.58	1.24955e-05
3493.14	6.48012e-06
3501.7	1.44573e-06
3510.25	1.16912e-07
3518.81	-3.99139e-07
3527.37	-3.70546e-07
3535.93	-1.86477e-07
3544.48	-1.44632e-07
3553.04	-2.31459e-07
3561.6	1.09149e-07
3570.16	1.51329e-07
3578.71	1.53879e-09
3587.27	9.56378e-09
3595.83	1.30335e-07
3604.39	7.8682e-08
3612.95	9.28367e-09
3621.5	2.3482e-08
3630.06	1.57768e-07
3638.62	1.48455e-07
3647.18	5.84776e-08
3655.73	-8.97191e-08
3664.29	1.29957e-07
3672.85	-9.0945e-09
3681.41	-2.2849e-08
3689.96	-1.02659e-08
3698.52	-2.3522e-08
3707.08	1.0996e-07
3715.64	1.36803e-07
3724.19	2.60521e-07
3732.75	4.75286e-07
3741.31	3.78524e-07
3749.87	3.89907e-07
3758.42	3.98925e-07
3766.98	4.79186e-07
3775.54	6.14224e-07
3784.1	5.4193e-07
3792.66	4.87131e-07
3801.21	3.38254e-07
3809.77	2.28425e-07
3818.33	2.51798e-07
3826.89	3.50506e-07
3835.44	3.54886e-07
3844	3.19253e-07
3852.56	4.20752e-07
3861.12	2.78223e-07
3869.67	1.78409e-07
3878.23	3.04186e-07
3886.79	3.59749e-07
3895.35	3.07158e-07
3903.9	2.82111e-07
3912.46	3.78655e-07
3921.02	2.24718e-07
3929.58	7.84964e-08
3938.13	1.18905e-07
3946.69	3.53667e-07
3955.25	3.68229e-07
3963.81	4.91954e-07
3972.37	6.63589e-07
