Infrared Spectrum: Ethyl Ester-Propenoic Acid
Formula: C H2: C H C O2 C2 H5
CAS: 140-88-5
State: gas
Melting point: -71.2 C
Boiling point: 99.8 C
Class: IUPAC A
Instrument: IFS66V (Bruker)
Instrument parameters: KBr Beam splitter; MCT Detector; Multipass cell
Sampling: 1 L/min Flow
Resolution: 0.9640
Temperature: 23 C
Pressure: 101.3 kPa
Origin: NIST, Anayltical Chemistry Division, 301-975-3108
cm-1	(micromol/mol)-1m-1 (base 10)
575.169	4.60851e-07
583.847	7.63491e-07
592.525	1.12169e-06
601.203	4.01653e-06
609.882	8.44734e-06
618.56	7.44304e-06
627.238	4.13166e-06
635.916	2.84156e-06
644.594	6.10529e-06
653.272	1.46992e-05
661.951	2.06277e-05
670.629	1.98521e-05
679.307	1.14573e-05
687.985	3.99359e-06
696.663	1.46398e-06
705.341	7.94212e-07
714.019	8.51671e-07
722.698	1.05803e-06
731.376	1.28905e-06
740.054	1.56167e-06
748.732	2.02914e-06
757.41	2.6262e-06
766.088	4.00976e-06
774.767	8.72995e-06
783.445	2.08217e-05
792.123	4.65363e-05
800.801	8.41658e-05
809.479	0.000120918
818.157	0.000112032
826.835	6.37916e-05
835.514	2.86848e-05
844.192	2.29648e-05
852.87	3.72983e-05
861.548	4.28562e-05
870.226	3.30882e-05
878.904	1.74328e-05
887.583	1.28014e-05
896.261	1.98194e-05
904.939	2.35845e-05
913.617	2.52568e-05
922.295	1.99957e-05
930.973	1.34745e-05
939.651	1.76301e-05
948.33	4.58048e-05
957.008	9.11226e-05
965.686	0.000145337
974.364	0.000160746
983.042	0.000162266
991.72	0.000158891
1000.4	8.91352e-05
1009.08	4.38265e-05
1017.75	4.30922e-05
1026.43	0.000112907
1035.11	0.000193929
1043.79	0.000199088
1052.47	0.000148957
1061.15	0.000269682
1069.82	0.000337766
1078.5	0.0002373
1087.18	0.000113998
1095.86	0.000113592
1104.54	0.000108769
1113.21	7.63715e-05
1121.89	4.79945e-05
1130.57	3.63421e-05
1139.25	3.11228e-05
1147.93	3.69143e-05
1156.61	5.69189e-05
1165.28	0.00011856
1173.96	0.00026352
1182.64	0.000750514
1191.32	0.00188927
1200	0.00207668
1208.67	0.000839142
1217.35	0.000278277
1226.03	0.000124552
1234.71	8.80549e-05
1243.39	7.89663e-05
1252.07	9.97503e-05
1260.74	0.000298795
1269.42	0.000602003
1278.1	0.00064403
1286.78	0.000369946
1295.46	0.000420765
1304.13	0.000451495
1312.81	0.00018012
1321.49	7.05059e-05
1330.17	3.09455e-05
1338.85	1.67973e-05
1347.52	1.4448e-05
1356.2	1.82144e-05
1364.88	3.3196e-05
1373.56	4.84588e-05
1382.24	9.08878e-05
1390.92	0.000149587
1399.59	0.000272644
1408.27	0.000435358
1416.95	0.000398539
1425.63	0.000115402
1434.31	4.97462e-05
1442.98	5.36259e-05
1451.66	6.63658e-05
1460.34	7.19078e-05
1469.02	7.88594e-05
1477.7	7.16867e-05
1486.38	4.1379e-05
1495.05	3.13745e-05
1503.73	1.97498e-05
1512.41	1.47869e-05
1521.09	1.19572e-05
1529.77	9.09179e-06
1538.44	7.17869e-06
1547.12	6.6459e-06
1555.8	7.42159e-06
1564.48	8.41683e-06
1573.16	8.47262e-06
1581.83	8.28406e-06
1590.51	8.93316e-06
1599.19	1.14685e-05
1607.87	1.99245e-05
1616.55	3.96788e-05
1625.23	5.35381e-05
1633.9	9.27982e-05
1642.58	0.000101495
1651.26	7.21501e-05
1659.94	1.43559e-05
1668.62	1.10484e-05
1677.29	1.20127e-05
1685.97	1.41809e-05
1694.65	1.91355e-05
1703.33	2.77462e-05
1712.01	4.13977e-05
1720.69	8.3916e-05
1729.36	0.000263705
1738.04	0.000744268
1746.72	0.00102973
1755.4	0.00110884
1764.08	0.000450809
1772.75	0.000132182
1781.43	3.98733e-05
1790.11	2.24385e-05
1798.79	1.67201e-05
1807.47	1.40161e-05
1816.15	1.16319e-05
1824.82	1.10624e-05
1833.5	9.99901e-06
1842.18	8.32057e-06
1850.86	6.14865e-06
1859.54	4.83121e-06
1868.21	4.26726e-06
1876.89	5.19273e-06
1885.57	7.29706e-06
1894.25	8.40069e-06
1902.93	8.27393e-06
1911.6	1.02977e-05
1920.28	1.68379e-05
1928.96	2.73706e-05
1937.64	2.30368e-05
1946.32	1.27271e-05
1955	8.78981e-06
1963.67	6.09273e-06
1972.35	4.87444e-06
1981.03	4.35878e-06
1989.71	4.0939e-06
1998.39	3.39015e-06
2007.06	2.76264e-06
2015.74	2.93307e-06
2024.42	3.56301e-06
2033.1	4.97265e-06
2041.78	8.74329e-06
2050.46	1.40138e-05
2059.13	1.60287e-05
2067.81	1.10173e-05
2076.49	7.0226e-06
2085.17	5.55642e-06
2093.85	5.55454e-06
2102.52	5.00533e-06
2111.2	4.26615e-06
2119.88	4.38674e-06
2128.56	4.42469e-06
2137.24	3.93436e-06
2145.91	3.27923e-06
2154.59	2.96766e-06
2163.27	3.13401e-06
2171.95	2.59202e-06
2180.63	1.71267e-06
2189.31	1.57707e-06
2197.98	1.61756e-06
2206.66	1.49129e-06
2215.34	1.43542e-06
2224.02	1.69963e-06
2232.7	1.82868e-06
2241.37	1.8339e-06
2250.05	1.86071e-06
2258.73	1.84334e-06
2267.41	1.94769e-06
2276.09	1.90873e-06
2284.77	1.84107e-06
2293.44	1.9403e-06
2302.12	2.37355e-06
2310.8	2.91506e-06
2319.48	3.09367e-06
2328.16	2.89159e-06
2336.83	2.31331e-06
2345.51	1.94439e-06
2354.19	2.45999e-06
2362.87	3.64073e-06
2371.55	5.04234e-06
2380.23	6.6331e-06
2388.9	7.19612e-06
2397.58	5.28812e-06
2406.26	3.35715e-06
2414.94	2.79927e-06
2423.62	2.57734e-06
2432.29	1.98916e-06
2440.97	1.43515e-06
2449.65	1.22664e-06
2458.33	1.3565e-06
2467.01	1.99371e-06
2475.68	2.55083e-06
2484.36	2.70954e-06
2493.04	2.5042e-06
2501.72	2.15065e-06
2510.4	1.57695e-06
2519.08	1.31752e-06
2527.75	1.4689e-06
2536.43	1.84928e-06
2545.11	2.07036e-06
2553.79	2.06134e-06
2562.47	1.68605e-06
2571.14	1.26418e-06
2579.82	9.41117e-07
2588.5	1.16736e-06
2597.18	1.57424e-06
2605.86	1.79141e-06
2614.54	1.70011e-06
2623.21	1.38052e-06
2631.89	1.22111e-06
2640.57	1.32618e-06
2649.25	1.55911e-06
2657.93	1.83435e-06
2666.6	2.01233e-06
2675.28	2.01626e-06
2683.96	1.89351e-06
2692.64	2.08224e-06
2701.32	2.77067e-06
2709.99	2.95452e-06
2718.67	2.57615e-06
2727.35	2.65794e-06
2736.03	2.87683e-06
2744.71	2.60106e-06
2753.39	2.82695e-06
2762.06	3.39991e-06
2770.74	4.05912e-06
2779.42	3.70209e-06
2788.1	2.74098e-06
2796.78	2.96273e-06
2805.45	3.48027e-06
2814.13	4.51033e-06
2822.81	6.29245e-06
2831.49	6.80798e-06
2840.17	6.76422e-06
2848.85	7.19579e-06
2857.52	8.21233e-06
2866.2	1.01741e-05
2874.88	1.85931e-05
2883.56	3.63062e-05
2892.24	4.41121e-05
2900.91	4.55075e-05
2909.59	5.81029e-05
2918.27	5.91912e-05
2926.95	5.62129e-05
2935.63	6.64296e-05
2944.31	9.55265e-05
2952.98	0.000103244
2961.66	9.50088e-05
2970.34	0.000112423
2979.02	0.000193218
2987.7	0.00026162
2996.37	0.00029908
3005.05	0.000171465
3013.73	9.97321e-05
3022.41	4.224e-05
3031.09	2.46109e-05
3039.76	2.94458e-05
3048.44	3.36132e-05
3057.12	2.81799e-05
3065.8	1.17081e-05
3074.48	1.24902e-05
3083.16	1.28237e-05
3091.83	1.15866e-05
3100.51	1.07602e-05
3109.19	2.90072e-05
3117.87	2.72923e-05
3126.55	1.02727e-05
3135.22	4.39612e-06
3143.9	3.67395e-06
3152.58	3.90756e-06
3161.26	3.62366e-06
3169.94	3.10423e-06
3178.62	2.64589e-06
3187.29	2.29181e-06
3195.97	1.95171e-06
3204.65	1.76334e-06
3213.33	1.6461e-06
3222.01	1.69231e-06
3230.68	1.84653e-06
3239.36	1.92136e-06
3248.04	1.74091e-06
3256.72	1.20723e-06
3265.4	5.71138e-07
3274.07	1.78565e-07
3282.75	1.61664e-08
3291.43	-7.19921e-08
3300.11	-9.76931e-08
3308.79	1.11731e-07
3317.47	3.76105e-07
3326.14	4.9608e-07
3334.82	6.12824e-07
3343.5	7.65153e-07
3352.18	1.05592e-06
3360.86	1.47267e-06
3369.53	1.59924e-06
3378.21	1.58496e-06
3386.89	1.89319e-06
3395.57	1.54849e-06
3404.25	6.16171e-07
3412.93	3.34481e-07
3421.6	2.57363e-07
3430.28	2.39982e-07
3438.96	3.17671e-07
3447.64	6.64768e-07
3456.32	2.22733e-06
3464.99	6.38755e-06
3473.67	1.1583e-05
3482.35	1.26533e-05
3491.03	8.0434e-06
3499.71	2.47197e-06
3508.39	1.4792e-07
3517.06	-4.36736e-07
3525.74	-4.5917e-07
3534.42	-4.91314e-07
3543.1	-3.02981e-07
3551.78	-1.15497e-07
3560.45	1.16919e-07
3569.13	1.69398e-07
3577.81	7.59427e-08
3586.49	-1.07606e-08
3595.17	9.5645e-08
3603.84	7.48477e-08
3612.52	1.19291e-07
3621.2	6.20572e-08
3629.88	7.49241e-08
3638.56	8.44552e-08
3647.24	-1.49295e-08
3655.91	7.97842e-08
3664.59	1.28851e-08
3673.27	1.4573e-08
3681.95	3.54467e-08
3690.63	1.72541e-08
3699.3	4.20566e-08
3707.98	6.7674e-08
3716.66	1.63636e-07
3725.34	2.20407e-07
3734.02	2.81664e-07
3742.7	2.75745e-07
3751.37	3.66694e-07
3760.05	5.15302e-07
3768.73	5.52742e-07
3777.41	6.14057e-07
3786.09	5.34513e-07
3794.76	3.77433e-07
3803.44	3.36537e-07
3812.12	2.63551e-07
3820.8	2.45653e-07
3829.48	2.60292e-07
3838.16	3.75716e-07
3846.83	3.6852e-07
3855.51	2.69903e-07
3864.19	2.59441e-07
3872.87	2.03062e-07
3881.55	2.51492e-07
3890.22	3.13462e-07
3898.9	3.60742e-07
3907.58	3.29268e-07
3916.26	3.08027e-07
3924.94	2.46828e-07
3933.61	2.35606e-07
3942.29	1.87499e-07
3950.97	3.3913e-07
3959.65	3.72933e-07
3968.33	5.23076e-07
