Infrared Spectrum: Ethyl Ester-Propenoic Acid
Formula: C H2: C H C O2 C2 H5
CAS: 140-88-5
State: gas
Melting point: -71.2 C
Boiling point: 99.8 C
Class: IUPAC A
Instrument: IFS66V (Bruker)
Instrument parameters: KBr Beam splitter; MCT Detector; Multipass cell
Sampling: 1 L/min Flow
Resolution: 1.9290
Temperature: 23 C
Pressure: 101.3 kPa
Origin: NIST, Anayltical Chemistry Division, 301-975-3108
cm-1	(micromol/mol)-1m-1 (base 10)
574.687	4.8573e-07
583.365	7.28047e-07
592.043	1.24261e-06
600.721	3.62455e-06
609.4	7.4953e-06
618.078	7.6935e-06
626.756	4.24901e-06
635.434	2.81299e-06
644.112	5.80779e-06
652.79	1.4082e-05
661.469	2.0423e-05
670.147	2.03437e-05
678.825	1.16431e-05
687.503	4.25688e-06
696.181	1.49459e-06
704.859	8.62133e-07
713.537	8.71133e-07
722.216	1.04809e-06
730.894	1.31994e-06
739.572	1.53011e-06
748.25	1.99314e-06
756.928	2.58912e-06
765.606	3.88034e-06
774.285	8.30016e-06
782.963	1.99426e-05
791.641	4.47058e-05
800.319	8.20667e-05
808.997	0.000118875
817.675	0.000113117
826.353	6.61633e-05
835.032	3.00029e-05
843.71	2.26529e-05
852.388	3.64521e-05
861.066	4.28289e-05
869.744	3.39611e-05
878.422	1.81281e-05
887.101	1.26841e-05
895.779	1.95207e-05
904.457	2.33586e-05
913.135	2.54007e-05
921.813	2.00468e-05
930.491	1.38123e-05
939.169	1.69865e-05
947.848	4.35293e-05
956.526	8.85617e-05
965.204	0.000140659
973.882	0.000159439
982.56	0.000162483
991.238	0.000157826
999.917	9.21695e-05
1008.59	4.54612e-05
1017.27	4.17676e-05
1025.95	0.000107135
1034.63	0.00019056
1043.31	0.000201902
1051.99	0.000148114
1060.66	0.000261934
1069.34	0.000335846
1078.02	0.000250316
1086.7	0.000117079
1095.38	0.000113205
1104.05	0.000109338
1112.73	7.89057e-05
1121.41	4.86019e-05
1130.09	3.7252e-05
1138.77	3.10438e-05
1147.45	3.64193e-05
1156.12	5.52105e-05
1164.8	0.000112904
1173.48	0.000253349
1182.16	0.000702695
1190.84	0.00184728
1199.51	0.00206372
1208.19	0.000907837
1216.87	0.000296764
1225.55	0.000128771
1234.23	8.87819e-05
1242.9	7.93792e-05
1251.58	9.65178e-05
1260.26	0.000280692
1268.94	0.000586683
1277.62	0.000650378
1286.3	0.000382736
1294.97	0.000415396
1303.65	0.000440791
1312.33	0.000191763
1321.01	7.42677e-05
1329.69	3.23535e-05
1338.36	1.71525e-05
1347.04	1.44618e-05
1355.72	1.77e-05
1364.4	3.27514e-05
1373.08	4.70159e-05
1381.76	8.68991e-05
1390.43	0.000146914
1399.11	0.000262798
1407.79	0.000434686
1416.47	0.000409692
1425.15	0.000127314
1433.82	5.044e-05
1442.5	5.30281e-05
1451.18	6.50824e-05
1459.86	7.16812e-05
1468.54	7.90715e-05
1477.22	7.22348e-05
1485.89	4.31204e-05
1494.57	3.22984e-05
1503.25	2.01698e-05
1511.93	1.49292e-05
1520.61	1.21132e-05
1529.28	9.26188e-06
1537.96	7.23162e-06
1546.64	6.63586e-06
1555.32	7.36325e-06
1564	8.35498e-06
1572.67	8.51915e-06
1581.35	8.24071e-06
1590.03	8.86346e-06
1598.71	1.12398e-05
1607.39	1.91858e-05
1616.07	3.83625e-05
1624.74	5.27038e-05
1633.42	8.92953e-05
1642.1	0.000102392
1650.78	7.89485e-05
1659.46	1.48995e-05
1668.13	1.11022e-05
1676.81	1.18977e-05
1685.49	1.40037e-05
1694.17	1.87813e-05
1702.85	2.74147e-05
1711.53	4.01072e-05
1720.2	7.94484e-05
1728.88	0.000248135
1737.56	0.000708336
1746.24	0.00104947
1754.92	0.00112779
1763.59	0.000479097
1772.27	0.000143016
1780.95	4.21104e-05
1789.63	2.28995e-05
1798.31	1.69909e-05
1806.98	1.41802e-05
1815.66	1.17235e-05
1824.34	1.11055e-05
1833.02	1.01054e-05
1841.7	8.43473e-06
1850.38	6.26114e-06
1859.05	4.88891e-06
1867.73	4.26729e-06
1876.41	5.08925e-06
1885.09	7.18327e-06
1893.77	8.3729e-06
1902.44	8.29566e-06
1911.12	1.00603e-05
1919.8	1.63888e-05
1928.48	2.68122e-05
1937.16	2.32949e-05
1945.84	1.34516e-05
1954.51	8.77044e-06
1963.19	6.23301e-06
1971.87	4.90269e-06
1980.55	4.35782e-06
1989.23	4.1256e-06
1997.9	3.45398e-06
2006.58	2.76674e-06
2015.26	2.90369e-06
2023.94	3.51907e-06
2032.62	4.86449e-06
2041.3	8.42712e-06
2049.97	1.38029e-05
2058.65	1.60599e-05
2067.33	1.12766e-05
2076.01	7.19487e-06
2084.69	5.56632e-06
2093.36	5.5648e-06
2102.04	5.05052e-06
2110.72	4.26898e-06
2119.4	4.38075e-06
2128.08	4.4083e-06
2136.75	3.96937e-06
2145.43	3.32143e-06
2154.11	2.96404e-06
2162.79	3.13077e-06
2171.47	2.63384e-06
2180.15	1.73605e-06
2188.82	1.58535e-06
2197.5	1.62831e-06
2206.18	1.50303e-06
2214.86	1.4537e-06
2223.54	1.68503e-06
2232.21	1.8033e-06
2240.89	1.82964e-06
2249.57	1.86312e-06
2258.25	1.83379e-06
2266.93	1.94738e-06
2275.61	1.92212e-06
2284.28	1.84954e-06
2292.96	1.92124e-06
2301.64	2.32716e-06
2310.32	2.87225e-06
2319	3.10528e-06
2327.67	2.93387e-06
2336.35	2.36521e-06
2345.03	1.96104e-06
2353.71	2.39377e-06
2362.39	3.56234e-06
2371.06	4.95715e-06
2379.74	6.55176e-06
2388.42	7.21041e-06
2397.1	5.45846e-06
2405.78	3.42454e-06
2414.46	2.81823e-06
2423.13	2.58558e-06
2431.81	2.03523e-06
2440.49	1.4549e-06
2449.17	1.22398e-06
2457.85	1.33948e-06
2466.52	1.94601e-06
2475.2	2.53396e-06
2483.88	2.73115e-06
2492.56	2.52364e-06
2501.24	2.1789e-06
2509.92	1.61133e-06
2518.59	1.33729e-06
2527.27	1.45915e-06
2535.95	1.83666e-06
2544.63	2.03756e-06
2553.31	2.03942e-06
2561.98	1.7096e-06
2570.66	1.29802e-06
2579.34	9.49084e-07
2588.02	1.13803e-06
2596.7	1.55223e-06
2605.38	1.79333e-06
2614.05	1.71725e-06
2622.73	1.41054e-06
2631.41	1.22216e-06
2640.09	1.29519e-06
2648.77	1.53481e-06
2657.44	1.8211e-06
2666.12	1.98989e-06
2674.8	2.01809e-06
2683.48	1.88091e-06
2692.16	2.04622e-06
2700.83	2.75583e-06
2709.51	2.96526e-06
2718.19	2.57552e-06
2726.87	2.64731e-06
2735.55	2.91754e-06
2744.23	2.5795e-06
2752.9	2.82233e-06
2761.58	3.35073e-06
2770.26	4.04727e-06
2778.94	3.72693e-06
2787.62	2.75897e-06
2796.29	2.95762e-06
2804.97	3.42788e-06
2813.65	4.42671e-06
2822.33	6.22759e-06
2831.01	6.78577e-06
2839.69	6.76744e-06
2848.36	7.15244e-06
2857.04	8.15244e-06
2865.72	1.00059e-05
2874.4	1.77155e-05
2883.08	3.60336e-05
2891.75	4.38551e-05
2900.43	4.50985e-05
2909.11	5.73708e-05
2917.79	5.99521e-05
2926.47	5.65421e-05
2935.14	6.45508e-05
2943.82	9.47125e-05
2952.5	0.000103585
2961.18	9.50395e-05
2969.86	0.000110681
2978.54	0.000187189
2987.21	0.000260928
2995.89	0.000321685
3004.57	0.000176893
3013.25	0.000104214
3021.93	4.4245e-05
3030.6	2.49398e-05
3039.28	2.85791e-05
3047.96	3.36117e-05
3056.64	2.93509e-05
3065.32	1.20022e-05
3074	1.23441e-05
3082.67	1.29715e-05
3091.35	1.18711e-05
3100.03	1.041e-05
3108.71	2.89039e-05
3117.39	2.61473e-05
3126.06	1.13856e-05
3134.74	4.52951e-06
3143.42	3.69872e-06
3152.1	3.90121e-06
3160.78	3.63323e-06
3169.46	3.11295e-06
3178.13	2.68624e-06
3186.81	2.26728e-06
3195.49	1.98547e-06
3204.17	1.80066e-06
3212.85	1.66781e-06
3221.52	1.67893e-06
3230.2	1.82841e-06
3238.88	1.91197e-06
3247.56	1.75985e-06
3256.24	1.2325e-06
3264.91	5.82903e-07
3273.59	2.16365e-07
3282.27	6.89618e-08
3290.95	-3.92046e-08
3299.63	-1.08105e-07
3308.31	1.08465e-07
3316.98	3.80252e-07
3325.66	5.09452e-07
3334.34	6.15086e-07
3343.02	7.67754e-07
3351.7	1.08727e-06
3360.37	1.46878e-06
3369.05	1.57355e-06
3377.73	1.58676e-06
3386.41	1.84529e-06
3395.09	1.56843e-06
3403.77	6.8276e-07
3412.44	3.67505e-07
3421.12	2.59037e-07
3429.8	2.63664e-07
3438.48	2.85771e-07
3447.16	6.01463e-07
3455.83	2.09429e-06
3464.51	6.08079e-06
3473.19	1.14133e-05
3481.87	1.25445e-05
3490.55	8.4022e-06
3499.22	2.69123e-06
3507.9	1.98926e-07
3516.58	-4.06979e-07
3525.26	-4.79873e-07
3533.94	-4.77447e-07
3542.62	-2.95368e-07
3551.29	-1.26606e-07
3559.97	9.71693e-08
3568.65	1.52635e-07
3577.33	4.00194e-08
3586.01	-1.69158e-09
3594.68	5.29809e-08
3603.36	7.58736e-08
3612.04	9.94538e-08
3620.72	8.5059e-08
3629.4	8.06391e-08
3638.08	3.56286e-08
3646.75	4.95105e-09
3655.43	4.27223e-08
3664.11	2.81784e-08
3672.79	3.52867e-08
3681.47	3.49483e-08
3690.14	2.73017e-08
3698.82	4.42648e-08
3707.5	8.99701e-08
3716.18	1.64956e-07
3724.86	2.19159e-07
3733.54	2.83767e-07
3742.21	2.76993e-07
3750.89	3.42008e-07
3759.57	4.62921e-07
3768.25	5.72448e-07
3776.93	6.19157e-07
3785.6	5.42971e-07
3794.28	3.98084e-07
3802.96	3.57887e-07
3811.64	2.46697e-07
3820.32	2.16293e-07
3828.99	2.43838e-07
3837.67	3.71136e-07
3846.35	3.67622e-07
3855.03	3.36824e-07
3863.71	2.42168e-07
3872.39	2.26493e-07
3881.06	2.39837e-07
3889.74	3.23328e-07
3898.42	3.34205e-07
3907.1	3.63089e-07
3915.78	3.25823e-07
3924.45	2.19177e-07
3933.13	2.21222e-07
3941.81	1.82327e-07
3950.49	2.99576e-07
3959.17	3.59557e-07
3967.85	5.31908e-07
