Infrared Spectrum: Ethyl Ester-Propenoic Acid
Formula: C H2: C H C O2 C2 H5
CAS: 140-88-5
State: gas
Melting point: -71.2 C
Boiling point: 99.8 C
Class: IUPAC A
Instrument: IFS66V (Bruker)
Instrument parameters: KBr Beam splitter; MCT Detector; Multipass cell
Sampling: 1 L/min Flow
Resolution: 0.2410
Temperature: 23 C
Pressure: 101.3 kPa
Origin: NIST, Anayltical Chemistry Division, 301-975-3108
cm-1	(micromol/mol)-1m-1 (base 10)
575.048	4.50196e-07
583.606	8.382e-07
592.163	1.23996e-06
600.721	3.79396e-06
609.279	7.30279e-06
617.836	7.77063e-06
626.394	4.36837e-06
634.951	2.51229e-06
643.509	5.4351e-06
652.067	1.32326e-05
660.624	2.01787e-05
669.182	2.11783e-05
677.74	1.21995e-05
686.297	4.98813e-06
694.855	1.7306e-06
703.412	7.68354e-07
711.97	8.40692e-07
720.528	9.81184e-07
729.085	1.04816e-06
737.643	1.72748e-06
746.201	1.85928e-06
754.758	2.44438e-06
763.316	3.35418e-06
771.873	6.51772e-06
780.431	1.56732e-05
788.989	3.5726e-05
797.546	6.92934e-05
806.104	0.000111626
814.662	0.00012829
823.219	8.14562e-05
831.777	4.11279e-05
840.334	2.20738e-05
848.892	2.99957e-05
857.45	4.18452e-05
866.007	4.03464e-05
874.565	2.49201e-05
883.123	1.35321e-05
891.68	1.56804e-05
900.238	2.16332e-05
908.795	2.52131e-05
917.353	2.19183e-05
925.911	1.904e-05
934.468	1.33576e-05
943.026	2.52372e-05
951.584	6.26848e-05
960.141	0.000115411
968.699	0.000159713
977.256	0.000164481
985.814	0.000185329
994.372	0.000125225
1002.93	7.34761e-05
1011.49	3.87943e-05
1020.04	5.34782e-05
1028.6	0.000139731
1037.16	0.000197895
1045.72	0.000177473
1054.28	0.000161087
1062.83	0.000289844
1071.39	0.000324592
1079.95	0.000202758
1088.51	0.000108999
1097.06	0.000113403
1105.62	0.00010722
1114.18	7.16801e-05
1122.74	4.77668e-05
1131.29	3.54058e-05
1139.85	3.16492e-05
1148.41	3.78917e-05
1156.97	5.89563e-05
1165.52	0.000122334
1174.08	0.000267569
1182.64	0.000751116
1191.2	0.00187687
1199.75	0.00206365
1208.31	0.000885794
1216.87	0.000297686
1225.43	0.000130592
1233.99	8.97049e-05
1242.54	8.02464e-05
1251.1	9.39093e-05
1259.66	0.000258148
1268.22	0.000562586
1276.77	0.000659713
1285.33	0.000408941
1293.89	0.000400014
1302.45	0.000413412
1311	0.00022755
1319.56	8.67855e-05
1328.12	3.76832e-05
1336.68	1.87431e-05
1345.23	1.48708e-05
1353.79	1.62162e-05
1362.35	3.00697e-05
1370.91	4.31851e-05
1379.46	7.11021e-05
1388.02	0.000134423
1396.58	0.000214707
1405.14	0.000414916
1413.7	0.00043612
1422.25	0.000218285
1430.81	5.85523e-05
1439.37	5.00664e-05
1447.93	5.92544e-05
1456.48	6.91114e-05
1465.04	7.78022e-05
1473.6	7.48294e-05
1482.16	5.9118e-05
1490.71	3.8654e-05
1499.27	2.4419e-05
1507.83	1.68485e-05
1516.39	1.35865e-05
1524.94	1.07387e-05
1533.5	8.0784e-06
1542.06	6.91252e-06
1550.62	6.79964e-06
1559.18	8.08646e-06
1567.73	8.72132e-06
1576.29	8.30724e-06
1584.85	8.51511e-06
1593.41	9.4724e-06
1601.96	1.31968e-05
1610.52	2.47849e-05
1619.08	4.61222e-05
1627.64	6.10397e-05
1636.19	0.000108777
1644.75	9.51026e-05
1653.31	4.42785e-05
1661.87	1.31266e-05
1670.42	1.10963e-05
1678.98	1.25404e-05
1687.54	1.50822e-05
1696.1	2.06435e-05
1704.65	2.8338e-05
1713.21	4.46764e-05
1721.77	9.67782e-05
1730.33	0.000299469
1738.89	0.000809187
1747.44	0.00100258
1756	0.00106683
1764.56	0.000424913
1773.12	0.000125739
1781.67	3.94454e-05
1790.23	2.26512e-05
1798.79	1.69062e-05
1807.35	1.42211e-05
1815.9	1.17586e-05
1824.46	1.11918e-05
1833.02	1.02076e-05
1841.58	8.55268e-06
1850.13	6.3638e-06
1858.69	4.96631e-06
1867.25	4.31654e-06
1875.81	5.02552e-06
1884.36	7.02059e-06
1892.92	8.30907e-06
1901.48	8.40903e-06
1910.04	9.61329e-06
1918.6	1.53233e-05
1927.15	2.5012e-05
1935.71	2.44055e-05
1944.27	1.60193e-05
1952.83	8.81954e-06
1961.38	6.82695e-06
1969.94	5.07464e-06
1978.5	4.39775e-06
1987.06	4.2345e-06
1995.61	3.87023e-06
2004.17	2.84253e-06
2012.73	2.79567e-06
2021.29	3.28057e-06
2029.84	4.35949e-06
2038.4	6.8528e-06
2046.96	1.22868e-05
2055.52	1.57849e-05
2064.08	1.31467e-05
2072.63	8.55241e-06
2081.19	5.87365e-06
2089.75	5.58951e-06
2098.31	5.35725e-06
2106.86	4.52715e-06
2115.42	4.28364e-06
2123.98	4.40297e-06
2132.54	4.21986e-06
2141.09	3.62515e-06
2149.65	3.09536e-06
2158.21	3.00123e-06
2166.77	2.96895e-06
2175.32	2.28308e-06
2183.88	1.59433e-06
2192.44	1.58729e-06
2201	1.59994e-06
2209.55	1.50549e-06
2218.11	1.50462e-06
2226.67	1.75887e-06
2235.23	1.86294e-06
2243.79	1.83652e-06
2252.34	1.86429e-06
2260.9	1.86809e-06
2269.46	1.93016e-06
2278.02	1.86314e-06
2286.57	1.86092e-06
2295.13	1.99438e-06
2303.69	2.46112e-06
2312.25	2.98939e-06
2320.8	3.09364e-06
2329.36	2.85344e-06
2337.92	2.31399e-06
2346.48	1.92337e-06
2355.03	2.54142e-06
2363.59	3.69016e-06
2372.15	5.1396e-06
2380.71	6.68604e-06
2389.26	7.18326e-06
2397.82	5.17661e-06
2406.38	3.32375e-06
2414.94	2.78521e-06
2423.5	2.56626e-06
2432.05	2.00432e-06
2440.61	1.45245e-06
2449.17	1.28793e-06
2457.73	1.39614e-06
2466.28	1.91761e-06
2474.84	2.52745e-06
2483.4	2.7901e-06
2491.96	2.5506e-06
2500.51	2.2379e-06
2509.07	1.62312e-06
2517.63	1.33481e-06
2526.19	1.46182e-06
2534.74	1.73521e-06
2543.3	1.99644e-06
2551.86	2.03826e-06
2560.42	1.82759e-06
2568.98	1.42606e-06
2577.53	1.00414e-06
2586.09	1.09073e-06
2594.65	1.48239e-06
2603.21	1.7805e-06
2611.76	1.75502e-06
2620.32	1.5448e-06
2628.88	1.31291e-06
2637.44	1.23829e-06
2645.99	1.49217e-06
2654.55	1.7137e-06
2663.11	2.01946e-06
2671.67	2.04002e-06
2680.22	1.93256e-06
2688.78	1.93413e-06
2697.34	2.51198e-06
2705.9	2.9789e-06
2714.45	2.75065e-06
2723.01	2.63698e-06
2731.57	2.80501e-06
2740.13	2.68596e-06
2748.69	2.75613e-06
2757.24	2.93899e-06
2765.8	3.84861e-06
2774.36	3.98395e-06
2782.92	3.15378e-06
2791.47	2.78629e-06
2800.03	3.15205e-06
2808.59	3.77908e-06
2817.15	5.21413e-06
2825.7	6.44791e-06
2834.26	6.89627e-06
2842.82	6.76524e-06
2851.38	7.40059e-06
2859.93	8.51698e-06
2868.49	1.12779e-05
2877.05	2.36052e-05
2885.61	3.78157e-05
2894.16	4.41823e-05
2902.72	4.80546e-05
2911.28	5.99514e-05
2919.84	5.75535e-05
2928.4	5.51769e-05
2936.95	7.2183e-05
2945.51	9.68258e-05
2954.07	0.000102021
2962.63	9.67761e-05
2971.18	0.000115457
2979.74	0.000201874
2988.3	0.000262526
2996.86	0.00028121
3005.41	0.000167636
3013.97	9.75747e-05
3022.53	4.1961e-05
3031.09	2.47791e-05
3039.64	2.92451e-05
3048.2	3.35613e-05
3056.76	2.91152e-05
3065.32	1.20308e-05
3073.88	1.23175e-05
3082.43	1.312e-05
3090.99	1.20897e-05
3099.55	1.00138e-05
3108.11	2.87859e-05
3116.66	2.41962e-05
3125.22	1.33859e-05
3133.78	4.81603e-06
3142.34	3.7641e-06
3150.89	3.88652e-06
3159.45	3.78094e-06
3168.01	3.14708e-06
3176.57	2.68402e-06
3185.12	2.36619e-06
3193.68	1.91544e-06
3202.24	1.78478e-06
3210.8	1.6175e-06
3219.35	1.67683e-06
3227.91	1.84409e-06
3236.47	1.93888e-06
3245.03	1.92155e-06
3253.59	1.44098e-06
3262.14	7.68878e-07
3270.7	3.32862e-07
3279.26	7.8722e-09
3287.82	7.72305e-09
3296.37	-9.21855e-08
3304.93	3.16125e-09
3313.49	1.69722e-07
3322.05	4.24913e-07
3330.6	6.30074e-07
3339.16	6.55008e-07
3347.72	8.88915e-07
3356.28	1.2381e-06
3364.83	1.55265e-06
3373.39	1.57446e-06
3381.95	1.60802e-06
3390.51	1.73838e-06
3399.06	1.20099e-06
3407.62	4.04036e-07
3416.18	3.80448e-07
3424.74	2.24165e-07
3433.3	3.48039e-07
3441.85	4.28144e-07
3450.41	8.68521e-07
3458.97	3.19045e-06
3467.53	8.02142e-06
3476.08	1.20526e-05
3484.64	1.23938e-05
3493.2	6.42599e-06
3501.76	1.61777e-06
3510.31	2.6385e-08
3518.87	-4.31341e-07
3527.43	-3.74177e-07
3535.99	-2.38469e-07
3544.54	-2.10625e-07
3553.1	-1.8428e-07
3561.66	1.03605e-07
3570.22	1.44479e-07
3578.78	-3.35442e-08
3587.33	-1.40055e-09
3595.89	6.87799e-08
3604.45	8.53828e-08
3613.01	-2.15394e-08
3621.56	3.57232e-09
3630.12	1.23176e-07
3638.68	1.66357e-07
3647.24	-2.71889e-08
3655.79	-2.37803e-08
3664.35	1.08246e-07
3672.91	-5.83867e-09
3681.47	8.75364e-08
3690.02	1.47513e-08
3698.58	2.81893e-08
3707.14	9.09523e-08
3715.7	1.76775e-07
3724.25	2.36832e-07
3732.81	3.22345e-07
3741.37	3.22495e-07
3749.93	3.30523e-07
3758.49	3.90492e-07
3767.04	5.71135e-07
3775.6	5.76315e-07
3784.16	5.23123e-07
3792.72	5.03592e-07
3801.27	3.79186e-07
3809.83	2.29643e-07
3818.39	2.4314e-07
3826.95	2.90289e-07
3835.5	3.79608e-07
3844.06	3.42903e-07
3852.62	3.94767e-07
3861.18	3.03007e-07
3869.73	2.33801e-07
3878.29	2.07242e-07
3886.85	2.97132e-07
3895.41	3.4339e-07
3903.96	3.37653e-07
3912.52	4.1102e-07
3921.08	2.72482e-07
3929.64	1.48466e-07
3938.2	1.87852e-07
3946.75	2.4506e-07
3955.31	4.13589e-07
3963.87	5.07549e-07
3972.43	6.30689e-07
