Infrared Spectrum: Ethyl Ester-Propenoic Acid
Formula: C H2: C H C O2 C2 H5
CAS: 140-88-5
State: gas
Melting point: -71.2 C
Boiling point: 99.8 C
Class: IUPAC A
Instrument: IFS66V (Bruker)
Instrument parameters: KBr Beam splitter; MCT Detector; Multipass cell
Sampling: 1 L/min Flow
Resolution: 0.9640
Temperature: 23 C
Pressure: 101.3 kPa
Origin: NIST, Anayltical Chemistry Division, 301-975-3108
cm-1	(micromol/mol)-1m-1 (base 10)
575.169	4.50196e-07
583.847	7.68565e-07
592.525	1.18315e-06
601.203	4.01795e-06
609.882	8.38056e-06
618.56	7.43855e-06
627.238	4.15473e-06
635.916	2.84503e-06
644.594	6.08712e-06
653.272	1.46854e-05
661.951	2.06254e-05
670.629	1.98554e-05
679.307	1.14267e-05
687.985	3.97713e-06
696.663	1.46129e-06
705.341	8.1159e-07
714.019	8.55163e-07
722.698	1.05969e-06
731.376	1.29568e-06
740.054	1.56318e-06
748.732	2.03249e-06
757.41	2.62626e-06
766.088	4.00631e-06
774.767	8.71686e-06
783.445	2.08095e-05
792.123	4.65389e-05
800.801	8.42248e-05
809.479	0.000120992
818.157	0.00011171
826.835	6.37886e-05
835.514	2.87188e-05
844.192	2.29904e-05
852.87	3.72887e-05
861.548	4.28565e-05
870.226	3.30842e-05
878.904	1.74359e-05
887.583	1.27993e-05
896.261	1.98195e-05
904.939	2.35872e-05
913.617	2.52435e-05
922.295	2.00101e-05
930.973	1.34812e-05
939.651	1.76483e-05
948.33	4.58133e-05
957.008	9.11373e-05
965.686	0.000145747
974.364	0.00016072
983.042	0.000162366
991.72	0.000158474
1000.4	8.91323e-05
1009.08	4.38561e-05
1017.75	4.31325e-05
1026.43	0.000112928
1035.11	0.000193755
1043.79	0.000198753
1052.47	0.000149086
1061.15	0.000269573
1069.82	0.000337412
1078.5	0.000237461
1087.18	0.000114081
1095.86	0.000113551
1104.54	0.000108767
1113.21	7.63778e-05
1121.89	4.80241e-05
1130.57	3.63541e-05
1139.25	3.11249e-05
1147.93	3.69175e-05
1156.61	5.69435e-05
1165.28	0.000118621
1173.96	0.000263721
1182.64	0.000751113
1191.32	0.00188808
1200	0.00207548
1208.67	0.000840289
1217.35	0.000278449
1226.03	0.000124596
1234.71	8.80621e-05
1243.39	7.89797e-05
1252.07	9.9842e-05
1260.74	0.000298865
1269.42	0.000601867
1278.1	0.000643761
1286.78	0.000370119
1295.46	0.00042031
1304.13	0.00045068
1312.81	0.000180284
1321.49	7.05423e-05
1330.17	3.09494e-05
1338.85	1.67946e-05
1347.52	1.44474e-05
1356.2	1.82227e-05
1364.88	3.31878e-05
1373.56	4.84722e-05
1382.24	9.09154e-05
1390.92	0.000149473
1399.59	0.000272793
1408.27	0.000435559
1416.95	0.000398449
1425.63	0.000115614
1434.31	4.97671e-05
1442.98	5.36227e-05
1451.66	6.63655e-05
1460.34	7.19076e-05
1469.02	7.88715e-05
1477.7	7.16487e-05
1486.38	4.14449e-05
1495.05	3.13782e-05
1503.73	1.9747e-05
1512.41	1.47796e-05
1521.09	1.1958e-05
1529.77	9.09295e-06
1538.44	7.18088e-06
1547.12	6.64629e-06
1555.8	7.42468e-06
1564.48	8.41832e-06
1573.16	8.46819e-06
1581.83	8.27673e-06
1590.51	8.93253e-06
1599.19	1.14661e-05
1607.87	1.99314e-05
1616.55	3.96647e-05
1625.23	5.35801e-05
1633.9	9.28254e-05
1642.58	0.000101087
1651.26	7.21432e-05
1659.94	1.43721e-05
1668.62	1.10543e-05
1677.29	1.20151e-05
1685.97	1.41803e-05
1694.65	1.91404e-05
1703.33	2.77302e-05
1712.01	4.13879e-05
1720.69	8.39896e-05
1729.36	0.000263869
1738.04	0.000744439
1746.72	0.00103011
1755.4	0.00110769
1764.08	0.000451023
1772.75	0.000132317
1781.43	3.99036e-05
1790.11	2.24425e-05
1798.79	1.67298e-05
1807.47	1.40174e-05
1816.15	1.16364e-05
1824.82	1.10608e-05
1833.5	1.00031e-05
1842.18	8.31842e-06
1850.86	6.15318e-06
1859.54	4.8323e-06
1868.21	4.26719e-06
1876.89	5.19171e-06
1885.57	7.29861e-06
1894.25	8.40047e-06
1902.93	8.27366e-06
1911.6	1.02974e-05
1920.28	1.68335e-05
1928.96	2.73509e-05
1937.64	2.30658e-05
1946.32	1.27403e-05
1955	8.79085e-06
1963.67	6.09903e-06
1972.35	4.8742e-06
1981.03	4.35855e-06
1989.71	4.09257e-06
1998.39	3.38704e-06
2007.06	2.76423e-06
2015.74	2.93223e-06
2024.42	3.56603e-06
2033.1	4.97558e-06
2041.78	8.7437e-06
2050.46	1.40144e-05
2059.13	1.60163e-05
2067.81	1.10201e-05
2076.49	7.0246e-06
2085.17	5.55339e-06
2093.85	5.5555e-06
2102.52	5.00079e-06
2111.2	4.26419e-06
2119.88	4.3873e-06
2128.56	4.4193e-06
2137.24	3.93495e-06
2145.91	3.28288e-06
2154.59	2.96666e-06
2163.27	3.1358e-06
2171.95	2.59129e-06
2180.63	1.71002e-06
2189.31	1.57709e-06
2197.98	1.62354e-06
2206.66	1.49102e-06
2215.34	1.43934e-06
2224.02	1.6979e-06
2232.7	1.82807e-06
2241.37	1.83366e-06
2250.05	1.86116e-06
2258.73	1.84215e-06
2267.41	1.94802e-06
2276.09	1.90632e-06
2284.77	1.84175e-06
2293.44	1.94067e-06
2302.12	2.3683e-06
2310.8	2.91123e-06
2319.48	3.09765e-06
2328.16	2.89459e-06
2336.83	2.32431e-06
2345.51	1.94601e-06
2354.19	2.45668e-06
2362.87	3.62967e-06
2371.55	5.04234e-06
2380.23	6.63068e-06
2388.9	7.19263e-06
2397.58	5.29172e-06
2406.26	3.35446e-06
2414.94	2.80051e-06
2423.62	2.57525e-06
2432.29	1.99309e-06
2440.97	1.43567e-06
2449.65	1.22542e-06
2458.33	1.35598e-06
2467.01	1.98899e-06
2475.68	2.55424e-06
2484.36	2.71389e-06
2493.04	2.50366e-06
2501.72	2.14918e-06
2510.4	1.58521e-06
2519.08	1.32307e-06
2527.75	1.46944e-06
2536.43	1.8526e-06
2545.11	2.06351e-06
2553.79	2.05469e-06
2562.47	1.68145e-06
2571.14	1.26522e-06
2579.82	9.45159e-07
2588.5	1.16639e-06
2597.18	1.57445e-06
2605.86	1.79179e-06
2614.54	1.70587e-06
2623.21	1.38538e-06
2631.89	1.22159e-06
2640.57	1.32159e-06
2649.25	1.55625e-06
2657.93	1.83623e-06
2666.6	2.00656e-06
2675.28	2.01406e-06
2683.96	1.89175e-06
2692.64	2.08113e-06
2701.32	2.77683e-06
2709.99	2.95751e-06
2718.67	2.57954e-06
2727.35	2.65765e-06
2736.03	2.8856e-06
2744.71	2.59689e-06
2753.39	2.82725e-06
2762.06	3.39984e-06
2770.74	4.05889e-06
2779.42	3.69309e-06
2788.1	2.74121e-06
2796.78	2.96315e-06
2805.45	3.47627e-06
2814.13	4.50648e-06
2822.81	6.29472e-06
2831.49	6.81052e-06
2840.17	6.76537e-06
2848.85	7.195e-06
2857.52	8.21506e-06
2866.2	1.01826e-05
2874.88	1.85939e-05
2883.56	3.63128e-05
2892.24	4.40986e-05
2900.91	4.55265e-05
2909.59	5.80813e-05
2918.27	5.92101e-05
2926.95	5.62172e-05
2935.63	6.64428e-05
2944.31	9.55207e-05
2952.98	0.000103221
2961.66	9.5107e-05
2970.34	0.000112415
2979.02	0.00019321
2987.7	0.00026167
2996.37	0.000300499
3005.05	0.000171519
3013.73	9.97421e-05
3022.41	4.22544e-05
3031.09	2.4608e-05
3039.76	2.94502e-05
3048.44	3.36393e-05
3057.12	2.8157e-05
3065.8	1.17146e-05
3074.48	1.2484e-05
3083.16	1.28462e-05
3091.83	1.1595e-05
3100.51	1.07921e-05
3109.19	2.89426e-05
3117.87	2.72467e-05
3126.55	1.02943e-05
3135.22	4.40296e-06
3143.9	3.68691e-06
3152.58	3.89969e-06
3161.26	3.61946e-06
3169.94	3.09537e-06
3178.62	2.65106e-06
3187.29	2.27727e-06
3195.97	1.94952e-06
3204.65	1.76601e-06
3213.33	1.65346e-06
3222.01	1.68951e-06
3230.68	1.84784e-06
3239.36	1.91675e-06
3248.04	1.74579e-06
3256.72	1.21284e-06
3265.4	5.61127e-07
3274.07	1.83763e-07
3282.75	2.55046e-08
3291.43	-6.65317e-08
3300.11	-9.65072e-08
3308.79	1.11415e-07
3317.47	3.72729e-07
3326.14	4.95545e-07
3334.82	6.17356e-07
3343.5	7.74153e-07
3352.18	1.06447e-06
3360.86	1.47754e-06
3369.53	1.5951e-06
3378.21	1.58573e-06
3386.89	1.87881e-06
3395.57	1.55011e-06
3404.25	6.15581e-07
3412.93	3.40003e-07
3421.6	2.57571e-07
3430.28	2.34012e-07
3438.96	3.07823e-07
3447.64	6.59984e-07
3456.32	2.22764e-06
3464.99	6.37965e-06
3473.67	1.15813e-05
3482.35	1.26464e-05
3491.03	8.04056e-06
3499.71	2.46801e-06
3508.39	1.46189e-07
3517.06	-4.27198e-07
3525.74	-4.63718e-07
3534.42	-4.89921e-07
3543.1	-2.96404e-07
3551.78	-1.17235e-07
3560.45	1.17719e-07
3569.13	1.62406e-07
3577.81	6.30067e-08
3586.49	-1.40565e-08
3595.17	8.44843e-08
3603.84	7.54662e-08
3612.52	1.14587e-07
3621.2	6.06785e-08
3629.88	7.63829e-08
3638.56	7.35927e-08
3647.24	-1.36672e-08
3655.91	7.95041e-08
3664.59	1.6763e-08
3673.27	2.13248e-08
3681.95	3.1798e-08
3690.63	2.16194e-08
3699.3	4.66475e-08
3707.98	7.14791e-08
3716.66	1.63723e-07
3725.34	2.17417e-07
3734.02	2.76644e-07
3742.7	2.72515e-07
3751.37	3.64806e-07
3760.05	5.02395e-07
3768.73	5.60665e-07
3777.41	6.16469e-07
3786.09	5.33349e-07
3794.76	3.82315e-07
3803.44	3.44409e-07
3812.12	2.54901e-07
3820.8	2.34831e-07
3829.48	2.57982e-07
3838.16	3.78662e-07
3846.83	3.75588e-07
3855.51	2.86135e-07
3864.19	2.59419e-07
3872.87	2.1116e-07
3881.55	2.52696e-07
3890.22	3.09744e-07
3898.9	3.61088e-07
3907.58	3.41589e-07
3916.26	3.05481e-07
3924.94	2.39385e-07
3933.61	2.3148e-07
3942.29	1.92563e-07
3950.97	3.26111e-07
3959.65	3.7246e-07
3968.33	5.29143e-07
