Infrared Spectrum: Ethyl Ester-Propenoic Acid
Formula: C H2: C H C O2 C2 H5
CAS: 140-88-5
State: gas
Melting point: -71.2 C
Boiling point: 99.8 C
Class: IUPAC A
Instrument: IFS66V (Bruker)
Instrument parameters: KBr Beam splitter; MCT Detector; Multipass cell
Sampling: 1 L/min Flow
Resolution: 0.4820
Temperature: 23 C
Pressure: 101.3 kPa
Origin: NIST, Anayltical Chemistry Division, 301-975-3108
cm-1	(micromol/mol)-1m-1 (base 10)
574.928	5.59417e-07
583.606	9.89533e-07
592.284	1.0267e-06
600.962	3.7096e-06
609.641	7.86714e-06
618.319	7.5985e-06
626.997	4.12373e-06
635.675	2.85771e-06
644.353	6.00129e-06
653.031	1.44403e-05
661.71	2.04389e-05
670.388	2.01035e-05
679.066	1.16474e-05
687.744	4.04448e-06
696.422	1.4325e-06
705.1	8.18469e-07
713.778	7.81927e-07
722.457	1.07867e-06
731.135	1.23023e-06
739.813	1.48296e-06
748.491	1.99946e-06
757.169	2.6238e-06
765.847	3.95036e-06
774.526	8.51152e-06
783.204	2.04294e-05
791.882	4.55733e-05
800.56	8.29071e-05
809.238	0.000119786
817.916	0.000113234
826.594	6.49755e-05
835.273	2.92361e-05
843.951	2.27955e-05
852.629	3.6946e-05
861.307	4.29306e-05
869.985	3.34706e-05
878.663	1.77742e-05
887.342	1.26499e-05
896.02	1.9677e-05
904.698	2.3477e-05
913.376	2.53736e-05
922.054	1.9933e-05
930.732	1.35967e-05
939.41	1.72618e-05
948.089	4.46049e-05
956.767	8.98165e-05
965.445	0.000140755
974.123	0.000160125
982.801	0.000162116
991.479	0.000159372
1000.16	9.06637e-05
1008.84	4.45747e-05
1017.51	4.23913e-05
1026.19	0.000109939
1034.87	0.000192421
1043.55	0.000201042
1052.23	0.000148185
1060.9	0.00026635
1069.58	0.000337072
1078.26	0.000243253
1086.94	0.000115331
1095.62	0.000113511
1104.3	0.000109122
1112.97	7.76165e-05
1121.65	4.81302e-05
1130.33	3.67721e-05
1139.01	3.10817e-05
1147.69	3.66635e-05
1156.36	5.59678e-05
1165.04	0.000115551
1173.72	0.000257841
1182.4	0.000724299
1191.08	0.00187333
1199.76	0.0020698
1208.43	0.000868476
1217.11	0.000287232
1225.79	0.000126421
1234.47	8.8409e-05
1243.15	7.91208e-05
1251.82	9.78348e-05
1260.5	0.000289327
1269.18	0.000594709
1277.86	0.000647754
1286.54	0.000376003
1295.21	0.00041968
1303.89	0.000448445
1312.57	0.000185251
1321.25	7.22654e-05
1329.93	3.16082e-05
1338.61	1.6943e-05
1347.28	1.44392e-05
1355.96	1.79087e-05
1364.64	3.30317e-05
1373.32	4.76525e-05
1382	8.87398e-05
1390.67	0.00014855
1399.35	0.000267245
1408.03	0.000435041
1416.71	0.000404692
1425.39	0.0001206
1434.07	5.00001e-05
1442.74	5.33516e-05
1451.42	6.57604e-05
1460.1	7.19498e-05
1468.78	7.89596e-05
1477.46	7.21057e-05
1486.13	4.20353e-05
1494.81	3.17966e-05
1503.49	1.99429e-05
1512.17	1.48718e-05
1520.85	1.19923e-05
1529.52	9.17548e-06
1538.2	7.19522e-06
1546.88	6.63489e-06
1555.56	7.38513e-06
1564.24	8.34933e-06
1572.92	8.52197e-06
1581.59	8.25928e-06
1590.27	8.89315e-06
1598.95	1.13522e-05
1607.63	1.95097e-05
1616.31	3.90166e-05
1624.98	5.29612e-05
1633.66	9.09198e-05
1642.34	0.000103951
1651.02	7.57207e-05
1659.7	1.45611e-05
1668.38	1.10578e-05
1677.05	1.19515e-05
1685.73	1.41019e-05
1694.41	1.89466e-05
1703.09	2.76439e-05
1711.77	4.08345e-05
1720.44	8.14361e-05
1729.12	0.000255389
1737.8	0.000725774
1746.48	0.00103947
1755.16	0.00112294
1763.84	0.000464013
1772.51	0.00013706
1781.19	4.08284e-05
1789.87	2.26557e-05
1798.55	1.68348e-05
1807.23	1.41079e-05
1815.9	1.16588e-05
1824.58	1.1101e-05
1833.26	1.00283e-05
1841.94	8.39685e-06
1850.62	6.17969e-06
1859.29	4.84033e-06
1867.97	4.29259e-06
1876.65	5.14844e-06
1885.33	7.2215e-06
1894.01	8.38697e-06
1902.69	8.28839e-06
1911.36	1.01725e-05
1920.04	1.66128e-05
1928.72	2.7187e-05
1937.4	2.30724e-05
1946.08	1.30516e-05
1954.75	8.77132e-06
1963.43	6.12535e-06
1972.11	4.874e-06
1980.79	4.36732e-06
1989.47	4.1233e-06
1998.15	3.42575e-06
2006.82	2.7632e-06
2015.5	2.89432e-06
2024.18	3.53985e-06
2032.86	4.91454e-06
2041.54	8.60404e-06
2050.21	1.39094e-05
2058.89	1.60703e-05
2067.57	1.11419e-05
2076.25	7.09434e-06
2084.93	5.55526e-06
2093.6	5.54851e-06
2102.28	5.03552e-06
2110.96	4.27945e-06
2119.64	4.36478e-06
2128.32	4.41494e-06
2137	3.96661e-06
2145.67	3.293e-06
2154.35	2.98007e-06
2163.03	3.1162e-06
2171.71	2.59618e-06
2180.39	1.72486e-06
2189.06	1.6027e-06
2197.74	1.59627e-06
2206.42	1.49183e-06
2215.1	1.41578e-06
2223.78	1.71044e-06
2232.46	1.83523e-06
2241.13	1.83857e-06
2249.81	1.87254e-06
2258.49	1.84653e-06
2267.17	1.94125e-06
2275.85	1.92647e-06
2284.52	1.83183e-06
2293.2	1.9228e-06
2301.88	2.36378e-06
2310.56	2.88332e-06
2319.24	3.10467e-06
2327.92	2.90809e-06
2336.59	2.30352e-06
2345.27	1.92639e-06
2353.95	2.39226e-06
2362.63	3.62953e-06
2371.31	5.01178e-06
2379.98	6.60652e-06
2388.66	7.20298e-06
2397.34	5.37323e-06
2406.02	3.41788e-06
2414.7	2.8067e-06
2423.37	2.58147e-06
2432.05	1.99111e-06
2440.73	1.44511e-06
2449.41	1.23087e-06
2458.09	1.37828e-06
2466.77	1.98103e-06
2475.44	2.54351e-06
2484.12	2.72774e-06
2492.8	2.5145e-06
2501.48	2.15108e-06
2510.16	1.58251e-06
2518.83	1.34057e-06
2527.51	1.41597e-06
2536.19	1.83467e-06
2544.87	2.0611e-06
2553.55	2.06267e-06
2562.23	1.70361e-06
2570.9	1.2702e-06
2579.58	9.45151e-07
2588.26	1.15769e-06
2596.94	1.5647e-06
2605.62	1.78036e-06
2614.29	1.72941e-06
2622.97	1.4164e-06
2631.65	1.24313e-06
2640.33	1.32404e-06
2649.01	1.5688e-06
2657.68	1.83097e-06
2666.36	2.03126e-06
2675.04	1.99089e-06
2683.72	1.87051e-06
2692.4	2.02294e-06
2701.08	2.70305e-06
2709.75	2.89819e-06
2718.43	2.57097e-06
2727.11	2.6738e-06
2735.79	2.83898e-06
2744.47	2.59896e-06
2753.14	2.82661e-06
2761.82	3.37651e-06
2770.5	4.07254e-06
2779.18	3.74582e-06
2787.86	2.76239e-06
2796.54	2.92829e-06
2805.21	3.46337e-06
2813.89	4.47944e-06
2822.57	6.23384e-06
2831.25	6.76898e-06
2839.93	6.74266e-06
2848.6	7.12829e-06
2857.28	8.14945e-06
2865.96	1.00351e-05
2874.64	1.81592e-05
2883.32	3.62282e-05
2892	4.40364e-05
2900.67	4.52803e-05
2909.35	5.77787e-05
2918.03	5.9477e-05
2926.71	5.63626e-05
2935.39	6.54167e-05
2944.06	9.54272e-05
2952.74	0.000103551
2961.42	9.49104e-05
2970.1	0.000111699
2978.78	0.000190289
2987.45	0.000261346
2996.13	0.000308431
3004.81	0.000174035
3013.49	0.000101983
3022.17	4.31332e-05
3030.85	2.46974e-05
3039.52	2.8954e-05
3048.2	3.34952e-05
3056.88	2.88801e-05
3065.56	1.18188e-05
3074.24	1.23868e-05
3082.91	1.28901e-05
3091.59	1.16979e-05
3100.27	1.04578e-05
3108.95	2.92191e-05
3117.63	2.66612e-05
3126.31	1.07205e-05
3134.98	4.42337e-06
3143.66	3.68629e-06
3152.34	3.89604e-06
3161.02	3.66583e-06
3169.7	3.05372e-06
3178.37	2.65314e-06
3187.05	2.25632e-06
3195.73	2.00255e-06
3204.41	1.75586e-06
3213.09	1.59676e-06
3221.77	1.67206e-06
3230.44	1.84213e-06
3239.12	1.96265e-06
3247.8	1.70783e-06
3256.48	1.215e-06
3265.16	5.85286e-07
3273.83	2.04015e-07
3282.51	2.71271e-08
3291.19	-1.14911e-07
3299.87	-1.1625e-07
3308.55	1.03987e-07
3317.22	3.95927e-07
3325.9	4.83089e-07
3334.58	6.38754e-07
3343.26	7.48281e-07
3351.94	1.05821e-06
3360.62	1.47614e-06
3369.29	1.63109e-06
3377.97	1.67802e-06
3386.65	1.88102e-06
3395.33	1.56966e-06
3404.01	6.56088e-07
3412.68	2.91228e-07
3421.36	2.5222e-07
3430.04	3.28395e-07
3438.72	2.88656e-07
3447.4	6.20347e-07
3456.08	2.13666e-06
3464.75	6.21313e-06
3473.43	1.15445e-05
3482.11	1.26297e-05
3490.79	8.15568e-06
3499.47	2.57703e-06
3508.14	1.53806e-07
3516.82	-4.64434e-07
3525.5	-4.08863e-07
3534.18	-4.29129e-07
3542.86	-3.30083e-07
3551.53	-9.6369e-08
3560.21	7.50551e-08
3568.89	1.8651e-07
3577.57	6.78122e-08
3586.25	-1.7345e-08
3594.93	7.68121e-08
3603.6	5.55456e-08
3612.28	1.09847e-07
3620.96	9.71947e-08
3629.64	9.07631e-08
3638.32	5.27481e-08
3646.99	-1.04368e-08
3655.67	3.37479e-08
3664.35	5.11911e-08
3673.03	3.37915e-08
3681.71	3.52648e-08
3690.39	1.35253e-08
3699.06	5.52e-08
3707.74	6.67318e-08
3716.42	1.96492e-07
3725.1	2.41121e-07
3733.78	3.04949e-07
3742.45	2.4613e-07
3751.13	3.45024e-07
3759.81	5.97065e-07
3768.49	5.74158e-07
3777.17	5.99531e-07
3785.85	5.15112e-07
3794.52	3.89965e-07
3803.2	3.15263e-07
3811.88	2.51525e-07
3820.56	2.02014e-07
3829.24	2.28585e-07
3837.91	3.74632e-07
3846.59	3.69371e-07
3855.27	3.03076e-07
3863.95	2.3327e-07
3872.63	2.17791e-07
3881.3	2.93672e-07
3889.98	3.65519e-07
3898.66	2.97226e-07
3907.34	3.08827e-07
3916.02	2.83636e-07
3924.7	2.02218e-07
3933.37	2.43463e-07
3942.05	1.74807e-07
3950.73	3.42161e-07
3959.41	3.9516e-07
3968.09	5.68588e-07
