Infrared Spectrum: Ethyl Ester-Propenoic Acid
Formula: C H2: C H C O2 C2 H5
CAS: 140-88-5
State: gas
Melting point: -71.2 C
Boiling point: 99.8 C
Class: IUPAC A
Instrument: IFS66V (Bruker)
Instrument parameters: KBr Beam splitter; MCT Detector; Multipass cell
Sampling: 1 L/min Flow
Resolution: 1.9290
Temperature: 23 C
Pressure: 101.3 kPa
Origin: NIST, Anayltical Chemistry Division, 301-975-3108
cm-1	(micromol/mol)-1m-1 (base 10)
574.687	4.65162e-07
583.365	8.90595e-07
592.043	1.37247e-06
600.721	3.45628e-06
609.4	7.44955e-06
618.078	7.68494e-06
626.756	4.27332e-06
635.434	2.76019e-06
644.112	5.83753e-06
652.79	1.41482e-05
661.469	2.03498e-05
670.147	2.03681e-05
678.825	1.17003e-05
687.503	4.21958e-06
696.181	1.48385e-06
704.859	8.20659e-07
713.537	8.02142e-07
722.216	1.04546e-06
730.894	1.29761e-06
739.572	1.48022e-06
748.25	2.00646e-06
756.928	2.52709e-06
765.606	3.92707e-06
774.285	8.24778e-06
782.963	2.00532e-05
791.641	4.45905e-05
800.319	8.1969e-05
808.997	0.000118309
817.675	0.000113499
826.353	6.62629e-05
835.032	2.98252e-05
843.71	2.25881e-05
852.388	3.65331e-05
861.066	4.2994e-05
869.744	3.39274e-05
878.422	1.81054e-05
887.101	1.2592e-05
895.779	1.95725e-05
904.457	2.33624e-05
913.135	2.54735e-05
921.813	1.98993e-05
930.491	1.37331e-05
939.169	1.69372e-05
947.848	4.34074e-05
956.526	8.86115e-05
965.204	0.000136858
973.882	0.000159513
982.56	0.00016215
991.238	0.000158547
999.917	9.22731e-05
1008.59	4.52626e-05
1017.27	4.16527e-05
1025.95	0.000107002
1034.63	0.000190692
1043.31	0.000203184
1051.99	0.000147503
1060.66	0.000262521
1069.34	0.000336919
1078.02	0.000249844
1086.7	0.000116722
1095.38	0.000113415
1104.05	0.000109578
1112.73	7.88105e-05
1121.41	4.83379e-05
1130.09	3.71896e-05
1138.77	3.10227e-05
1147.45	3.63713e-05
1156.12	5.51212e-05
1164.8	0.000112576
1173.48	0.000252611
1182.16	0.000699577
1190.84	0.00185416
1199.51	0.00206158
1208.19	0.000901085
1216.87	0.000295922
1225.55	0.000128628
1234.23	8.85714e-05
1242.9	7.94273e-05
1251.58	9.59302e-05
1260.26	0.00028039
1268.94	0.000586832
1277.62	0.000652296
1286.3	0.000382681
1294.97	0.000418179
1303.65	0.000446014
1312.33	0.000190205
1321.01	7.43088e-05
1329.69	3.20606e-05
1338.36	1.73321e-05
1347.04	1.42832e-05
1355.72	1.78072e-05
1364.4	3.27174e-05
1373.08	4.71223e-05
1381.76	8.64656e-05
1390.43	0.000147727
1399.11	0.000261895
1407.79	0.000436047
1416.47	0.000411715
1425.15	0.000125915
1433.82	5.04095e-05
1442.5	5.29664e-05
1451.18	6.50692e-05
1459.86	7.18744e-05
1468.54	7.90811e-05
1477.22	7.23141e-05
1485.89	4.28785e-05
1494.57	3.22439e-05
1503.25	2.02026e-05
1511.93	1.49007e-05
1520.61	1.21123e-05
1529.28	9.24543e-06
1537.96	7.2469e-06
1546.64	6.62088e-06
1555.32	7.35907e-06
1564	8.32852e-06
1572.67	8.52887e-06
1581.35	8.23309e-06
1590.03	8.8535e-06
1598.71	1.12281e-05
1607.39	1.91491e-05
1616.07	3.83533e-05
1624.74	5.2454e-05
1633.42	8.90465e-05
1642.1	0.000104678
1650.78	7.92285e-05
1659.46	1.48174e-05
1668.13	1.10899e-05
1676.81	1.18886e-05
1685.49	1.39984e-05
1694.17	1.87518e-05
1702.85	2.74864e-05
1711.53	4.01941e-05
1720.2	7.90618e-05
1728.88	0.000247294
1737.56	0.000707432
1746.24	0.00104978
1754.92	0.0011348
1763.59	0.00047785
1772.27	0.000142265
1780.95	4.1893e-05
1789.63	2.2868e-05
1798.31	1.69828e-05
1806.98	1.4199e-05
1815.66	1.1716e-05
1824.34	1.11107e-05
1833.02	1.01241e-05
1841.7	8.45839e-06
1850.38	6.24627e-06
1859.05	4.87942e-06
1867.73	4.26216e-06
1876.41	5.09412e-06
1885.09	7.18042e-06
1893.77	8.39537e-06
1902.44	8.29162e-06
1911.12	1.00498e-05
1919.8	1.63864e-05
1928.48	2.69313e-05
1937.16	2.31421e-05
1945.84	1.33978e-05
1954.51	8.77521e-06
1963.19	6.20767e-06
1971.87	4.90508e-06
1980.55	4.35659e-06
1989.23	4.12863e-06
1997.9	3.46575e-06
2006.58	2.76786e-06
2015.26	2.88857e-06
2023.94	3.52156e-06
2032.62	4.84809e-06
2041.3	8.43708e-06
2049.97	1.38096e-05
2058.65	1.60885e-05
2067.33	1.12756e-05
2076.01	7.17847e-06
2084.69	5.5394e-06
2093.36	5.55825e-06
2102.04	5.05906e-06
2110.72	4.27704e-06
2119.4	4.37064e-06
2128.08	4.41604e-06
2136.75	3.96405e-06
2145.43	3.30477e-06
2154.11	2.96329e-06
2162.79	3.11691e-06
2171.47	2.62901e-06
2180.15	1.71169e-06
2188.82	1.60547e-06
2197.5	1.62025e-06
2206.18	1.51739e-06
2214.86	1.43739e-06
2223.54	1.68249e-06
2232.21	1.80532e-06
2240.89	1.82881e-06
2249.57	1.8517e-06
2258.25	1.83899e-06
2266.93	1.94263e-06
2275.61	1.94661e-06
2284.28	1.84165e-06
2292.96	1.92548e-06
2301.64	2.33738e-06
2310.32	2.86864e-06
2319	3.11088e-06
2327.67	2.92502e-06
2336.35	2.35268e-06
2345.03	1.95589e-06
2353.71	2.37629e-06
2362.39	3.55665e-06
2371.06	4.95244e-06
2379.74	6.55936e-06
2388.42	7.2107e-06
2397.1	5.46659e-06
2405.78	3.42245e-06
2414.46	2.81737e-06
2423.13	2.57374e-06
2431.81	2.03594e-06
2440.49	1.43811e-06
2449.17	1.24583e-06
2457.85	1.3667e-06
2466.52	1.97112e-06
2475.2	2.5245e-06
2483.88	2.74688e-06
2492.56	2.50883e-06
2501.24	2.18825e-06
2509.92	1.60535e-06
2518.59	1.35008e-06
2527.27	1.44781e-06
2535.95	1.8432e-06
2544.63	2.03572e-06
2553.31	2.04407e-06
2561.98	1.68873e-06
2570.66	1.30764e-06
2579.34	9.33336e-07
2588.02	1.16997e-06
2596.7	1.54201e-06
2605.38	1.79047e-06
2614.05	1.71044e-06
2622.73	1.4155e-06
2631.41	1.22001e-06
2640.09	1.2869e-06
2648.77	1.5442e-06
2657.44	1.84399e-06
2666.12	1.98383e-06
2674.8	2.03854e-06
2683.48	1.89537e-06
2692.16	2.0252e-06
2700.83	2.70938e-06
2709.51	2.95533e-06
2718.19	2.54338e-06
2726.87	2.67032e-06
2735.55	2.89128e-06
2744.23	2.59462e-06
2752.9	2.81668e-06
2761.58	3.35892e-06
2770.26	4.02913e-06
2778.94	3.751e-06
2787.62	2.72524e-06
2796.29	2.9786e-06
2804.97	3.40775e-06
2813.65	4.45676e-06
2822.33	6.20711e-06
2831.01	6.79392e-06
2839.69	6.70435e-06
2848.36	7.15685e-06
2857.04	8.1244e-06
2865.72	1.00279e-05
2874.4	1.76217e-05
2883.08	3.61617e-05
2891.75	4.38739e-05
2900.43	4.5064e-05
2909.11	5.73441e-05
2917.79	5.99194e-05
2926.47	5.64768e-05
2935.14	6.4485e-05
2943.82	9.52513e-05
2952.5	0.000103661
2961.18	9.47142e-05
2969.86	0.00011098
2978.54	0.000187027
2987.21	0.000261248
2995.89	0.000326368
3004.57	0.000176346
3013.25	0.000104402
3021.93	4.40087e-05
3030.6	2.49593e-05
3039.28	2.84473e-05
3047.96	3.34582e-05
3056.64	2.94055e-05
3065.32	1.20226e-05
3074	1.22729e-05
3082.67	1.30106e-05
3091.35	1.18056e-05
3100.03	1.0333e-05
3108.71	2.92742e-05
3117.39	2.5894e-05
3126.06	1.1238e-05
3134.74	4.52833e-06
3143.42	3.65899e-06
3152.1	3.92668e-06
3160.78	3.60012e-06
3169.46	3.12085e-06
3178.13	2.70216e-06
3186.81	2.31168e-06
3195.49	2.00486e-06
3204.17	1.81501e-06
3212.85	1.6385e-06
3221.52	1.68383e-06
3230.2	1.82655e-06
3238.88	1.9232e-06
3247.56	1.71054e-06
3256.24	1.24222e-06
3264.91	5.50676e-07
3273.59	2.22011e-07
3282.27	2.65123e-08
3290.95	-5.07473e-08
3299.63	-1.21171e-07
3308.31	1.39652e-07
3316.98	4.14167e-07
3325.66	5.20122e-07
3334.34	5.69174e-07
3343.02	7.75346e-07
3351.7	1.08759e-06
3360.37	1.48955e-06
3369.05	1.56708e-06
3377.73	1.61936e-06
3386.41	1.83792e-06
3395.09	1.59769e-06
3403.77	6.54397e-07
3412.44	3.71325e-07
3421.12	3.06823e-07
3429.8	3.21552e-07
3438.48	2.93072e-07
3447.16	6.6424e-07
3455.83	2.08624e-06
3464.51	6.1281e-06
3473.19	1.1403e-05
3481.87	1.25546e-05
3490.55	8.37948e-06
3499.22	2.7043e-06
3507.9	1.75458e-07
3516.58	-4.00627e-07
3525.26	-4.59214e-07
3533.94	-4.75395e-07
3542.62	-3.06416e-07
3551.29	-1.08195e-07
3559.97	8.8173e-08
3568.65	1.61915e-07
3577.33	2.35293e-08
3586.01	-1.64028e-08
3594.68	4.78953e-08
3603.36	8.51245e-08
3612.04	1.00814e-07
3620.72	1.31496e-07
3629.4	1.06759e-07
3638.08	4.82772e-08
3646.75	-3.20126e-10
3655.43	4.73532e-08
3664.11	1.95714e-08
3672.79	3.4872e-08
3681.47	2.0579e-08
3690.14	1.54315e-08
3698.82	5.34029e-09
3707.5	5.73026e-08
3716.18	1.65753e-07
3724.86	2.27774e-07
3733.54	2.79521e-07
3742.21	2.96226e-07
3750.89	3.10741e-07
3759.57	5.18969e-07
3768.25	5.54979e-07
3776.93	6.33115e-07
3785.6	5.25211e-07
3794.28	3.95684e-07
3802.96	3.32902e-07
3811.64	2.46625e-07
3820.32	2.14132e-07
3828.99	2.26904e-07
3837.67	4.02173e-07
3846.35	3.79954e-07
3855.03	3.26518e-07
3863.71	2.17635e-07
3872.39	1.81421e-07
3881.06	2.4553e-07
3889.74	3.32375e-07
3898.42	3.24175e-07
3907.1	3.30501e-07
3915.78	2.96899e-07
3924.45	2.17577e-07
3933.13	2.52776e-07
3941.81	1.68674e-07
3950.49	2.80638e-07
3959.17	3.66552e-07
3967.85	5.35015e-07
