Infrared Spectrum: Ethyl Ester-Propenoic Acid
Formula: C H2: C H C O2 C2 H5
CAS: 140-88-5
State: gas
Melting point: -71.2 C
Boiling point: 99.8 C
Class: IUPAC A
Instrument: IFS66V (Bruker)
Instrument parameters: KBr Beam splitter; MCT Detector; Multipass cell
Sampling: 1 L/min Flow
Resolution: 0.9640
Temperature: 23 C
Pressure: 101.3 kPa
Origin: NIST, Anayltical Chemistry Division, 301-975-3108
cm-1	(micromol/mol)-1m-1 (base 10)
575.169	6.61327e-07
583.847	7.36975e-07
592.525	8.12692e-07
601.203	3.92237e-06
609.882	8.23881e-06
618.56	7.38766e-06
627.238	4.01192e-06
635.916	2.80888e-06
644.594	6.23668e-06
653.272	1.47707e-05
661.951	2.06622e-05
670.629	1.98561e-05
679.307	1.15405e-05
687.985	4.10602e-06
696.663	1.46238e-06
705.341	7.1788e-07
714.019	8.76546e-07
722.698	1.04763e-06
731.376	1.26061e-06
740.054	1.54375e-06
748.732	2.03387e-06
757.41	2.62739e-06
766.088	4.03432e-06
774.767	8.82811e-06
783.445	2.08822e-05
792.123	4.65688e-05
800.801	8.41331e-05
809.479	0.000120801
818.157	0.000112636
826.835	6.37994e-05
835.514	2.85459e-05
844.192	2.28992e-05
852.87	3.72994e-05
861.548	4.28304e-05
870.226	3.31168e-05
878.904	1.74434e-05
887.583	1.28188e-05
896.261	1.97951e-05
904.939	2.35618e-05
913.617	2.52657e-05
922.295	1.99653e-05
930.973	1.34936e-05
939.651	1.75814e-05
948.33	4.57981e-05
957.008	9.11454e-05
965.686	0.000144755
974.364	0.00016077
983.042	0.000162168
991.72	0.000159124
1000.4	8.91212e-05
1009.08	4.37626e-05
1017.75	4.30083e-05
1026.43	0.000112867
1035.11	0.000194137
1043.79	0.000199869
1052.47	0.000148771
1061.15	0.000269826
1069.82	0.00033777
1078.5	0.000236826
1087.18	0.000113873
1095.86	0.000113669
1104.54	0.000108744
1113.21	7.63431e-05
1121.89	4.79492e-05
1130.57	3.63256e-05
1139.25	3.11253e-05
1147.93	3.69163e-05
1156.61	5.6859e-05
1165.28	0.000118452
1173.96	0.000263188
1182.64	0.00074973
1191.32	0.00189055
1200	0.00207934
1208.67	0.000837724
1217.35	0.000278123
1226.03	0.000124497
1234.71	8.80505e-05
1243.39	7.89497e-05
1252.07	9.96158e-05
1260.74	0.000298693
1269.42	0.00060209
1278.1	0.000644278
1286.78	0.000369673
1295.46	0.000421401
1304.13	0.00045281
1312.81	0.000179959
1321.49	7.04775e-05
1330.17	3.09803e-05
1338.85	1.68262e-05
1347.52	1.44619e-05
1356.2	1.82193e-05
1364.88	3.32223e-05
1373.56	4.84527e-05
1382.24	9.08606e-05
1390.92	0.000149894
1399.59	0.000272417
1408.27	0.000434976
1416.95	0.00039873
1425.63	0.000115136
1434.31	4.97299e-05
1442.98	5.36253e-05
1451.66	6.63261e-05
1460.34	7.188e-05
1469.02	7.88435e-05
1477.7	7.17711e-05
1486.38	4.1302e-05
1495.05	3.13739e-05
1503.73	1.97761e-05
1512.41	1.48109e-05
1521.09	1.19723e-05
1529.77	9.0865e-06
1538.44	7.15528e-06
1547.12	6.6635e-06
1555.8	7.41481e-06
1564.48	8.40844e-06
1573.16	8.4943e-06
1581.83	8.3207e-06
1590.51	8.94035e-06
1599.19	1.14964e-05
1607.87	1.99136e-05
1616.55	3.97398e-05
1625.23	5.34831e-05
1633.9	9.27324e-05
1642.58	0.000102352
1651.26	7.2121e-05
1659.94	1.43326e-05
1668.62	1.10282e-05
1677.29	1.20093e-05
1685.97	1.4196e-05
1694.65	1.91398e-05
1703.33	2.77726e-05
1712.01	4.14066e-05
1720.69	8.38079e-05
1729.36	0.00026348
1738.04	0.000743965
1746.72	0.00102937
1755.4	0.00111047
1764.08	0.00045055
1772.75	0.000131981
1781.43	3.98613e-05
1790.11	2.24476e-05
1798.79	1.66896e-05
1807.47	1.4008e-05
1816.15	1.16218e-05
1824.82	1.10623e-05
1833.5	9.98278e-06
1842.18	8.32722e-06
1850.86	6.13752e-06
1859.54	4.83665e-06
1868.21	4.27328e-06
1876.89	5.20753e-06
1885.57	7.28921e-06
1894.25	8.38816e-06
1902.93	8.27443e-06
1911.6	1.0291e-05
1920.28	1.68626e-05
1928.96	2.73838e-05
1937.64	2.29921e-05
1946.32	1.26973e-05
1955	8.76506e-06
1963.67	6.08252e-06
1972.35	4.86158e-06
1981.03	4.37359e-06
1989.71	4.10158e-06
1998.39	3.39333e-06
2007.06	2.75801e-06
2015.74	2.92843e-06
2024.42	3.55306e-06
2033.1	4.96713e-06
2041.78	8.73762e-06
2050.46	1.39987e-05
2059.13	1.60584e-05
2067.81	1.10123e-05
2076.49	7.02672e-06
2085.17	5.58267e-06
2093.85	5.55412e-06
2102.52	5.02449e-06
2111.2	4.27108e-06
2119.88	4.38829e-06
2128.56	4.43693e-06
2137.24	3.9384e-06
2145.91	3.25633e-06
2154.59	2.97919e-06
2163.27	3.1243e-06
2171.95	2.59098e-06
2180.63	1.72106e-06
2189.31	1.58145e-06
2197.98	1.5929e-06
2206.66	1.49796e-06
2215.34	1.43648e-06
2224.02	1.70362e-06
2232.7	1.82064e-06
2241.37	1.82525e-06
2250.05	1.86003e-06
2258.73	1.83753e-06
2267.41	1.94435e-06
2276.09	1.9323e-06
2284.77	1.83843e-06
2293.44	1.93437e-06
2302.12	2.38921e-06
2310.8	2.94091e-06
2319.48	3.08471e-06
2328.16	2.88619e-06
2336.83	2.28066e-06
2345.51	1.94766e-06
2354.19	2.47381e-06
2362.87	3.70862e-06
2371.55	5.06241e-06
2380.23	6.64286e-06
2388.9	7.20303e-06
2397.58	5.27331e-06
2406.26	3.36705e-06
2414.94	2.79073e-06
2423.62	2.58324e-06
2432.29	1.98294e-06
2440.97	1.43208e-06
2449.65	1.21954e-06
2458.33	1.3592e-06
2467.01	2.00295e-06
2475.68	2.54801e-06
2484.36	2.71014e-06
2493.04	2.50246e-06
2501.72	2.1473e-06
2510.4	1.54104e-06
2519.08	1.30662e-06
2527.75	1.47716e-06
2536.43	1.85427e-06
2545.11	2.07962e-06
2553.79	2.07667e-06
2562.47	1.71293e-06
2571.14	1.25036e-06
2579.82	9.32921e-07
2588.5	1.16285e-06
2597.18	1.56601e-06
2605.86	1.7922e-06
2614.54	1.6687e-06
2623.21	1.37272e-06
2631.89	1.21212e-06
2640.57	1.33843e-06
2649.25	1.5801e-06
2657.93	1.82223e-06
2666.6	2.02957e-06
2675.28	2.02111e-06
2683.96	1.89617e-06
2692.64	2.09055e-06
2701.32	2.74551e-06
2709.99	2.935e-06
2718.67	2.55292e-06
2727.35	2.64873e-06
2736.03	2.8405e-06
2744.71	2.61222e-06
2753.39	2.81897e-06
2762.06	3.40343e-06
2770.74	4.06486e-06
2779.42	3.73467e-06
2788.1	2.74216e-06
2796.78	2.96077e-06
2805.45	3.48869e-06
2814.13	4.50786e-06
2822.81	6.26934e-06
2831.49	6.79055e-06
2840.17	6.77058e-06
2848.85	7.18625e-06
2857.52	8.19814e-06
2866.2	1.01405e-05
2874.88	1.86244e-05
2883.56	3.62803e-05
2892.24	4.40759e-05
2900.91	4.5451e-05
2909.59	5.81592e-05
2918.27	5.91473e-05
2926.95	5.61885e-05
2935.63	6.63971e-05
2944.31	9.55131e-05
2952.98	0.000103279
2961.66	9.47874e-05
2970.34	0.000112444
2979.02	0.00019325
2987.7	0.000261577
2996.37	0.00029676
3005.05	0.000171467
3013.73	9.97197e-05
3022.41	4.2227e-05
3031.09	2.46467e-05
3039.76	2.94502e-05
3048.44	3.35721e-05
3057.12	2.82121e-05
3065.8	1.16948e-05
3074.48	1.25366e-05
3083.16	1.2743e-05
3091.83	1.15643e-05
3100.51	1.06922e-05
3109.19	2.90289e-05
3117.87	2.73959e-05
3126.55	1.02622e-05
3135.22	4.37869e-06
3143.9	3.63298e-06
3152.58	3.93708e-06
3161.26	3.62197e-06
3169.94	3.15782e-06
3178.62	2.61879e-06
3187.29	2.36291e-06
3195.97	1.96863e-06
3204.65	1.78613e-06
3213.33	1.6282e-06
3222.01	1.67163e-06
3230.68	1.82701e-06
3239.36	1.92335e-06
3248.04	1.72103e-06
3256.72	1.19705e-06
3265.4	6.2218e-07
3274.07	1.51744e-07
3282.75	-9.21091e-09
3291.43	-7.21448e-08
3300.11	-1.01215e-07
3308.79	9.67036e-08
3317.47	4.02406e-07
3326.14	5.10762e-07
3334.82	5.8629e-07
3343.5	7.41737e-07
3352.18	1.03956e-06
3360.86	1.45691e-06
3369.53	1.61613e-06
3378.21	1.60051e-06
3386.89	1.92689e-06
3395.57	1.54958e-06
3404.25	6.35291e-07
3412.93	3.46624e-07
3421.6	2.56665e-07
3430.28	2.9022e-07
3438.96	3.96098e-07
3447.64	6.79268e-07
3456.32	2.21165e-06
3464.99	6.40022e-06
3473.67	1.1611e-05
3482.35	1.26392e-05
3491.03	8.03991e-06
3499.71	2.46538e-06
3508.39	1.76593e-07
3517.06	-4.98277e-07
3525.74	-4.49799e-07
3534.42	-4.90746e-07
3543.1	-2.91413e-07
3551.78	-1.1263e-07
3560.45	9.71293e-08
3569.13	1.93145e-07
3577.81	1.25726e-07
3586.49	3.23546e-08
3595.17	1.50689e-07
3603.84	9.00428e-08
3612.52	1.51191e-07
3621.2	7.38146e-08
3629.88	6.02856e-08
3638.56	1.45261e-07
3647.24	-2.2849e-08
3655.91	5.02926e-08
3664.59	1.64829e-08
3673.27	-2.78219e-08
3681.95	5.7088e-08
3690.63	-2.97208e-09
3699.3	1.06478e-08
3707.98	6.32031e-08
3716.66	1.63847e-07
3725.34	2.47971e-07
3734.02	3.0161e-07
3742.7	2.94047e-07
3751.37	3.82584e-07
3760.05	5.14963e-07
3768.73	5.24331e-07
3777.41	5.8701e-07
3786.09	5.61276e-07
3794.76	3.65966e-07
3803.44	3.11476e-07
3812.12	3.1714e-07
3820.8	3.08518e-07
3829.48	2.71835e-07
3838.16	3.61135e-07
3846.83	3.05008e-07
3855.51	2.22702e-07
3864.19	2.57054e-07
3872.87	1.89286e-07
3881.55	2.4657e-07
3890.22	3.672e-07
3898.9	3.55682e-07
3907.58	3.07543e-07
3916.26	3.5247e-07
3924.94	2.82548e-07
3933.61	2.25387e-07
3942.29	1.70493e-07
3950.97	3.92424e-07
3959.65	3.86884e-07
3968.33	5.16848e-07
