Infrared Spectrum: Ethyl Ester-Propenoic Acid
Formula: C H2: C H C O2 C2 H5
CAS: 140-88-5
State: gas
Melting point: -71.2 C
Boiling point: 99.8 C
Class: IUPAC A
Instrument: IFS66V (Bruker)
Instrument parameters: KBr Beam splitter; MCT Detector; Multipass cell
Sampling: 1 L/min Flow
Resolution: 0.1250
Temperature: 23 C
Pressure: 101.3 kPa
Origin: NIST, Anayltical Chemistry Division, 301-975-3108
cm-1	(micromol/mol)-1m-1 (base 10)
574.988	7.31318e-07
583.546	1.31214e-06
592.103	1.0593e-06
600.661	3.66673e-06
609.219	7.46524e-06
617.776	7.29393e-06
626.334	4.02679e-06
634.891	2.23068e-06
643.449	5.48116e-06
652.007	1.32473e-05
660.564	2.019e-05
669.122	2.13939e-05
677.68	1.22205e-05
686.237	4.91825e-06
694.795	1.79598e-06
703.352	8.64985e-07
711.91	8.97936e-07
720.468	9.71973e-07
729.025	1.12124e-06
737.583	1.68666e-06
746.141	1.85894e-06
754.698	2.3923e-06
763.256	3.24782e-06
771.813	6.49939e-06
780.371	1.54747e-05
788.929	3.55785e-05
797.486	6.88181e-05
806.044	0.000112042
814.602	0.000129449
823.159	8.19438e-05
831.717	4.12159e-05
840.274	2.19928e-05
848.832	2.97471e-05
857.39	4.17527e-05
865.947	4.02942e-05
874.505	2.4983e-05
883.063	1.35313e-05
891.62	1.55045e-05
900.178	2.16349e-05
908.735	2.51034e-05
917.293	2.1977e-05
925.851	1.90808e-05
934.408	1.32715e-05
942.966	2.48242e-05
951.524	6.23622e-05
960.081	0.000114294
968.639	0.00016289
977.196	0.000164504
985.754	0.000183635
994.312	0.000125515
1002.87	7.37721e-05
1011.43	3.85765e-05
1019.98	5.28904e-05
1028.54	0.000138982
1037.1	0.000197728
1045.66	0.000178113
1054.22	0.000160167
1062.77	0.000289748
1071.33	0.000325033
1079.89	0.00020375
1088.45	0.000108611
1097	0.000113331
1105.56	0.000107291
1114.12	7.19396e-05
1122.68	4.7539e-05
1131.23	3.51409e-05
1139.79	3.1233e-05
1148.35	3.74549e-05
1156.91	5.81553e-05
1165.46	0.000120736
1174.02	0.00026475
1182.58	0.000743402
1191.14	0.00187783
1199.69	0.00206708
1208.25	0.000891786
1216.81	0.000298172
1225.37	0.00013022
1233.93	8.90693e-05
1242.48	7.9721e-05
1251.04	9.27655e-05
1259.6	0.000255518
1268.16	0.000561362
1276.71	0.000661544
1285.27	0.000410102
1293.83	0.00039927
1302.39	0.000412008
1310.94	0.000229053
1319.5	8.69896e-05
1328.06	3.75557e-05
1336.62	1.84907e-05
1345.17	1.45738e-05
1353.73	1.59015e-05
1362.29	2.97432e-05
1370.85	4.29943e-05
1379.4	7.05164e-05
1387.96	0.000134113
1396.52	0.00021353
1405.08	0.000414931
1413.64	0.000437076
1422.19	0.000220475
1430.75	5.83079e-05
1439.31	4.98334e-05
1447.87	5.90604e-05
1456.42	6.89887e-05
1464.98	7.78516e-05
1473.54	7.49286e-05
1482.1	5.93977e-05
1490.65	3.87095e-05
1499.21	2.44468e-05
1507.77	1.68304e-05
1516.33	1.3595e-05
1524.88	1.06389e-05
1533.44	7.99447e-06
1542	6.874e-06
1550.56	6.73497e-06
1559.11	8.04677e-06
1567.67	8.7078e-06
1576.23	8.25185e-06
1584.79	8.50421e-06
1593.35	9.38306e-06
1601.9	1.31326e-05
1610.46	2.45921e-05
1619.02	4.59976e-05
1627.58	6.0806e-05
1636.13	0.00010879
1644.69	9.46773e-05
1653.25	4.47822e-05
1661.81	1.29859e-05
1670.36	1.0953e-05
1678.92	1.24029e-05
1687.48	1.48463e-05
1696.04	2.04437e-05
1704.59	2.81126e-05
1713.15	4.41261e-05
1721.71	9.53027e-05
1730.27	0.000296447
1738.83	0.000805706
1747.38	0.0010049
1755.94	0.00107488
1764.5	0.0004276
1773.06	0.000126092
1781.61	3.91493e-05
1790.17	2.24576e-05
1798.73	1.67711e-05
1807.29	1.40913e-05
1815.84	1.16828e-05
1824.4	1.10937e-05
1832.96	1.02008e-05
1841.52	8.53565e-06
1850.07	6.33634e-06
1858.63	4.88768e-06
1867.19	4.28137e-06
1875.75	4.95511e-06
1884.3	6.94311e-06
1892.86	8.29988e-06
1901.42	8.39668e-06
1909.98	9.54947e-06
1918.54	1.52645e-05
1927.09	2.49858e-05
1935.65	2.44875e-05
1944.21	1.60834e-05
1952.77	8.78554e-06
1961.32	6.83182e-06
1969.88	5.03373e-06
1978.44	4.38987e-06
1987	4.20638e-06
1995.55	3.89433e-06
2004.11	2.81042e-06
2012.67	2.79266e-06
2021.23	3.27203e-06
2029.78	4.29128e-06
2038.34	6.81338e-06
2046.9	1.2276e-05
2055.46	1.58044e-05
2064.01	1.3178e-05
2072.57	8.61131e-06
2081.13	5.78273e-06
2089.69	5.59573e-06
2098.25	5.37774e-06
2106.8	4.47347e-06
2115.36	4.25063e-06
2123.92	4.4108e-06
2132.48	4.18988e-06
2141.03	3.61702e-06
2149.59	3.11321e-06
2158.15	3.0009e-06
2166.71	2.91194e-06
2175.26	2.2858e-06
2183.82	1.56361e-06
2192.38	1.5883e-06
2200.94	1.5907e-06
2209.49	1.4902e-06
2218.05	1.5349e-06
2226.61	1.76371e-06
2235.17	1.8812e-06
2243.72	1.81862e-06
2252.28	1.85501e-06
2260.84	1.86091e-06
2269.4	1.90574e-06
2277.96	1.8815e-06
2286.51	1.87729e-06
2295.07	1.98959e-06
2303.63	2.4443e-06
2312.19	3.02766e-06
2320.74	3.06322e-06
2329.3	2.86638e-06
2337.86	2.30841e-06
2346.42	1.92638e-06
2354.97	2.50592e-06
2363.53	3.68299e-06
2372.09	5.08857e-06
2380.65	6.67546e-06
2389.2	7.20188e-06
2397.76	5.25229e-06
2406.32	3.33193e-06
2414.88	2.7554e-06
2423.44	2.5428e-06
2431.99	2.00003e-06
2440.55	1.42493e-06
2449.11	1.30255e-06
2457.67	1.39856e-06
2466.22	1.90907e-06
2474.78	2.55497e-06
2483.34	2.77796e-06
2491.9	2.57036e-06
2500.45	2.2539e-06
2509.01	1.61347e-06
2517.57	1.28858e-06
2526.13	1.48734e-06
2534.68	1.70092e-06
2543.24	1.98856e-06
2551.8	2.02794e-06
2560.36	1.80419e-06
2568.91	1.45531e-06
2577.47	9.7688e-07
2586.03	1.12319e-06
2594.59	1.50724e-06
2603.15	1.7924e-06
2611.7	1.79157e-06
2620.26	1.52524e-06
2628.82	1.35326e-06
2637.38	1.22331e-06
2645.93	1.40923e-06
2654.49	1.69117e-06
2663.05	2.00972e-06
2671.61	2.05641e-06
2680.16	1.93371e-06
2688.72	1.93303e-06
2697.28	2.50136e-06
2705.84	2.99545e-06
2714.39	2.71835e-06
2722.95	2.67194e-06
2731.51	2.83876e-06
2740.07	2.63907e-06
2748.62	2.70399e-06
2757.18	2.88246e-06
2765.74	3.77355e-06
2774.3	4.05812e-06
2782.86	3.15214e-06
2791.41	2.7222e-06
2799.97	3.14063e-06
2808.53	3.71411e-06
2817.09	5.27637e-06
2825.64	6.49677e-06
2834.2	6.79308e-06
2842.76	6.74745e-06
2851.32	7.35293e-06
2859.87	8.44014e-06
2868.43	1.12271e-05
2876.99	2.33888e-05
2885.55	3.76728e-05
2894.1	4.41014e-05
2902.66	4.79819e-05
2911.22	5.99155e-05
2919.78	5.76013e-05
2928.34	5.50464e-05
2936.89	7.18084e-05
2945.45	9.67959e-05
2954.01	0.000102263
2962.57	9.6583e-05
2971.12	0.00011504
2979.68	0.000201122
2988.24	0.000262602
2996.8	0.000283179
3005.35	0.000168259
3013.91	9.79378e-05
3022.47	4.20327e-05
3031.03	2.4642e-05
3039.58	2.90709e-05
3048.14	3.35906e-05
3056.7	2.93895e-05
3065.26	1.19246e-05
3073.81	1.2215e-05
3082.37	1.31629e-05
3090.93	1.21816e-05
3099.49	9.94657e-06
3108.05	2.88762e-05
3116.6	2.39901e-05
3125.16	1.34702e-05
3133.72	4.90402e-06
3142.28	3.7861e-06
3150.83	3.79901e-06
3159.39	3.70659e-06
3167.95	3.09116e-06
3176.51	2.72992e-06
3185.06	2.30887e-06
3193.62	1.97268e-06
3202.18	1.78064e-06
3210.74	1.52546e-06
3219.29	1.66355e-06
3227.85	1.80783e-06
3236.41	2.02757e-06
3244.97	1.83856e-06
3253.52	1.55457e-06
3262.08	7.25203e-07
3270.64	3.47588e-07
3279.2	1.03677e-07
3287.76	8.95299e-08
3296.31	-7.64338e-08
3304.87	-1.49695e-08
3313.43	1.78165e-07
3321.99	5.42196e-07
3330.54	5.51421e-07
3339.1	5.80404e-07
3347.66	9.04361e-07
3356.22	1.21565e-06
3364.77	1.54377e-06
3373.33	1.56183e-06
3381.89	1.61532e-06
3390.45	1.83472e-06
3399	1.25717e-06
3407.56	4.58876e-07
3416.12	3.9751e-07
3424.68	2.39269e-07
3433.23	4.93751e-07
3441.79	4.8796e-07
3450.35	8.11e-07
3458.91	3.05203e-06
3467.47	7.99329e-06
3476.02	1.20896e-05
3484.58	1.24964e-05
3493.14	6.48207e-06
3501.7	1.44214e-06
3510.25	1.19371e-07
3518.81	-3.97466e-07
3527.37	-3.69873e-07
3535.93	-1.85895e-07
3544.48	-1.42587e-07
3553.04	-2.32041e-07
3561.6	1.11102e-07
3570.16	1.52366e-07
3578.71	5.1293e-10
3587.27	1.0877e-08
3595.83	1.30346e-07
3604.39	7.83473e-08
3612.95	9.76386e-09
3621.5	2.41623e-08
3630.06	1.59976e-07
3638.62	1.47516e-07
3647.18	5.98564e-08
3655.73	-9.24765e-08
3664.29	1.32496e-07
3672.85	-1.04005e-08
3681.41	-2.44387e-08
3689.96	-1.23976e-08
3698.52	-2.35366e-08
3707.08	1.09596e-07
3715.64	1.36665e-07
3724.19	2.60197e-07
3732.75	4.77145e-07
3741.31	3.78673e-07
3749.87	3.91205e-07
3758.42	3.97786e-07
3766.98	4.76075e-07
3775.54	6.13773e-07
3784.1	5.42392e-07
3792.66	4.86818e-07
3801.21	3.37715e-07
3809.77	2.28512e-07
3818.33	2.52307e-07
3826.89	3.51444e-07
3835.44	3.53485e-07
3844	3.17922e-07
3852.56	4.22898e-07
3861.12	2.78987e-07
3869.67	1.77626e-07
3878.23	3.05055e-07
3886.79	3.60397e-07
3895.35	3.07969e-07
3903.9	2.80078e-07
3912.46	3.77826e-07
3921.02	2.22764e-07
3929.58	7.7045e-08
3938.13	1.18978e-07
3946.69	3.52939e-07
3955.25	3.69106e-07
3963.81	4.9015e-07
3972.37	6.65175e-07
