Infrared Spectrum: ACETIC ACID, ETHYL ESTER
Formula: C4 H8 02
CAS: 141-78-6
State: SOLUTION (10% IN CCl4 FOR 3800-1300, 10% IN CS2 FOR 1300-650, 10% IN CCl4 FOR 650-250 CM^-^1) VERSUS SOLVENT
Boiling point: 77 C
Class: COBLENTZ II
Instrument: PERKIN-ELMER 521 (GRATING)
Instrument parameters: GRATING CHANGES AT 2000, 630 CM^-^1
Sampling: TRANSMISSION
Path length: 0.012, 0.012, AND 0.010 CM (CsBr CELL)
Resolution: 4
Origin: DOW CORNING CORP.
1/CM	TRANSMITTANCE
248.249	0.713
258.096	0.739
267.943	0.742
277.79	0.73
287.636	0.725
297.483	0.689
307.33	0.668
317.177	0.741
327.024	0.796
336.871	0.823
346.718	0.827
356.565	0.8
366.411	0.745
376.258	0.505
386.105	0.741
395.952	0.806
405.799	0.817
415.646	0.82
425.493	0.806
435.339	0.764
445.186	0.765
455.033	0.721
464.88	0.703
474.727	0.778
484.574	0.794
494.421	0.804
504.267	0.809
514.114	0.806
523.961	0.804
533.808	0.802
543.655	0.805
553.502	0.804
563.349	0.802
573.196	0.796
583.042	0.777
592.889	0.675
602.736	0.516
612.583	0.754
622.43	0.746
632.277	0.495
642.124	0.726
651.97	0.798
661.817	0.821
671.664	0.843
681.511	0.856
691.358	0.857
701.205	0.861
711.052	0.863
720.898	0.863
730.745	0.864
740.592	0.863
750.439	0.852
760.286	0.833
770.133	0.784
779.98	0.646
789.827	0.638
799.673	0.754
809.52	0.78
819.367	0.804
829.214	0.778
839.061	0.644
848.908	0.516
858.755	0.743
868.601	0.796
878.448	0.821
888.295	0.823
898.142	0.809
907.989	0.742
917.836	0.639
927.683	0.656
937.529	0.4611
947.376	0.794
957.223	0.82
967.07	0.805
976.917	0.777
986.764	0.73
996.611	0.631
1006.46	0.632
1016.3	0.587
1026.15	0.392
1036	0.044
1045.84	0.002
1055.69	0.095
1065.54	0.308
1075.39	0.424
1085.23	0.412
1095.08	0.304
1104.93	0.408
1114.77	0.525
1124.62	0.67
1134.47	0.699
1144.31	0.676
1154.16	0.613
1164.01	0.639
1173.85	0.636
1183.7	0.603
1193.55	0.482
1203.39	0.252
1213.24	0.044
1223.09	0.001
1232.94	0.001
1242.78	0.002
1252.63	0.032
1262.48	0.069
1272.32	0.289
1282.17	0.408
1292.02	0.341
1301.86	0.372
1311.71	0.541
1321.56	0.684
1331.4	0.71
1341.25	0.662
1351.1	0.2899
1360.94	0.2099
1370.79	0.006
1380.64	0.31
1390.49	0.3091
1400.33	0.493
1410.18	0.485
1420.03	0.428
1429.87	0.39
1439.72	0.2959
1449.57	0.391
1459.41	0.34
1469.26	0.42
1479.11	0.4532
1488.95	0.664
1498.8	0.722
1508.65	0.743
1518.49	0.766
1528.34	0.772
1538.19	0.765
1548.04	0.745
1557.88	0.749
1567.73	0.768
1577.58	0.8
1587.42	0.804
1597.27	0.805
1607.12	0.797
1616.96	0.786
1626.81	0.773
1636.66	0.75
1646.5	0.702
1656.35	0.695
1666.2	0.662
1676.04	0.579
1685.89	0.449
1695.74	0.367
1705.58	0.333
1715.43	0.1629
1725.28	0.004
1735.13	0.002
1744.97	0.01
1754.82	0.1752
1764.67	0.4351
1774.51	0.548
1784.36	0.634
1794.21	0.718
1804.05	0.745
1813.9	0.758
1823.75	0.764
1833.59	0.801
1843.44	0.823
1853.29	0.819
1863.13	0.796
1872.98	0.79
1882.83	0.78
1892.68	0.827
1902.52	0.859
1912.37	0.865
1922.22	0.864
1932.06	0.863
1941.91	0.864
1951.76	0.861
1961.6	0.867
1971.45	0.868
1981.3	0.869
1991.14	0.856
2000.99	0.852
2010.84	0.853
2020.68	0.8595
2030.53	0.8685
2040.38	0.871
2050.23	0.8657
2060.07	0.8556
2069.92	0.8349
2079.77	0.8035
2089.61	0.806
2099.46	0.8354
2109.31	0.8604
2119.15	0.8674
2129	0.871
2138.85	0.8647
2148.69	0.8597
2158.54	0.857
2168.39	0.8616
2178.23	0.8616
2188.08	0.8673
2197.93	0.868
2207.77	0.865
2217.62	0.867
2227.47	0.865
2237.32	0.8655
2247.16	0.8682
2257.01	0.8712
2266.86	0.873
2276.7	0.8714
2286.55	0.8635
2296.4	0.8602
2306.24	0.867
2316.09	0.8693
2325.94	0.875
2335.78	0.872
2345.63	0.871
2355.48	0.872
2365.32	0.871
2375.17	0.869
2385.02	0.865
2394.87	0.86
2404.71	0.859
2414.56	0.857
2424.41	0.863
2434.25	0.864
2444.1	0.859
2453.95	0.849
2463.79	0.837
2473.64	0.837
2483.49	0.845
2493.33	0.8549
2503.18	0.8599
2513.03	0.861
2522.87	0.8612
2532.72	0.863
2542.57	0.8649
2552.42	0.867
2562.26	0.8654
2572.11	0.863
2581.96	0.8593
2591.8	0.8512
2601.65	0.8528
2611.5	0.853
2621.34	0.8606
2631.19	0.8614
2641.04	0.8574
2650.88	0.8522
2660.73	0.8455
2670.58	0.844
2680.42	0.8527
2690.27	0.859
2700.12	0.8553
2709.96	0.8416
2719.81	0.8363
2729.66	0.8323
2739.51	0.832
2749.35	0.8357
2759.2	0.836
2769.05	0.832
2778.89	0.829
2788.74	0.831
2798.59	0.8252
2808.43	0.813
2818.28	0.8094
2828.13	0.7974
2837.97	0.782
2847.82	0.7729
2857.67	0.7618
2867.51	0.641
2877.36	0.6555
2887.21	0.6389
2897.06	0.511
2906.9	0.4577
2916.75	0.5583
2926.6	0.4562
2936.44	0.3601
2946.29	0.426
2956.14	0.3684
2965.98	0.3028
2975.83	0.1274
2985.68	0.099
2995.52	0.1981
3005.37	0.4652
3015.22	0.5747
3025.06	0.6556
3034.91	0.7185
3044.76	0.751
3054.61	0.7767
3064.45	0.7906
3074.3	0.8092
3084.15	0.8163
3093.99	0.819
3103.84	0.829
3113.69	0.833
3123.53	0.8385
3133.38	0.849
3143.23	0.852
3153.07	0.852
3162.92	0.8534
3172.77	0.856
3182.61	0.8592
3192.46	0.863
3202.31	0.865
3212.16	0.867
3222	0.8693
3231.85	0.873
3241.7	0.876
3251.54	0.879
3261.39	0.8791
3271.24	0.879
3281.08	0.878
3290.93	0.876
3300.78	0.8749
3310.62	0.875
3320.47	0.876
3330.32	0.876
3340.16	0.876
3350.01	0.871
3359.86	0.873
3369.7	0.873
3379.55	0.8691
3389.4	0.872
3399.25	0.871
3409.09	0.8671
3418.94	0.8592
3428.79	0.853
3438.63	0.8413
3448.48	0.811
3458.33	0.7784
3468.17	0.8046
3478.02	0.8487
3487.87	0.8682
3497.71	0.872
3507.56	0.8758
3517.41	0.8788
3527.25	0.879
3537.1	0.878
3546.95	0.879
3556.8	0.8805
3566.64	0.8838
3576.49	0.8953
3586.34	0.8863
3596.18	0.89
3606.03	0.887
3615.88	0.8894
3625.72	0.887
3635.57	0.8894
3645.42	0.8873
3655.26	0.8867
3665.11	0.886
3674.96	0.883
3684.8	0.8853
3694.65	0.888
3704.5	0.891
3714.35	0.8932
3724.19	0.894
3734.04	0.894
3743.89	0.891
3753.73	0.89
3763.58	0.8891
3773.43	0.8889
3783.27	0.8905
3793.12	0.891
