Infrared Spectrum: Ethyl Ester Acetic Acid
Formula: C H3 C O2 C H2 C H3
CAS: 141-78-6
State: gas
Melting point: -83.58 C
Boiling point: 77.06 C
Class: IUPAC A
Instrument: IFS66V (Bruker)
Instrument parameters: KBr Beam splitter; MCT Detector; Multipass cell
Sampling: 1 L/min Flow
Resolution: 0.2410
Temperature: 23 C
Pressure: 101.3 kPa
Origin: NIST, Anayltical Chemistry Division, 301-975-3108
cm-1	(micromol/mol)-1m-1 (base 10)
575.048	-2.15896e-07
583.606	3.58106e-06
592.163	9.95155e-06
600.721	1.96406e-05
609.279	3.03698e-05
617.836	2.92927e-05
626.394	5.13654e-05
634.951	4.17636e-05
643.509	3.08488e-05
652.067	5.75999e-06
660.624	1.59206e-06
669.182	7.1768e-07
677.74	3.77855e-07
686.297	5.23101e-07
694.855	-1.08697e-08
703.412	3.35041e-07
711.97	2.40204e-07
720.528	5.33258e-07
729.085	6.64029e-07
737.643	7.50013e-07
746.201	1.34023e-06
754.758	2.96278e-06
763.316	7.0269e-06
771.873	1.46255e-05
780.431	2.45792e-05
788.989	2.67544e-05
797.546	2.04223e-05
806.104	1.28292e-05
814.662	9.13947e-06
823.219	1.09162e-05
831.777	2.0022e-05
840.334	3.66202e-05
848.892	4.12774e-05
857.45	3.93021e-05
866.007	2.17221e-05
874.565	9.87488e-06
883.123	5.05071e-06
891.68	4.45486e-06
900.238	9.4392e-06
908.795	2.6196e-05
917.353	3.3692e-05
925.911	4.13631e-05
934.468	4.12909e-05
943.026	3.26381e-05
951.584	1.27896e-05
960.141	5.24489e-06
968.699	5.49699e-06
977.256	8.26101e-06
985.814	1.49051e-05
994.372	2.44937e-05
1002.93	2.56843e-05
1011.49	2.41891e-05
1020.04	2.60644e-05
1028.6	5.43827e-05
1037.16	0.000160949
1045.72	0.000387793
1054.28	0.000537342
1062.83	0.000507527
1071.39	0.000245014
1079.95	0.000131316
1088.51	0.00010423
1097.06	0.000128107
1105.62	0.000120432
1114.18	9.9693e-05
1122.74	4.66979e-05
1131.29	2.86835e-05
1139.85	1.62821e-05
1148.41	1.51654e-05
1156.97	1.71844e-05
1165.52	1.85341e-05
1174.08	1.9183e-05
1182.64	2.10477e-05
1191.2	2.94e-05
1199.75	6.1891e-05
1208.31	0.000138327
1216.87	0.000264368
1225.43	0.000666465
1233.99	0.00150363
1242.54	0.0018702
1251.1	0.00159594
1259.66	0.000741812
1268.22	0.000276256
1276.77	0.000178107
1285.33	7.29503e-05
1293.89	6.70667e-05
1302.45	9.29256e-05
1311	9.51848e-05
1319.56	6.51104e-05
1328.12	2.57615e-05
1336.68	1.58168e-05
1345.23	2.17911e-05
1353.79	7.27287e-05
1362.35	0.000172727
1370.91	0.000351166
1379.46	0.000337333
1388.02	0.000268404
1396.58	0.000113736
1405.14	8.06241e-05
1413.7	5.62328e-05
1422.25	5.23791e-05
1430.81	5.84873e-05
1439.37	6.65174e-05
1447.93	7.25294e-05
1456.48	7.72663e-05
1465.04	7.99933e-05
1473.6	7.38076e-05
1482.16	6.72182e-05
1490.71	4.6526e-05
1499.27	3.34447e-05
1507.83	2.18379e-05
1516.39	1.65178e-05
1524.94	1.43052e-05
1533.5	1.26205e-05
1542.06	9.35588e-06
1550.62	1.38349e-05
1559.18	1.41852e-05
1567.73	1.2037e-05
1576.29	3.79861e-06
1584.85	5.86039e-06
1593.41	5.13797e-06
1601.96	5.1887e-06
1610.52	5.89875e-06
1619.08	7.02927e-06
1627.64	7.44844e-06
1636.19	7.98518e-06
1644.75	9.14776e-06
1653.31	1.79593e-06
1661.87	1.19947e-05
1670.42	1.35674e-05
1678.98	1.55899e-05
1687.54	1.85565e-05
1696.1	1.6325e-05
1704.65	2.25668e-05
1713.21	2.8251e-05
1721.77	3.2864e-05
1730.33	6.41207e-05
1738.89	0.00017039
1747.44	0.000467643
1756	0.00109098
1764.56	0.000997381
1773.12	0.0011185
1781.67	0.000429696
1790.23	0.000130452
1798.79	3.45447e-05
1807.35	1.71179e-05
1815.9	1.49564e-05
1824.46	1.5801e-05
1833.02	1.66721e-05
1841.58	1.55841e-05
1850.13	1.3193e-05
1858.69	1.09037e-05
1867.25	1.01103e-05
1875.81	9.67049e-06
1884.36	1.12029e-05
1892.92	1.20489e-05
1901.48	1.26489e-05
1910.04	1.03809e-05
1918.6	6.6136e-06
1927.15	4.46305e-06
1935.71	3.66386e-06
1944.27	3.55499e-06
1952.83	3.67982e-06
1961.38	3.81305e-06
1969.94	3.62991e-06
1978.5	3.50112e-06
1987.06	3.31073e-06
1995.61	3.80392e-06
2004.17	4.95714e-06
2012.73	5.94652e-06
2021.29	5.92526e-06
2029.84	5.27018e-06
2038.4	3.41136e-06
2046.96	2.72301e-06
2055.52	3.18389e-06
2064.08	4.64798e-06
2072.63	8.15395e-06
2081.19	1.21346e-05
2089.75	1.41096e-05
2098.31	1.11601e-05
2106.86	7.08574e-06
2115.42	3.78113e-06
2123.98	2.19943e-06
2132.54	1.79503e-06
2141.09	2.42536e-06
2149.65	3.33873e-06
2158.21	3.30791e-06
2166.77	3.17462e-06
2175.32	2.83961e-06
2183.88	2.55917e-06
2192.44	1.98498e-06
2201	1.32485e-06
2209.55	1.56767e-06
2218.11	1.99801e-06
2226.67	2.54264e-06
2235.23	2.58406e-06
2243.79	2.16979e-06
2252.34	1.71316e-06
2260.9	1.27481e-06
2269.46	1.24531e-06
2278.02	1.46132e-06
2286.57	2.07946e-06
2295.13	2.70757e-06
2303.69	3.24125e-06
2312.25	2.99861e-06
2320.8	2.65964e-06
2329.36	2.0824e-06
2337.92	1.64685e-06
2346.48	1.40527e-06
2355.03	1.14705e-06
2363.59	1.53788e-06
2372.15	1.80853e-06
2380.71	1.75778e-06
2389.26	1.76414e-06
2397.82	1.70209e-06
2406.38	1.86235e-06
2414.94	2.02226e-06
2423.5	2.03195e-06
2432.05	1.79339e-06
2440.61	1.52389e-06
2449.17	1.74073e-06
2457.73	2.72208e-06
2466.28	4.09092e-06
2474.84	4.91195e-06
2483.4	4.41366e-06
2491.96	3.21767e-06
2500.51	1.96053e-06
2509.07	9.42605e-07
2517.63	3.34408e-07
2526.19	1.55629e-07
2534.74	3.12869e-07
2543.3	5.16073e-07
2551.86	6.32952e-07
2560.42	4.02152e-07
2568.98	3.32208e-07
2577.53	3.56057e-07
2586.09	5.44229e-07
2594.65	1.12502e-06
2603.21	1.80674e-06
2611.76	2.38424e-06
2620.32	1.91521e-06
2628.88	1.31353e-06
2637.44	8.68237e-07
2645.99	5.35124e-07
2654.55	5.91288e-07
2663.11	9.25358e-07
2671.67	1.43612e-06
2680.22	1.69008e-06
2688.78	2.04341e-06
2697.34	1.87672e-06
2705.9	1.8379e-06
2714.45	1.5104e-06
2723.01	1.79913e-06
2731.57	2.08209e-06
2740.13	2.37818e-06
2748.69	3.05207e-06
2757.24	3.30699e-06
2765.8	3.41748e-06
2774.36	3.51947e-06
2782.92	3.53495e-06
2791.47	3.58721e-06
2800.03	3.15583e-06
2808.59	3.83979e-06
2817.15	5.23458e-06
2825.7	6.13372e-06
2834.26	6.91748e-06
2842.82	8.59277e-06
2851.38	1.06102e-05
2859.93	1.26375e-05
2868.49	1.5448e-05
2877.05	2.81454e-05
2885.61	3.71026e-05
2894.16	4.60239e-05
2902.72	5.08023e-05
2911.28	5.95225e-05
2919.84	5.68508e-05
2928.4	6.12082e-05
2936.95	8.53321e-05
2945.51	0.000108419
2954.07	0.000118695
2962.63	0.000121362
2971.18	0.000139821
2979.74	0.00022014
2988.3	0.000256111
2996.86	0.000285907
3005.41	0.000167884
3013.97	0.000109438
3022.53	5.55363e-05
3031.09	3.38667e-05
3039.64	2.64321e-05
3048.2	2.21799e-05
3056.76	2.06831e-05
3065.32	1.78027e-05
3073.88	1.4199e-05
3082.43	1.06684e-05
3090.99	8.31821e-06
3099.55	7.23401e-06
3108.11	5.6797e-06
3116.66	4.75183e-06
3125.22	4.15315e-06
3133.78	4.15855e-06
3142.34	3.42384e-06
3150.89	2.82743e-06
3159.45	2.27209e-06
3168.01	2.31216e-06
3176.57	2.49958e-06
3185.12	2.6753e-06
3193.68	2.67323e-06
3202.24	2.31873e-06
3210.8	2.00675e-06
3219.35	1.59985e-06
3227.91	1.33509e-06
3236.47	9.85571e-07
3245.03	7.31678e-07
3253.59	5.0596e-07
3262.14	2.06707e-07
3270.7	1.44071e-07
3279.26	7.30943e-08
3287.82	2.13666e-07
3296.37	1.52944e-07
3304.93	9.84025e-08
3313.49	1.49845e-07
3322.05	6.51166e-10
3330.6	4.5036e-09
3339.16	-3.12407e-07
3347.72	-8.83913e-08
3356.28	3.30738e-07
3364.83	2.06416e-07
3373.39	1.9424e-07
3381.95	-5.81611e-08
3390.51	1.00622e-07
3399.06	-1.79202e-07
3407.62	-4.11144e-08
3416.18	2.3386e-07
3424.74	3.85967e-07
3433.3	1.82621e-07
3441.85	1.28018e-07
3450.41	3.48836e-07
3458.97	3.80641e-07
3467.53	-1.43348e-07
3476.08	2.46526e-07
3484.64	1.44546e-06
3493.2	4.81389e-06
3501.76	1.07374e-05
3510.31	1.05323e-05
3518.87	1.05741e-05
3527.43	3.21885e-06
3535.99	-2.71904e-07
3544.54	-1.39525e-06
3553.1	-1.49985e-06
3561.66	-1.30624e-06
3570.22	-1.25769e-06
3578.78	-9.58666e-07
3587.33	-5.53306e-07
3595.89	-2.72882e-07
3604.45	-2.11622e-07
3613.01	-5.164e-07
3621.56	-4.7147e-07
3630.12	-5.63404e-07
3638.68	-3.14044e-07
3647.24	-1.25894e-06
3655.79	-5.29849e-07
3664.35	-3.34357e-07
3672.91	-4.63165e-07
3681.47	-5.37921e-07
3690.02	-4.99193e-07
3698.58	-3.8087e-07
3707.14	-4.56246e-07
3715.7	-2.84676e-07
3724.25	-3.03127e-07
3732.81	-4.51513e-07
3741.37	-9.2789e-07
3749.93	-7.75539e-07
3758.49	-1.40856e-07
3767.04	1.49972e-07
3775.6	6.66554e-08
3784.16	-1.9643e-07
3792.72	1.61686e-07
3801.27	-3.61201e-06
3809.83	-1.14049e-07
3818.39	3.47046e-09
3826.95	-4.20544e-07
3835.5	2.66287e-09
3844.06	-1.72534e-07
3852.62	-4.03625e-07
3861.18	9.90537e-08
3869.73	-3.47846e-07
3878.29	4.30461e-08
3886.85	1.3465e-07
3895.41	2.07155e-07
3903.96	-5.14934e-07
3912.52	1.34657e-07
3921.08	9.03557e-08
3929.64	2.1423e-07
3938.2	4.30497e-07
3946.75	4.70786e-07
3955.31	5.26011e-07
3963.87	6.42312e-07
3972.43	8.81763e-07
