Infrared Spectrum: Ethyl Ester Acetic Acid
Formula: C H3 C O2 C H2 C H3
CAS: 141-78-6
State: gas
Melting point: -83.58 C
Boiling point: 77.06 C
Class: IUPAC A
Instrument: IFS66V (Bruker)
Instrument parameters: KBr Beam splitter; MCT Detector; Multipass cell
Sampling: 1 L/min Flow
Resolution: 0.9640
Temperature: 23 C
Pressure: 101.3 kPa
Origin: NIST, Anayltical Chemistry Division, 301-975-3108
cm-1	(micromol/mol)-1m-1 (base 10)
575.169	2.38021e-07
583.847	3.77846e-06
592.525	1.10709e-05
601.203	2.04238e-05
609.882	2.97758e-05
618.56	3.01418e-05
627.238	5.19898e-05
635.916	4.31205e-05
644.594	2.73274e-05
653.272	4.29646e-06
661.951	1.40923e-06
670.629	7.9092e-07
679.307	4.3101e-07
687.985	3.58189e-07
696.663	3.77342e-07
705.341	3.05699e-07
714.019	4.12265e-07
722.698	4.82179e-07
731.376	7.03732e-07
740.054	9.08235e-07
748.732	1.66692e-06
757.41	3.86029e-06
766.088	8.82251e-06
774.767	1.82098e-05
783.445	2.39565e-05
792.123	2.58385e-05
800.801	1.70576e-05
809.479	1.17058e-05
818.157	9.21676e-06
826.835	1.38466e-05
835.514	2.69376e-05
844.192	3.93998e-05
852.87	4.15132e-05
861.548	3.15138e-05
870.226	1.4529e-05
878.904	6.78252e-06
887.583	4.20066e-06
896.261	5.6394e-06
904.939	1.87205e-05
913.617	3.28978e-05
922.295	3.93524e-05
930.973	4.55951e-05
939.651	3.81501e-05
948.33	2.50268e-05
957.008	5.97497e-06
965.686	5.10092e-06
974.364	7.03408e-06
983.042	1.2164e-05
991.72	2.22682e-05
1000.4	2.54534e-05
1009.08	2.55392e-05
1017.75	2.34646e-05
1026.43	4.27012e-05
1035.11	0.000124536
1043.79	0.000332065
1052.47	0.000527009
1061.15	0.000527301
1069.82	0.000292448
1078.5	0.000142438
1087.18	0.000103879
1095.86	0.00012408
1104.54	0.000136614
1113.21	0.000106535
1121.89	4.95511e-05
1130.57	3.08293e-05
1139.25	1.66241e-05
1147.93	1.50558e-05
1156.61	1.69456e-05
1165.28	1.86562e-05
1173.96	1.92284e-05
1182.64	2.10578e-05
1191.32	2.96354e-05
1200	6.35713e-05
1208.67	0.000142489
1217.35	0.00027544
1226.03	0.000720002
1234.71	0.00154925
1243.39	0.00185488
1252.07	0.00146177
1260.74	0.000648657
1269.42	0.000259637
1278.1	0.000152102
1286.78	6.69624e-05
1295.46	7.11681e-05
1304.13	9.82729e-05
1312.81	8.77732e-05
1321.49	5.39441e-05
1330.17	2.15978e-05
1338.85	1.56978e-05
1347.52	2.89507e-05
1356.2	9.35037e-05
1364.88	0.0002189
1373.56	0.000354334
1382.24	0.000363774
1390.92	0.000189221
1399.59	9.26663e-05
1408.27	7.10061e-05
1416.95	5.21701e-05
1425.63	5.34027e-05
1434.31	6.18068e-05
1442.98	7.01908e-05
1451.66	8.0835e-05
1460.34	8.32574e-05
1469.02	8.14528e-05
1477.7	7.51422e-05
1486.38	5.33844e-05
1495.05	4.1958e-05
1503.73	2.65281e-05
1512.41	1.84012e-05
1521.09	1.33633e-05
1529.77	1.3609e-05
1538.44	1.14699e-05
1547.12	1.37291e-05
1555.8	1.40495e-05
1564.48	1.34741e-05
1573.16	1.0219e-05
1581.83	6.90344e-06
1590.51	5.25365e-06
1599.19	5.0605e-06
1607.87	5.67467e-06
1616.55	4.22154e-06
1625.23	7.77056e-06
1633.9	8.08589e-06
1642.58	8.93474e-06
1651.26	9.51072e-06
1659.94	1.15822e-05
1668.62	1.27219e-05
1677.29	1.51605e-05
1685.97	1.76173e-05
1694.65	2.04945e-05
1703.33	2.27055e-05
1712.01	2.73671e-05
1720.69	3.16398e-05
1729.36	5.94562e-05
1738.04	0.000153691
1746.72	0.000431285
1755.4	0.00104597
1764.08	0.00100297
1772.75	0.00114888
1781.43	0.000442716
1790.11	0.000133187
1798.79	3.45859e-05
1807.47	1.69979e-05
1816.15	1.49976e-05
1824.82	1.54581e-05
1833.5	1.6682e-05
1842.18	1.53813e-05
1850.86	1.29533e-05
1859.54	1.07668e-05
1868.21	9.90239e-06
1876.89	9.81448e-06
1885.57	1.13247e-05
1894.25	1.21651e-05
1902.93	1.24325e-05
1911.6	9.79718e-06
1920.28	5.95309e-06
1928.96	4.2454e-06
1937.64	3.58868e-06
1946.32	3.57074e-06
1955	3.71206e-06
1963.67	3.78358e-06
1972.35	3.64755e-06
1981.03	3.31933e-06
1989.71	3.3675e-06
1998.39	4.2127e-06
2007.06	5.20707e-06
2015.74	6.11677e-06
2024.42	5.72849e-06
2033.1	4.62894e-06
2041.78	2.98655e-06
2050.46	2.81338e-06
2059.13	3.65138e-06
2067.81	5.83984e-06
2076.49	1.02778e-05
2085.17	1.34327e-05
2093.85	1.36491e-05
2102.52	8.8212e-06
2111.2	5.2842e-06
2119.88	2.67915e-06
2128.56	1.90357e-06
2137.24	1.95993e-06
2145.91	3.02779e-06
2154.59	3.42266e-06
2163.27	3.34465e-06
2171.95	2.89734e-06
2180.63	2.7479e-06
2189.31	2.2616e-06
2197.98	1.33925e-06
2206.66	1.35401e-06
2215.34	1.78868e-06
2224.02	2.24428e-06
2232.7	2.58022e-06
2241.37	2.2837e-06
2250.05	1.90172e-06
2258.73	1.39649e-06
2267.41	1.19147e-06
2276.09	1.43928e-06
2284.77	1.95727e-06
2293.44	2.63433e-06
2302.12	3.12954e-06
2310.8	3.14091e-06
2319.48	2.69301e-06
2328.16	2.07709e-06
2336.83	1.71963e-06
2345.51	1.48279e-06
2354.19	1.18155e-06
2362.87	1.48899e-06
2371.55	1.73628e-06
2380.23	1.7367e-06
2388.9	1.70018e-06
2397.58	1.75357e-06
2406.26	1.89058e-06
2414.94	1.9649e-06
2423.62	2.06389e-06
2432.29	1.82441e-06
2440.97	1.55498e-06
2449.65	1.76893e-06
2458.33	2.88842e-06
2467.01	4.2867e-06
2475.68	4.85131e-06
2484.36	4.32113e-06
2493.04	3.10266e-06
2501.72	1.93575e-06
2510.4	9.02585e-07
2519.08	3.02658e-07
2527.75	2.32215e-07
2536.43	4.41724e-07
2545.11	5.95166e-07
2553.79	6.08571e-07
2562.47	4.43764e-07
2571.14	3.33404e-07
2579.82	3.20265e-07
2588.5	6.57631e-07
2597.18	1.4048e-06
2605.86	2.10868e-06
2614.54	2.2486e-06
2623.21	1.6943e-06
2631.89	1.10155e-06
2640.57	7.28466e-07
2649.25	5.02497e-07
2657.93	6.43556e-07
2666.6	1.02453e-06
2675.28	1.53714e-06
2683.96	1.89543e-06
2692.64	2.14003e-06
2701.32	1.71544e-06
2709.99	1.64528e-06
2718.67	1.64183e-06
2727.35	1.98556e-06
2736.03	2.43374e-06
2744.71	2.66882e-06
2753.39	3.24324e-06
2762.06	3.46143e-06
2770.74	3.46891e-06
2779.42	3.51992e-06
2788.1	3.49161e-06
2796.78	3.19969e-06
2805.45	3.47686e-06
2814.13	4.78106e-06
2822.81	5.72537e-06
2831.49	6.71156e-06
2840.17	7.82173e-06
2848.85	9.89039e-06
2857.52	1.21263e-05
2866.2	1.40752e-05
2874.88	2.36405e-05
2883.56	3.51526e-05
2892.24	4.44503e-05
2900.91	4.93786e-05
2909.59	5.79287e-05
2918.27	5.76169e-05
2926.95	6.07464e-05
2935.63	7.96135e-05
2944.31	0.000106618
2952.98	0.000118642
2961.66	0.000120722
2970.34	0.000136461
2979.02	0.000212713
2987.7	0.000253833
2996.37	0.00030484
3005.05	0.000171432
3013.73	0.000111154
3022.41	5.61562e-05
3031.09	3.38302e-05
3039.76	2.63584e-05
3048.44	2.21651e-05
3057.12	2.05774e-05
3065.8	1.75847e-05
3074.48	1.39612e-05
3083.16	1.03541e-05
3091.83	8.09377e-06
3100.51	6.84967e-06
3109.19	5.57631e-06
3117.87	4.53017e-06
3126.55	4.14242e-06
3135.22	3.96624e-06
3143.9	3.19966e-06
3152.58	2.74402e-06
3161.26	2.24966e-06
3169.94	2.28367e-06
3178.62	2.66615e-06
3187.29	2.8926e-06
3195.97	2.6362e-06
3204.65	2.24041e-06
3213.33	1.80999e-06
3222.01	1.4208e-06
3230.68	1.15334e-06
3239.36	1.01139e-06
3248.04	5.87283e-07
3256.72	3.11927e-07
3265.4	9.42481e-08
3274.07	5.58293e-08
3282.75	1.0243e-07
3291.43	1.80639e-07
3300.11	1.83738e-07
3308.79	1.60638e-07
3317.47	1.68336e-07
3326.14	1.38669e-07
3334.82	4.0416e-08
3343.5	-1.23431e-07
3352.18	1.73228e-07
3360.86	2.61463e-07
3369.53	2.01356e-07
3378.21	-3.92628e-08
3386.89	-6.3516e-08
3395.57	-1.08185e-07
3404.25	9.91664e-09
3412.93	8.70998e-08
3421.6	2.51416e-07
3430.28	3.48017e-07
3438.96	3.29225e-07
3447.64	1.32143e-07
3456.32	2.29174e-07
3464.99	1.44966e-08
3473.67	4.05978e-09
3482.35	8.30339e-07
3491.03	3.72803e-06
3499.71	9.45603e-06
3508.39	1.08118e-05
3517.06	1.19928e-05
3525.74	4.18814e-06
3534.42	1.26515e-07
3543.1	-1.31199e-06
3551.78	-1.53007e-06
3560.45	-1.45947e-06
3569.13	-1.27746e-06
3577.81	-8.40124e-07
3586.49	-1.02336e-06
3595.17	-5.04348e-07
3603.84	-1.08377e-07
3612.52	-8.58852e-07
3621.2	-4.5176e-07
3629.88	-1.56743e-06
3638.56	-4.83209e-07
3647.24	-1.18627e-06
3655.91	-1.22399e-06
3664.59	-4.87665e-07
3673.27	-4.47933e-07
3681.95	-3.80499e-07
3690.63	-7.93481e-07
3699.3	-3.58945e-07
3707.98	-4.8266e-07
3716.66	-3.8095e-07
3725.34	-5.76668e-07
3734.02	-5.80291e-07
3742.7	-3.09981e-07
3751.37	-9.10272e-07
3760.05	-5.92368e-07
3768.73	-1.09571e-08
3777.41	5.85686e-10
3786.09	-2.24088e-09
3794.76	-6.99222e-08
3803.44	-2.39713e-07
3812.12	-2.93534e-08
3820.8	-1.1426e-06
3829.48	-3.66654e-08
3838.16	-2.07522e-06
3846.83	9.1749e-08
3855.51	-1.19887e-07
3864.19	-2.60903e-07
3872.87	1.25359e-08
3881.55	-1.09996e-07
3890.22	-9.32004e-09
3898.9	-3.60764e-07
3907.58	1.49957e-07
3916.26	1.82985e-07
3924.94	1.27472e-07
3933.61	3.72543e-07
3942.29	3.41433e-07
3950.97	7.49671e-07
3959.65	6.45418e-07
3968.33	8.07359e-07
