Infrared Spectrum: Ethyl Ester Acetic Acid
Formula: C H3 C O2 C H2 C H3
CAS: 141-78-6
State: gas
Melting point: -83.58 C
Boiling point: 77.06 C
Class: IUPAC A
Instrument: IFS66V (Bruker)
Instrument parameters: KBr Beam splitter; MCT Detector; Multipass cell
Sampling: 1 L/min Flow
Resolution: 0.2410
Temperature: 23 C
Pressure: 101.3 kPa
Origin: NIST, Anayltical Chemistry Division, 301-975-3108
cm-1	(micromol/mol)-1m-1 (base 10)
575.048	-2.32161e-07
583.606	3.56334e-06
592.163	1.00111e-05
600.721	1.96462e-05
609.279	3.03658e-05
617.836	2.93299e-05
626.394	5.12266e-05
634.951	4.17586e-05
643.509	3.08139e-05
652.067	5.8139e-06
660.624	1.62404e-06
669.182	7.45771e-07
677.74	4.20446e-07
686.297	5.25295e-07
694.855	7.34472e-09
703.412	3.33001e-07
711.97	2.82181e-07
720.528	5.33858e-07
729.085	6.73353e-07
737.643	7.78129e-07
746.201	1.36644e-06
754.758	2.97896e-06
763.316	7.03799e-06
771.873	1.46447e-05
780.431	2.4517e-05
788.989	2.6696e-05
797.546	2.04451e-05
806.104	1.2858e-05
814.662	9.17907e-06
823.219	1.09652e-05
831.777	2.00632e-05
840.334	3.658e-05
848.892	4.12268e-05
857.45	3.92138e-05
866.007	2.17251e-05
874.565	9.9225e-06
883.123	5.11394e-06
891.68	4.50487e-06
900.238	9.49747e-06
908.795	2.61847e-05
917.353	3.37055e-05
925.911	4.13372e-05
934.468	4.12392e-05
943.026	3.26291e-05
951.584	1.28986e-05
960.141	5.3242e-06
968.699	5.56997e-06
977.256	8.34326e-06
985.814	1.4985e-05
994.372	2.4546e-05
1002.93	2.57707e-05
1011.49	2.4327e-05
1020.04	2.63119e-05
1028.6	5.47805e-05
1037.16	0.000161278
1045.72	0.000387254
1054.28	0.000536266
1062.83	0.000506338
1071.39	0.000245438
1079.95	0.000131665
1088.51	0.000104492
1097.06	0.000127977
1105.62	0.000120644
1114.18	9.96188e-05
1122.74	4.69316e-05
1131.29	2.88577e-05
1139.85	1.64581e-05
1148.41	1.53236e-05
1156.97	1.73408e-05
1165.52	1.87212e-05
1174.08	1.94178e-05
1182.64	2.13424e-05
1191.2	2.98297e-05
1199.75	6.24619e-05
1208.31	0.00013901
1216.87	0.000265611
1225.43	0.000667518
1233.99	0.00150063
1242.54	0.00186918
1251.1	0.00159291
1259.66	0.000742129
1268.22	0.000278177
1276.77	0.000178745
1285.33	7.36625e-05
1293.89	6.75014e-05
1302.45	9.30636e-05
1311	9.51729e-05
1319.56	6.52118e-05
1328.12	2.60365e-05
1336.68	1.61085e-05
1345.23	2.21398e-05
1353.79	7.29597e-05
1362.35	0.000172295
1370.91	0.00035017
1379.46	0.000337274
1388.02	0.000268047
1396.58	0.000114015
1405.14	8.07876e-05
1413.7	5.63979e-05
1422.25	5.2485e-05
1430.81	5.85556e-05
1439.37	6.6557e-05
1447.93	7.26841e-05
1456.48	7.73409e-05
1465.04	8.01434e-05
1473.6	7.40925e-05
1482.16	6.71607e-05
1490.71	4.66315e-05
1499.27	3.34414e-05
1507.83	2.1837e-05
1516.39	1.65589e-05
1524.94	1.43328e-05
1533.5	1.25966e-05
1542.06	9.69557e-06
1550.62	1.38385e-05
1559.18	1.40403e-05
1567.73	1.20623e-05
1576.29	4.29756e-06
1584.85	5.90814e-06
1593.41	5.17225e-06
1601.96	5.22736e-06
1610.52	5.94446e-06
1619.08	7.04991e-06
1627.64	7.52703e-06
1636.19	7.94318e-06
1644.75	9.1699e-06
1653.31	2.39309e-06
1661.87	1.20327e-05
1670.42	1.36073e-05
1678.98	1.56596e-05
1687.54	1.86302e-05
1696.1	1.68196e-05
1704.65	2.27808e-05
1713.21	2.84493e-05
1721.77	3.32425e-05
1730.33	6.4702e-05
1738.89	0.000171155
1747.44	0.000468128
1756	0.0010879
1764.56	0.00099716
1773.12	0.00111522
1781.67	0.000430365
1790.23	0.000131346
1798.79	3.51631e-05
1807.35	1.74624e-05
1815.9	1.51754e-05
1824.46	1.59353e-05
1833.02	1.67742e-05
1841.58	1.56553e-05
1850.13	1.32634e-05
1858.69	1.09703e-05
1867.25	1.01503e-05
1875.81	9.72519e-06
1884.36	1.12399e-05
1892.92	1.20688e-05
1901.48	1.26609e-05
1910.04	1.04145e-05
1918.6	6.62537e-06
1927.15	4.49681e-06
1935.71	3.69182e-06
1944.27	3.57763e-06
1952.83	3.69696e-06
1961.38	3.82868e-06
1969.94	3.64678e-06
1978.5	3.51015e-06
1987.06	3.32124e-06
1995.61	3.82066e-06
2004.17	4.9667e-06
2012.73	5.94818e-06
2021.29	5.93079e-06
2029.84	5.27097e-06
2038.4	3.42691e-06
2046.96	2.7382e-06
2055.52	3.19757e-06
2064.08	4.66082e-06
2072.63	8.15256e-06
2081.19	1.21295e-05
2089.75	1.40873e-05
2098.31	1.11523e-05
2106.86	7.08082e-06
2115.42	3.80585e-06
2123.98	2.21486e-06
2132.54	1.80616e-06
2141.09	2.44118e-06
2149.65	3.33911e-06
2158.21	3.33699e-06
2166.77	3.1747e-06
2175.32	2.84851e-06
2183.88	2.55877e-06
2192.44	1.98964e-06
2201	1.33201e-06
2209.55	1.57622e-06
2218.11	2.00188e-06
2226.67	2.53653e-06
2235.23	2.57982e-06
2243.79	2.18099e-06
2252.34	1.72172e-06
2260.9	1.28312e-06
2269.46	1.25507e-06
2278.02	1.46854e-06
2286.57	2.08612e-06
2295.13	2.70648e-06
2303.69	3.23948e-06
2312.25	3.00391e-06
2320.8	2.65289e-06
2329.36	2.08358e-06
2337.92	1.65107e-06
2346.48	1.40551e-06
2355.03	1.15634e-06
2363.59	1.53999e-06
2372.15	1.80766e-06
2380.71	1.76368e-06
2389.26	1.76206e-06
2397.82	1.71157e-06
2406.38	1.8666e-06
2414.94	2.02204e-06
2423.5	2.03581e-06
2432.05	1.80111e-06
2440.61	1.53274e-06
2449.17	1.74488e-06
2457.73	2.73366e-06
2466.28	4.09229e-06
2474.84	4.90461e-06
2483.4	4.41203e-06
2491.96	3.22157e-06
2500.51	1.97148e-06
2509.07	9.57531e-07
2517.63	3.39789e-07
2526.19	1.6672e-07
2534.74	3.24768e-07
2543.3	5.21031e-07
2551.86	6.32144e-07
2560.42	4.10588e-07
2568.98	3.32877e-07
2577.53	3.56759e-07
2586.09	5.44953e-07
2594.65	1.13543e-06
2603.21	1.82061e-06
2611.76	2.37566e-06
2620.32	1.91761e-06
2628.88	1.30894e-06
2637.44	8.75662e-07
2645.99	5.46714e-07
2654.55	5.92099e-07
2663.11	9.20487e-07
2671.67	1.43775e-06
2680.22	1.69931e-06
2688.78	2.04807e-06
2697.34	1.87683e-06
2705.9	1.84595e-06
2714.45	1.51626e-06
2723.01	1.80161e-06
2731.57	2.08733e-06
2740.13	2.39975e-06
2748.69	3.05362e-06
2757.24	3.31875e-06
2765.8	3.42095e-06
2774.36	3.5299e-06
2782.92	3.53836e-06
2791.47	3.58188e-06
2800.03	3.17103e-06
2808.59	3.85274e-06
2817.15	5.24252e-06
2825.7	6.14109e-06
2834.26	6.93671e-06
2842.82	8.59813e-06
2851.38	1.06262e-05
2859.93	1.26527e-05
2868.49	1.54931e-05
2877.05	2.81536e-05
2885.61	3.71428e-05
2894.16	4.60042e-05
2902.72	5.08091e-05
2911.28	5.94839e-05
2919.84	5.69125e-05
2928.4	6.12821e-05
2936.95	8.52975e-05
2945.51	0.000108402
2954.07	0.000118707
2962.63	0.000121421
2971.18	0.00013997
2979.74	0.000219943
2988.3	0.000255881
2996.86	0.000285613
3005.41	0.000167946
3013.97	0.000109433
3022.53	5.56838e-05
3031.09	3.39685e-05
3039.64	2.64899e-05
3048.2	2.22456e-05
3056.76	2.07044e-05
3065.32	1.78287e-05
3073.88	1.42181e-05
3082.43	1.0688e-05
3090.99	8.33798e-06
3099.55	7.23139e-06
3108.11	5.70362e-06
3116.66	4.75463e-06
3125.22	4.1671e-06
3133.78	4.16577e-06
3142.34	3.43437e-06
3150.89	2.8404e-06
3159.45	2.28874e-06
3168.01	2.32163e-06
3176.57	2.51277e-06
3185.12	2.68869e-06
3193.68	2.68346e-06
3202.24	2.33443e-06
3210.8	2.01315e-06
3219.35	1.59973e-06
3227.91	1.32127e-06
3236.47	9.92272e-07
3245.03	7.42657e-07
3253.59	5.15622e-07
3262.14	2.18173e-07
3270.7	1.43137e-07
3279.26	7.15664e-08
3287.82	2.18341e-07
3296.37	1.53028e-07
3304.93	1.18181e-07
3313.49	1.50892e-07
3322.05	2.12666e-08
3330.6	1.12663e-08
3339.16	-2.86731e-07
3347.72	-6.8518e-08
3356.28	3.32531e-07
3364.83	2.08842e-07
3373.39	1.89053e-07
3381.95	-7.33417e-08
3390.51	9.31641e-08
3399.06	-1.70325e-07
3407.62	-2.90951e-08
3416.18	2.26242e-07
3424.74	3.73457e-07
3433.3	1.89428e-07
3441.85	1.46058e-07
3450.41	3.41953e-07
3458.97	3.73045e-07
3467.53	-1.07406e-07
3476.08	2.55075e-07
3484.64	1.45308e-06
3493.2	4.82697e-06
3501.76	1.06978e-05
3510.31	1.05291e-05
3518.87	1.05431e-05
3527.43	3.20969e-06
3535.99	-2.61518e-07
3544.54	-1.37467e-06
3553.1	-1.49205e-06
3561.66	-1.31107e-06
3570.22	-1.25147e-06
3578.78	-9.46428e-07
3587.33	-5.80968e-07
3595.89	-2.83174e-07
3604.45	-2.0786e-07
3613.01	-5.35444e-07
3621.56	-4.68534e-07
3630.12	-6.32988e-07
3638.68	-3.34492e-07
3647.24	-1.24837e-06
3655.79	-5.76198e-07
3664.35	-3.46675e-07
3672.91	-4.80026e-07
3681.47	-5.25964e-07
3690.02	-5.1719e-07
3698.58	-3.8094e-07
3707.14	-4.66672e-07
3715.7	-3.08162e-07
3724.25	-3.20974e-07
3732.81	-5.00845e-07
3741.37	-8.92862e-07
3749.93	-8.78074e-07
3758.49	-1.45006e-07
3767.04	1.302e-07
3775.6	7.83327e-08
3784.16	-1.94208e-07
3792.72	1.46916e-07
3801.27	-3.3309e-06
3809.83	-1.10764e-07
3818.39	-2.36675e-08
3826.95	-3.86778e-07
3835.5	-4.19002e-08
3844.06	-1.79329e-07
3852.62	-5.01503e-07
3861.18	7.6532e-08
3869.73	-4.56366e-07
3878.29	4.28897e-08
3886.85	1.15748e-07
3895.41	2.08453e-07
3903.96	-4.93526e-07
3912.52	1.43639e-07
3921.08	9.21673e-08
3929.64	2.20905e-07
3938.2	4.2169e-07
3946.75	4.71397e-07
3955.31	5.36827e-07
3963.87	6.43414e-07
3972.43	8.93877e-07
