Infrared Spectrum: Ethyl Ester Acetic Acid
Formula: C H3 C O2 C H2 C H3
CAS: 141-78-6
State: gas
Melting point: -83.58 C
Boiling point: 77.06 C
Class: IUPAC A
Instrument: IFS66V (Bruker)
Instrument parameters: KBr Beam splitter; MCT Detector; Multipass cell
Sampling: 1 L/min Flow
Resolution: 0.4820
Temperature: 23 C
Pressure: 101.3 kPa
Origin: NIST, Anayltical Chemistry Division, 301-975-3108
cm-1	(micromol/mol)-1m-1 (base 10)
574.928	-1.82203e-07
583.606	3.58467e-06
592.284	1.06804e-05
600.962	2.00906e-05
609.641	3.01364e-05
618.319	2.98719e-05
626.997	5.15324e-05
635.675	4.28608e-05
644.353	2.79424e-05
653.031	4.54586e-06
661.71	1.49418e-06
670.388	8.38458e-07
679.066	4.17987e-07
687.744	3.80219e-07
696.422	5.07113e-07
705.1	3.31786e-07
713.778	3.80747e-07
722.457	4.65318e-07
731.135	7.34465e-07
739.813	9.38371e-07
748.491	1.69288e-06
757.169	3.91701e-06
765.847	8.65464e-06
774.526	1.78479e-05
783.204	2.4067e-05
791.882	2.58937e-05
800.56	1.73513e-05
809.238	1.19037e-05
817.916	9.34352e-06
826.594	1.37009e-05
835.273	2.65867e-05
843.951	3.94849e-05
852.629	4.14322e-05
861.307	3.19664e-05
869.985	1.48816e-05
878.663	7.01884e-06
887.342	4.38907e-06
896.02	5.60548e-06
904.698	1.82446e-05
913.376	3.15773e-05
922.054	3.91649e-05
930.732	4.5449e-05
939.41	3.93257e-05
948.089	2.60682e-05
956.767	6.30109e-06
965.445	5.20411e-06
974.123	7.11001e-06
982.801	1.20843e-05
991.479	2.20923e-05
1000.16	2.5591e-05
1008.84	2.58538e-05
1017.51	2.37537e-05
1026.19	4.23295e-05
1034.87	0.000121409
1043.55	0.000324257
1052.23	0.000522794
1060.9	0.000529659
1069.58	0.000300582
1078.26	0.000145059
1086.94	0.000104518
1095.62	0.000123273
1104.3	0.000137301
1112.97	0.000107945
1121.65	5.09553e-05
1130.33	3.17861e-05
1139.01	1.71036e-05
1147.69	1.53532e-05
1156.36	1.71635e-05
1165.04	1.91001e-05
1173.72	1.96826e-05
1182.4	2.15178e-05
1191.08	3.00051e-05
1199.76	6.30704e-05
1208.43	0.000141068
1217.11	0.000272029
1225.79	0.000699459
1234.47	0.00152929
1243.15	0.00184046
1251.82	0.00148949
1260.5	0.000670444
1269.18	0.000263789
1277.86	0.000157839
1286.54	6.90524e-05
1295.21	7.12656e-05
1303.89	9.80774e-05
1312.57	8.86693e-05
1321.25	5.57074e-05
1329.93	2.25229e-05
1338.61	1.6176e-05
1347.28	2.86588e-05
1355.96	9.21334e-05
1364.64	0.000213037
1373.32	0.000352861
1382	0.000360639
1390.67	0.000195089
1399.35	9.36389e-05
1408.03	7.2179e-05
1416.71	5.28169e-05
1425.39	5.3429e-05
1434.07	6.16859e-05
1442.74	7.00672e-05
1451.42	7.9937e-05
1460.1	8.31048e-05
1468.78	8.10616e-05
1477.46	7.52473e-05
1486.13	5.40121e-05
1494.81	4.25618e-05
1503.49	2.69787e-05
1512.17	1.82314e-05
1520.85	1.47598e-05
1529.52	1.37355e-05
1538.2	1.24699e-05
1546.88	1.37546e-05
1555.56	1.40389e-05
1564.24	1.38103e-05
1572.92	1.02986e-05
1581.59	7.0906e-06
1590.27	5.35764e-06
1598.95	5.11198e-06
1607.63	5.73692e-06
1616.31	5.60396e-06
1624.98	7.74906e-06
1633.66	8.20217e-06
1642.34	8.96816e-06
1651.02	9.68626e-06
1659.7	1.16505e-05
1668.38	1.29767e-05
1677.05	1.52261e-05
1685.73	1.76514e-05
1694.41	2.08395e-05
1703.09	2.29037e-05
1711.77	2.75874e-05
1720.44	3.21634e-05
1729.12	5.94769e-05
1737.8	0.000150469
1746.48	0.000420585
1755.16	0.00102297
1763.84	0.00100581
1772.51	0.00116323
1781.19	0.000456359
1789.87	0.000140098
1798.55	3.69313e-05
1807.23	1.78872e-05
1815.9	1.54154e-05
1824.58	1.60419e-05
1833.26	1.68566e-05
1841.94	1.55819e-05
1850.62	1.31921e-05
1859.29	1.09398e-05
1867.97	9.82462e-06
1876.65	9.84374e-06
1885.33	1.13924e-05
1894.01	1.21903e-05
1902.69	1.25134e-05
1911.36	9.9481e-06
1920.04	6.1007e-06
1928.72	4.29577e-06
1937.4	3.63602e-06
1946.08	3.60515e-06
1954.75	3.79135e-06
1963.43	3.80373e-06
1972.11	3.69467e-06
1980.79	3.36102e-06
1989.47	3.35006e-06
1998.15	4.19987e-06
2006.82	5.20284e-06
2015.5	6.07664e-06
2024.18	5.80399e-06
2032.86	4.7036e-06
2041.54	3.03222e-06
2050.21	2.82758e-06
2058.89	3.65611e-06
2067.57	5.78086e-06
2076.25	1.0146e-05
2084.93	1.34014e-05
2093.6	1.37191e-05
2102.28	8.966e-06
2110.96	5.50887e-06
2119.64	2.612e-06
2128.32	1.94674e-06
2137	1.97615e-06
2145.67	3.02426e-06
2154.35	3.44722e-06
2163.03	3.34443e-06
2171.71	2.94656e-06
2180.39	2.79507e-06
2189.06	2.30003e-06
2197.74	1.35789e-06
2206.42	1.31201e-06
2215.1	1.80611e-06
2223.78	2.26063e-06
2232.46	2.59411e-06
2241.13	2.30179e-06
2249.81	1.9209e-06
2258.49	1.43476e-06
2267.17	1.16833e-06
2275.85	1.45115e-06
2284.52	1.95033e-06
2293.2	2.61705e-06
2301.88	3.10303e-06
2310.56	3.12617e-06
2319.24	2.68581e-06
2327.92	2.12337e-06
2336.59	1.76275e-06
2345.27	1.54185e-06
2353.95	1.24058e-06
2362.63	1.46116e-06
2371.31	1.70385e-06
2379.98	1.73677e-06
2388.66	1.68449e-06
2397.34	1.76454e-06
2406.02	1.90095e-06
2414.7	1.94645e-06
2423.37	2.04422e-06
2432.05	1.82062e-06
2440.73	1.54448e-06
2449.41	1.74527e-06
2458.09	2.86108e-06
2466.77	4.28132e-06
2475.44	4.85634e-06
2484.12	4.33847e-06
2492.8	3.14433e-06
2501.48	1.99895e-06
2510.16	9.05816e-07
2518.83	3.43903e-07
2527.51	2.65137e-07
2536.19	4.39243e-07
2544.87	6.28746e-07
2553.55	6.11802e-07
2562.23	4.41076e-07
2570.9	3.42033e-07
2579.58	3.35103e-07
2588.26	6.32064e-07
2596.94	1.38489e-06
2605.62	2.13399e-06
2614.29	2.28053e-06
2622.97	1.72389e-06
2631.65	1.1271e-06
2640.33	7.89643e-07
2649.01	4.91201e-07
2657.68	6.67202e-07
2666.36	1.00832e-06
2675.04	1.53458e-06
2683.72	1.87388e-06
2692.4	2.10899e-06
2701.08	1.70355e-06
2709.75	1.66135e-06
2718.43	1.62523e-06
2727.11	1.9587e-06
2735.79	2.4344e-06
2744.47	2.63368e-06
2753.14	3.19551e-06
2761.82	3.5366e-06
2770.5	3.46244e-06
2779.18	3.53616e-06
2787.86	3.53112e-06
2796.54	3.24229e-06
2805.21	3.48668e-06
2813.89	4.76283e-06
2822.57	5.70231e-06
2831.25	6.71021e-06
2839.93	7.86332e-06
2848.6	9.82089e-06
2857.28	1.21749e-05
2865.96	1.40485e-05
2874.64	2.32263e-05
2883.32	3.49954e-05
2892	4.41823e-05
2900.67	4.91931e-05
2909.35	5.75999e-05
2918.03	5.7853e-05
2926.71	6.07915e-05
2935.39	7.8583e-05
2944.06	0.000106142
2952.74	0.000118636
2961.42	0.000120755
2970.1	0.000135882
2978.78	0.000209853
2987.45	0.000252287
2996.13	0.000310985
3004.81	0.000173583
3013.49	0.000112946
3022.17	5.745e-05
3030.85	3.43979e-05
3039.52	2.6676e-05
3048.2	2.23076e-05
3056.88	2.07403e-05
3065.56	1.7754e-05
3074.24	1.40268e-05
3082.91	1.0431e-05
3091.59	8.09745e-06
3100.27	6.90422e-06
3108.95	5.69768e-06
3117.63	4.5265e-06
3126.31	4.22145e-06
3134.98	4.03855e-06
3143.66	3.20663e-06
3152.34	2.86194e-06
3161.02	2.30897e-06
3169.7	2.35343e-06
3178.37	2.63549e-06
3187.05	2.93731e-06
3195.73	2.60869e-06
3204.41	2.28206e-06
3213.09	1.81923e-06
3221.77	1.44662e-06
3230.44	1.11483e-06
3239.12	9.88525e-07
3247.8	5.60243e-07
3256.48	2.86288e-07
3265.16	1.10265e-07
3273.83	8.1112e-08
3282.51	8.67324e-08
3291.19	2.25107e-07
3299.87	2.54497e-07
3308.55	1.4525e-07
3317.22	1.42875e-07
3325.9	8.531e-08
3334.58	9.28403e-08
3343.26	-7.55607e-08
3351.94	1.54628e-07
3360.62	2.78212e-07
3369.29	2.45028e-07
3377.97	2.55374e-09
3386.65	1.88547e-08
3395.33	-1.44763e-07
3404.01	-5.45233e-08
3412.68	1.27974e-07
3421.36	2.4422e-07
3430.04	3.42568e-07
3438.72	3.17758e-07
3447.4	8.07992e-08
3456.08	3.0177e-07
3464.75	1.13827e-08
3473.43	8.69762e-08
3482.11	8.51165e-07
3490.79	3.67393e-06
3499.47	9.32506e-06
3508.14	1.08446e-05
3516.82	1.21056e-05
3525.5	4.31861e-06
3534.18	1.9197e-07
3542.86	-1.3147e-06
3551.53	-1.37636e-06
3560.21	-1.52702e-06
3568.89	-1.32446e-06
3577.57	-8.32001e-07
3586.25	-9.0395e-07
3594.93	-2.74199e-07
3603.6	-1.43326e-07
3612.28	-7.81418e-07
3620.96	-4.14989e-07
3629.64	-2.8925e-06
3638.32	-5.86803e-07
3646.99	-1.03261e-06
3655.67	-5.96363e-07
3664.35	-4.14797e-07
3673.03	-4.42808e-07
3681.71	-4.1715e-07
3690.39	-6.77136e-07
3699.06	-3.50302e-07
3707.74	-5.101e-07
3716.42	-3.36806e-07
3725.1	-7.2131e-07
3733.78	-5.11915e-07
3742.45	-3.31746e-07
3751.13	-5.65049e-07
3759.81	-1.03779e-06
3768.49	4.82263e-08
3777.17	6.4611e-08
3785.85	5.48362e-08
3794.52	6.19154e-09
3803.2	-3.72103e-07
3811.88	-3.3064e-08
3820.56	-1.25256e-06
3829.24	1.53188e-08
3837.91	-4.43362e-06
3846.59	1.19102e-08
3855.27	-1.98962e-07
3863.95	-1.28021e-07
3872.63	4.99324e-08
3881.3	-1.8898e-07
3889.98	4.91103e-09
3898.66	-1.95786e-08
3907.34	1.06497e-07
3916.02	3.04746e-07
3924.7	1.96856e-07
3933.37	4.07772e-07
3942.05	4.80677e-07
3950.73	7.95092e-07
3959.41	6.05919e-07
3968.09	8.64123e-07
