Infrared Spectrum: Ethyl Ester Acetic Acid
Formula: C H3 C O2 C H2 C H3
CAS: 141-78-6
State: gas
Melting point: -83.58 C
Boiling point: 77.06 C
Class: IUPAC A
Instrument: IFS66V (Bruker)
Instrument parameters: KBr Beam splitter; MCT Detector; Multipass cell
Sampling: 1 L/min Flow
Resolution: 1.9290
Temperature: 23 C
Pressure: 101.3 kPa
Origin: NIST, Anayltical Chemistry Division, 301-975-3108
cm-1	(micromol/mol)-1m-1 (base 10)
574.687	3.84439e-07
583.365	3.43468e-06
592.043	1.04625e-05
600.721	1.968e-05
609.4	3.03471e-05
618.078	2.95733e-05
626.756	5.16649e-05
635.434	4.24785e-05
644.112	2.90611e-05
652.79	4.75452e-06
661.469	1.49289e-06
670.147	7.23507e-07
678.825	4.88411e-07
687.503	3.412e-07
696.181	3.56908e-07
704.859	2.73373e-07
713.537	3.85119e-07
722.216	4.74344e-07
730.894	7.0327e-07
739.572	9.17631e-07
748.25	1.65521e-06
756.928	3.65341e-06
765.606	8.41982e-06
774.285	1.75915e-05
782.963	2.41626e-05
791.641	2.61038e-05
800.319	1.74979e-05
808.997	1.17041e-05
817.675	9.18447e-06
826.353	1.33566e-05
835.032	2.59753e-05
843.71	3.93995e-05
852.388	4.15633e-05
861.066	3.26232e-05
869.744	1.52325e-05
878.422	7.0984e-06
887.101	4.26507e-06
895.779	5.41545e-06
904.457	1.75711e-05
913.135	3.13107e-05
921.813	3.89841e-05
930.491	4.53699e-05
939.169	3.78102e-05
947.848	2.70286e-05
956.526	6.21404e-06
965.204	5.07504e-06
973.882	6.88178e-06
982.56	1.17548e-05
991.238	2.17134e-05
999.917	2.54402e-05
1008.59	2.57002e-05
1017.27	2.31918e-05
1025.95	4.07512e-05
1034.63	0.000117269
1043.31	0.000317624
1051.99	0.000521899
1060.66	0.000530056
1069.34	0.000309278
1078.02	0.000146644
1086.7	0.000104287
1095.38	0.000122578
1104.05	0.000133362
1112.73	0.000109278
1121.41	5.15405e-05
1130.09	3.21901e-05
1138.77	1.69412e-05
1147.45	1.49886e-05
1156.12	1.67893e-05
1164.8	1.86925e-05
1173.48	1.92704e-05
1182.16	2.08418e-05
1190.84	2.87849e-05
1199.51	6.06046e-05
1208.19	0.00013709
1216.87	0.000265538
1225.55	0.000678649
1234.23	0.00151708
1242.9	0.0018756
1251.58	0.0015284
1260.26	0.000690139
1268.94	0.000266506
1277.62	0.000161483
1286.3	6.88143e-05
1294.97	6.98977e-05
1303.65	9.70037e-05
1312.33	8.96056e-05
1321.01	5.67628e-05
1329.69	2.24866e-05
1338.36	1.57577e-05
1347.04	2.71859e-05
1355.72	8.95618e-05
1364.4	0.000206631
1373.08	0.000354483
1381.76	0.000359636
1390.43	0.000201219
1399.11	9.50343e-05
1407.79	7.27478e-05
1416.47	5.26423e-05
1425.15	5.30258e-05
1433.82	6.1384e-05
1442.5	6.97874e-05
1451.18	7.94602e-05
1459.86	8.24142e-05
1468.54	8.09748e-05
1477.22	7.52507e-05
1485.89	5.48096e-05
1494.57	4.29229e-05
1503.25	2.7212e-05
1511.93	1.8914e-05
1520.61	1.42609e-05
1529.28	1.35851e-05
1537.96	1.21445e-05
1546.64	1.36318e-05
1555.32	1.35952e-05
1564	1.38051e-05
1572.67	1.03064e-05
1581.35	7.11932e-06
1590.03	5.28603e-06
1598.71	5.05046e-06
1607.39	5.61429e-06
1616.07	5.33529e-06
1624.74	7.54131e-06
1633.42	8.11063e-06
1642.1	8.85989e-06
1650.78	9.53416e-06
1659.46	1.14871e-05
1668.13	1.28577e-05
1676.81	1.49197e-05
1685.49	1.6028e-05
1694.17	2.05161e-05
1702.85	2.24855e-05
1711.53	2.69934e-05
1720.2	3.14148e-05
1728.88	5.74209e-05
1737.56	0.000144957
1746.24	0.00040889
1754.92	0.00100788
1763.59	0.00101508
1772.27	0.0011897
1780.95	0.000469475
1789.63	0.000144396
1798.31	3.69838e-05
1806.98	1.73909e-05
1815.66	1.49794e-05
1824.34	1.56367e-05
1833.02	1.66783e-05
1841.7	1.55086e-05
1850.38	1.30959e-05
1859.05	1.08487e-05
1867.73	9.93424e-06
1876.41	9.75542e-06
1885.09	1.12903e-05
1893.77	1.21157e-05
1902.44	1.2517e-05
1911.12	1.00309e-05
1919.8	6.11574e-06
1928.48	4.31305e-06
1937.16	3.60491e-06
1945.84	3.582e-06
1954.51	3.68167e-06
1963.19	3.79173e-06
1971.87	3.63293e-06
1980.55	3.34891e-06
1989.23	3.32509e-06
1997.9	4.13663e-06
2006.58	5.15227e-06
2015.26	6.09632e-06
2023.94	5.77222e-06
2032.62	4.74386e-06
2041.3	3.03788e-06
2049.97	2.79145e-06
2058.65	3.57764e-06
2067.33	5.67384e-06
2076.01	9.98368e-06
2084.69	1.33162e-05
2093.36	1.38159e-05
2102.04	9.07892e-06
2110.72	5.51054e-06
2119.4	2.80457e-06
2128.08	1.90118e-06
2136.75	1.91738e-06
2145.43	2.9764e-06
2154.11	3.46814e-06
2162.79	3.33016e-06
2171.47	2.92814e-06
2180.15	2.70322e-06
2188.82	2.3026e-06
2197.5	1.3646e-06
2206.18	1.34536e-06
2214.86	1.77167e-06
2223.54	2.23289e-06
2232.21	2.57799e-06
2240.89	2.29928e-06
2249.57	1.9201e-06
2258.25	1.41295e-06
2266.93	1.19403e-06
2275.61	1.40183e-06
2284.28	1.9176e-06
2292.96	2.59257e-06
2301.64	3.11521e-06
2310.32	3.18022e-06
2319	2.71995e-06
2327.67	2.11325e-06
2336.35	1.74165e-06
2345.03	1.50614e-06
2353.71	1.17427e-06
2362.39	1.46945e-06
2371.06	1.73716e-06
2379.74	1.7524e-06
2388.42	1.69321e-06
2397.1	1.74406e-06
2405.78	1.86565e-06
2414.46	1.95865e-06
2423.13	2.05942e-06
2431.81	1.83362e-06
2440.49	1.5693e-06
2449.17	1.73072e-06
2457.85	2.82353e-06
2466.52	4.19736e-06
2475.2	4.84359e-06
2483.88	4.37585e-06
2492.56	3.15951e-06
2501.24	1.98152e-06
2509.92	9.26235e-07
2518.59	3.136e-07
2527.27	1.98908e-07
2535.95	4.26474e-07
2544.63	6.02034e-07
2553.31	5.98647e-07
2561.98	4.06946e-07
2570.66	3.31029e-07
2579.34	3.23637e-07
2588.02	6.29234e-07
2596.7	1.33141e-06
2605.38	2.079e-06
2614.05	2.23501e-06
2622.73	1.75068e-06
2631.41	1.1402e-06
2640.09	7.23584e-07
2648.77	5.28176e-07
2657.44	6.16782e-07
2666.12	1.01278e-06
2674.8	1.51678e-06
2683.48	1.89785e-06
2692.16	2.12595e-06
2700.83	1.75466e-06
2709.51	1.65601e-06
2718.19	1.65824e-06
2726.87	1.95918e-06
2735.55	2.39961e-06
2744.23	2.6162e-06
2752.9	3.25881e-06
2761.58	3.49018e-06
2770.26	3.42884e-06
2778.94	3.5198e-06
2787.62	3.4814e-06
2796.29	3.24117e-06
2804.97	3.4101e-06
2813.65	4.69788e-06
2822.33	5.68411e-06
2831.01	6.66519e-06
2839.69	7.72696e-06
2848.36	9.77484e-06
2857.04	1.20535e-05
2865.72	1.39055e-05
2874.4	2.27467e-05
2883.08	3.50603e-05
2891.75	4.39366e-05
2900.43	4.88869e-05
2909.11	5.73031e-05
2917.79	5.8234e-05
2926.47	6.06664e-05
2935.14	7.75692e-05
2943.82	0.000105073
2952.5	0.000118926
2961.18	0.000120468
2969.86	0.000134958
2978.54	0.000207772
2987.21	0.000252532
2995.89	0.000320963
3004.57	0.000176624
3013.25	0.000114722
3021.93	5.83268e-05
3030.6	3.46126e-05
3039.28	2.66931e-05
3047.96	2.23412e-05
3056.64	2.0652e-05
3065.32	1.77804e-05
3074	1.41378e-05
3082.67	1.0536e-05
3091.35	8.20639e-06
3100.03	6.92563e-06
3108.71	5.66941e-06
3117.39	4.59312e-06
3126.06	4.13806e-06
3134.74	4.01201e-06
3143.42	3.24014e-06
3152.1	2.80775e-06
3160.78	2.27314e-06
3169.46	2.28698e-06
3178.13	2.64514e-06
3186.81	2.87286e-06
3195.49	2.6308e-06
3204.17	2.28749e-06
3212.85	1.81322e-06
3221.52	1.41923e-06
3230.2	1.12231e-06
3238.88	9.82814e-07
3247.56	6.51897e-07
3256.24	3.52736e-07
3264.91	1.41383e-07
3273.59	1.02746e-07
3282.27	7.1039e-08
3290.95	1.95263e-07
3299.63	1.93535e-07
3308.31	1.57022e-07
3316.98	1.89759e-07
3325.66	1.39462e-07
3334.34	8.981e-08
3343.02	-4.80917e-08
3351.7	1.45596e-07
3360.37	2.24107e-07
3369.05	2.29869e-07
3377.73	-3.2511e-08
3386.41	-1.01622e-07
3395.09	-1.28644e-07
3403.77	-4.77025e-08
3412.44	4.73896e-08
3421.12	2.2208e-07
3429.8	3.29246e-07
3438.48	3.56224e-07
3447.16	1.68896e-07
3455.83	2.55395e-07
3464.51	8.36512e-08
3473.19	-1.20047e-10
3481.87	7.80053e-07
3490.55	3.44029e-06
3499.22	9.06005e-06
3507.9	1.09488e-05
3516.58	1.22405e-05
3525.26	4.58498e-06
3533.94	2.47651e-07
3542.62	-1.21572e-06
3551.29	-1.49615e-06
3559.97	-1.45765e-06
3568.65	-1.46587e-06
3577.33	-8.69256e-07
3586.01	-8.01851e-07
3594.68	-4.39996e-07
3603.36	-1.63508e-07
3612.04	-5.97552e-07
3620.72	-6.16567e-07
3629.4	-1.55867e-06
3638.08	-4.67577e-07
3646.75	-9.36166e-07
3655.43	-7.98584e-07
3664.11	-4.5853e-07
3672.79	-4.03679e-07
3681.47	-3.8146e-07
3690.14	-7.39925e-07
3698.82	-3.54122e-07
3707.5	-4.70448e-07
3716.18	-3.78797e-07
3724.86	-5.06545e-07
3733.54	-6.29849e-07
3742.21	-3.69779e-07
3750.89	-8.87918e-07
3759.57	-4.60891e-07
3768.25	1.31325e-08
3776.93	4.89648e-08
3785.6	-6.36033e-08
3794.28	-3.40062e-08
3802.96	-3.84086e-07
3811.64	-3.32677e-08
3820.32	-7.61424e-07
3828.99	7.71577e-09
3837.67	-1.60719e-06
3846.35	7.56226e-08
3855.03	-1.47672e-06
3863.71	-1.49033e-07
3872.39	3.42644e-08
3881.06	-3.29948e-07
3889.74	1.95641e-08
3898.42	-1.40692e-07
3907.1	1.23343e-07
3915.78	2.14168e-07
3924.45	1.76772e-07
3933.13	2.67298e-07
3941.81	4.53852e-07
3950.49	6.76216e-07
3959.17	6.80498e-07
3967.85	7.96438e-07
