Infrared Spectrum: Ethyl Ester Acetic Acid
Formula: C H3 C O2 C H2 C H3
CAS: 141-78-6
State: gas
Melting point: -83.58 C
Boiling point: 77.06 C
Class: IUPAC A
Instrument: IFS66V (Bruker)
Instrument parameters: KBr Beam splitter; MCT Detector; Multipass cell
Sampling: 1 L/min Flow
Resolution: 0.1250
Temperature: 23 C
Pressure: 101.3 kPa
Origin: NIST, Anayltical Chemistry Division, 301-975-3108
cm-1	(micromol/mol)-1m-1 (base 10)
3975.02	1.38986e-06
3966.46	8.64912e-07
3957.9	8.0072e-07
3949.34	3.55464e-07
3940.79	2.01678e-07
3932.23	-1.93978e-07
3923.67	5.8114e-07
3915.11	5.05549e-07
3906.56	2.54673e-07
3898	9.60688e-08
3889.44	3.9206e-07
3880.88	4.92722e-08
3872.33	1.57782e-07
3863.77	1.94078e-07
3855.21	-2.71871e-07
3846.65	1.39884e-07
3838.09	-2.24978e-06
3829.54	-3.6956e-07
3820.98	-8.8991e-07
3812.42	1.12586e-07
3803.86	-5.50727e-08
3795.31	2.11178e-07
3786.75	-1.12686e-07
3778.19	2.57756e-08
3769.63	-4.8165e-07
3761.08	2.96268e-07
3752.52	-2.18778e-06
3743.96	-3.28867e-06
3735.4	-1.28787e-06
3726.85	-8.44814e-07
3718.29	-4.61553e-07
3709.73	-5.40544e-07
3701.17	-3.51564e-07
3692.62	-5.92439e-07
3684.06	-4.58652e-07
3675.5	-8.28016e-07
3666.94	-4.21956e-07
3658.38	-2.14577e-07
3649.83	-6.54633e-07
3641.27	-2.59472e-07
3632.71	-6.08038e-07
3624.15	6.10223e-08
3615.6	-2.97368e-07
3607.04	-7.9592e-07
3598.48	-4.51353e-07
3589.92	-2.8837e-07
3581.37	-7.09928e-07
3572.81	-1.12389e-06
3564.25	-1.69683e-06
3555.69	-1.19988e-06
3547.14	-1.66683e-06
3538.58	-4.8555e-07
3530.02	1.69183e-06
3521.46	7.82322e-06
3512.91	1.20488e-05
3504.35	1.17188e-05
3495.79	6.90031e-06
3487.23	2.37376e-06
3478.67	5.69741e-07
3470.12	-1.34186e-07
3461.56	4.28642e-08
3453	1.62082e-07
3444.44	3.55464e-07
3435.89	1.99279e-07
3427.33	8.9499e-08
3418.77	2.26275e-07
3410.21	-3.66345e-08
3401.66	5.68224e-09
3393.1	-2.97568e-07
3384.54	-1.84178e-07
3375.98	1.92678e-07
3367.43	-3.8156e-07
3358.87	7.12427e-07
3350.31	-1.77981e-07
3341.75	-3.66063e-07
3333.2	2.27475e-07
3324.64	6.55623e-08
3316.08	4.62053e-07
3307.52	2.75471e-07
3298.96	6.99729e-07
3290.41	-2.19277e-07
3281.85	3.14968e-07
3273.29	2.59071e-07
3264.73	6.93328e-08
3256.18	5.09048e-07
3247.62	1.68581e-07
3239.06	8.34815e-07
3230.5	8.10817e-07
3221.95	1.52985e-06
3213.39	1.38786e-06
3204.83	2.12479e-06
3196.27	2.49375e-06
3187.72	2.80972e-06
3179.16	2.79472e-06
3170.6	2.22278e-06
3162.04	2.23778e-06
3153.48	2.24878e-06
3144.93	3.36067e-06
3136.37	3.85061e-06
3127.81	3.70263e-06
3119.25	4.92351e-06
3110.7	5.21348e-06
3102.14	6.73033e-06
3093.58	7.84822e-06
3085.02	9.74903e-06
3076.47	1.28187e-05
3067.91	1.74283e-05
3059.35	1.9878e-05
3050.79	2.19878e-05
3042.24	2.47375e-05
3033.68	3.0677e-05
3025.12	4.63554e-05
3016.56	8.99311e-05
3008.01	0.000148185
2999.45	0.000244476
2990.89	0.000260774
2982.33	0.000263974
2973.77	0.000158984
2965.22	0.000129487
2956.66	0.000123188
2948.1	0.000117388
2939.54	9.27408e-05
2930.99	6.41136e-05
2922.43	5.87042e-05
2913.87	6.0204e-05
2905.31	5.26148e-05
2896.76	4.70953e-05
2888.2	4.10459e-05
2879.64	3.32467e-05
2871.08	1.73683e-05
2862.53	1.31787e-05
2853.97	1.13289e-05
2845.41	9.1051e-06
2836.85	7.34627e-06
2828.3	6.44636e-06
2819.74	5.63944e-06
2811.18	4.0316e-06
2802.62	3.33367e-06
2794.06	3.24268e-06
2785.51	3.70363e-06
2776.95	3.56564e-06
2768.39	3.66563e-06
2759.83	3.60064e-06
2751.28	3.24368e-06
2742.72	2.44976e-06
2734.16	2.31577e-06
2725.6	1.9698e-06
2717.05	1.49885e-06
2708.49	1.55784e-06
2699.93	1.78182e-06
2691.37	1.87581e-06
2682.82	1.86681e-06
2674.26	1.50885e-06
2665.7	1.07089e-06
2657.14	5.92139e-07
2648.59	3.32064e-07
2640.03	7.09627e-07
2631.47	1.23988e-06
2622.91	1.68083e-06
2614.35	2.22378e-06
2605.8	2.0278e-06
2597.24	1.35387e-06
2588.68	7.39625e-07
2580.12	3.11367e-07
2571.57	4.64052e-07
2563.01	4.48253e-07
2554.45	5.97139e-07
2545.89	6.18237e-07
2537.34	6.67131e-07
2528.78	3.00268e-07
2520.22	3.20767e-07
2511.66	7.17127e-07
2503.11	1.75782e-06
2494.55	2.81772e-06
2485.99	3.90661e-06
2477.43	4.87051e-06
2468.87	4.36956e-06
2460.32	3.17768e-06
2451.76	2.17478e-06
2443.2	1.31887e-06
2434.64	1.88681e-06
2426.09	1.93281e-06
2417.53	2.08179e-06
2408.97	1.87181e-06
2400.41	1.69583e-06
2391.86	1.70483e-06
2383.3	1.91581e-06
2374.74	1.77682e-06
2366.18	1.55384e-06
2357.63	1.28287e-06
2349.07	1.04389e-06
2340.51	1.67783e-06
2331.95	1.92281e-06
2323.4	2.49175e-06
2314.84	3.0597e-06
2306.28	3.39666e-06
2297.72	2.92571e-06
2289.16	2.24078e-06
2280.61	1.62884e-06
2272.05	1.40286e-06
2263.49	1.20288e-06
2254.93	1.57684e-06
2246.38	1.93781e-06
2237.82	2.36776e-06
2229.26	2.54175e-06
2220.7	2.0108e-06
2212.15	1.77682e-06
2203.59	1.13788e-06
2195.03	1.55784e-06
2186.47	2.11279e-06
2177.92	2.9597e-06
2169.36	2.69173e-06
2160.8	3.49165e-06
2152.24	3.51765e-06
2143.69	2.86671e-06
2135.13	1.75582e-06
2126.57	2.07779e-06
2118.01	3.17268e-06
2109.45	5.89542e-06
2100.9	9.79503e-06
2092.34	1.40086e-05
2083.78	1.30787e-05
2075.22	9.42206e-06
2066.67	5.41046e-06
2058.11	3.59164e-06
2049.55	2.60774e-06
2040.99	3.15168e-06
2032.44	4.74753e-06
2023.88	5.87142e-06
2015.32	6.18339e-06
2006.76	5.23048e-06
1998.21	4.16058e-06
1989.65	3.24768e-06
1981.09	3.31967e-06
1972.53	3.69863e-06
1963.97	3.82762e-06
1955.42	3.66163e-06
1946.86	3.68663e-06
1938.3	3.54065e-06
1929.74	4.23758e-06
1921.19	5.66444e-06
1912.63	9.20009e-06
1904.07	1.23188e-05
1895.51	1.23188e-05
1886.96	1.14189e-05
1878.4	1.0079e-05
1869.84	9.77803e-06
1861.28	1.06589e-05
1852.73	1.22188e-05
1844.17	1.0569e-05
1835.61	1.66184e-05
1827.05	1.56484e-05
1818.5	1.51285e-05
1809.94	1.56984e-05
1801.38	2.45876e-05
1792.82	8.33117e-05
1784.26	0.000312969
1775.71	0.000865914
1767.15	0.00112589
1758.59	0.00120588
1750.03	0.000623838
1741.48	0.000233777
1732.92	8.22818e-05
1724.36	3.90061e-05
1715.8	3.0087e-05
1707.25	2.42376e-05
1698.69	2.11779e-05
1690.13	1.86981e-05
1681.57	1.64084e-05
1673.02	1.41886e-05
1664.46	1.22988e-05
1655.9	1.05789e-05
1647.34	7.83722e-06
1638.79	8.39717e-06
1630.23	8.0292e-06
1621.67	7.31227e-06
1613.11	6.12939e-06
1604.55	5.20848e-06
1596	5.09949e-06
1587.44	5.34547e-06
1578.88	8.65314e-06
1570.32	1.16888e-05
1561.77	1.46086e-05
1553.21	1.38486e-05
1544.65	1.36186e-05
1536.09	1.27387e-05
1527.54	1.38886e-05
1518.98	1.60184e-05
1510.42	2.0178e-05
1501.86	2.84672e-05
1493.31	4.53855e-05
1484.75	5.85442e-05
1476.19	7.44326e-05
1467.63	8.0202e-05
1459.08	8.1022e-05
1450.52	7.77923e-05
1441.96	6.92531e-05
1433.4	6.10139e-05
1424.84	5.30247e-05
1416.29	5.27148e-05
1407.73	7.30728e-05
1399.17	9.18509e-05
1390.61	0.000196181
1382.06	0.000362264
1373.5	0.000354265
1364.94	0.000220578
1356.38	9.52105e-05
1347.83	3.0017e-05
1339.27	1.57084e-05
1330.71	2.07979e-05
1322.15	5.0265e-05
1313.6	8.54015e-05
1305.04	9.70304e-05
1296.48	7.42126e-05
1287.92	6.39136e-05
1279.36	0.000130387
1270.81	0.000256375
1262.25	0.000523648
1253.69	0.00126387
1245.13	0.00193981
1236.58	0.00165384
1228.02	0.000915709
1219.46	0.000335767
1210.9	0.000170383
1202.35	8.0472e-05
1193.79	3.53965e-05
1185.23	2.22678e-05
1176.67	1.94081e-05
1168.12	1.89381e-05
1159.56	1.85882e-05
1151	1.55585e-05
1142.44	1.52885e-05
1133.89	2.29277e-05
1125.33	4.37557e-05
1116.77	7.79723e-05
1108.21	0.000114089
1099.65	0.000123688
1091.1	0.000108389
1082.54	0.000115189
1073.98	0.000192881
1065.42	0.000448655
1056.87	0.000550945
1048.31	0.000459754
1039.75	0.000219078
1031.19	7.44926e-05
1022.64	3.0517e-05
1014.08	2.25378e-05
1005.52	2.54875e-05
996.963	2.54275e-05
988.406	1.84382e-05
979.848	9.71104e-06
971.29	6.29537e-06
962.733	4.78852e-06
954.175	7.93721e-06
945.618	3.40366e-05
937.06	3.50365e-05
928.502	4.37057e-05
919.945	3.72363e-05
911.387	2.85472e-05
902.829	1.37886e-05
894.272	4.80952e-06
885.714	4.25058e-06
877.157	7.95221e-06
868.599	1.67083e-05
860.041	3.51465e-05
851.484	4.15559e-05
842.926	3.94161e-05
834.368	2.48475e-05
825.811	1.23188e-05
817.253	9.37307e-06
808.696	1.15989e-05
800.138	1.76182e-05
791.58	2.65274e-05
783.023	2.41376e-05
774.465	1.81482e-05
765.907	8.74313e-06
757.35	3.89261e-06
748.792	1.35886e-06
740.235	8.9961e-07
731.677	7.33724e-07
723.119	3.7806e-07
714.562	-1.86679e-07
706.004	5.94338e-07
697.446	-2.22775e-07
688.889	6.37735e-07
680.331	7.53523e-07
671.774	8.51913e-07
663.216	1.34587e-06
654.658	2.78872e-06
646.101	2.15179e-05
637.543	4.60154e-05
628.985	4.99051e-05
620.428	3.46366e-05
611.87	2.9927e-05
603.313	2.82472e-05
594.755	1.27887e-05
586.197	5.06049e-06
577.64	-3.51065e-06
