Infrared Spectrum: Ethyl Ester Acetic Acid
Formula: C H3 C O2 C H2 C H3
CAS: 141-78-6
State: gas
Melting point: -83.58 C
Boiling point: 77.06 C
Class: IUPAC A
Instrument: IFS66V (Bruker)
Instrument parameters: KBr Beam splitter; MCT Detector; Multipass cell
Sampling: 1 L/min Flow
Resolution: 1.9290
Temperature: 23 C
Pressure: 101.3 kPa
Origin: NIST, Anayltical Chemistry Division, 301-975-3108
cm-1	(micromol/mol)-1m-1 (base 10)
574.687	4.21967e-07
583.365	3.45604e-06
592.043	1.05111e-05
600.721	1.97557e-05
609.4	3.04835e-05
618.078	2.96347e-05
626.756	5.14471e-05
635.434	4.2583e-05
644.112	2.8993e-05
652.79	4.80109e-06
661.469	1.49109e-06
670.147	7.26741e-07
678.825	4.835e-07
687.503	3.33655e-07
696.181	3.28282e-07
704.859	2.58018e-07
713.537	3.73791e-07
722.216	4.78709e-07
730.894	6.9036e-07
739.572	9.23205e-07
748.25	1.66781e-06
756.928	3.64448e-06
765.606	8.42536e-06
774.285	1.76189e-05
782.963	2.41286e-05
791.641	2.60805e-05
800.319	1.75173e-05
808.997	1.16566e-05
817.675	9.19103e-06
826.353	1.33579e-05
835.032	2.59809e-05
843.71	3.93278e-05
852.388	4.15613e-05
861.066	3.26092e-05
869.744	1.52633e-05
878.422	7.10505e-06
887.101	4.26659e-06
895.779	5.43926e-06
904.457	1.75764e-05
913.135	3.14366e-05
921.813	3.89507e-05
930.491	4.52695e-05
939.169	3.70678e-05
947.848	2.69468e-05
956.526	6.23909e-06
965.204	5.07843e-06
973.882	6.89054e-06
982.56	1.17729e-05
991.238	2.17004e-05
999.917	2.54558e-05
1008.59	2.56667e-05
1017.27	2.3243e-05
1025.95	4.08753e-05
1034.63	0.000117559
1043.31	0.000317624
1051.99	0.000521337
1060.66	0.000529828
1069.34	0.000309636
1078.02	0.00014682
1086.7	0.000104443
1095.38	0.000122596
1104.05	0.000131643
1112.73	0.000108963
1121.41	5.16428e-05
1130.09	3.22082e-05
1138.77	1.6966e-05
1147.45	1.49879e-05
1156.12	1.68026e-05
1164.8	1.8719e-05
1173.48	1.92595e-05
1182.16	2.08382e-05
1190.84	2.88299e-05
1199.51	6.07179e-05
1208.19	0.000137191
1216.87	0.000266275
1225.55	0.000680334
1234.23	0.00151511
1242.9	0.00188746
1251.58	0.0015291
1260.26	0.000690343
1268.94	0.000268946
1277.62	0.000161868
1286.3	6.9033e-05
1294.97	6.99384e-05
1303.65	9.65349e-05
1312.33	8.97196e-05
1321.01	5.67584e-05
1329.69	2.25399e-05
1338.36	1.57812e-05
1347.04	2.73211e-05
1355.72	8.93825e-05
1364.4	0.00020683
1373.08	0.00035464
1381.76	0.000358948
1390.43	0.000201771
1399.11	9.54091e-05
1407.79	7.27356e-05
1416.47	5.26744e-05
1425.15	5.30916e-05
1433.82	6.13815e-05
1442.5	6.97642e-05
1451.18	7.96728e-05
1459.86	8.22408e-05
1468.54	8.11129e-05
1477.22	7.51771e-05
1485.89	5.49076e-05
1494.57	4.27654e-05
1503.25	2.71861e-05
1511.93	1.89741e-05
1520.61	1.4384e-05
1529.28	1.35939e-05
1537.96	1.20327e-05
1546.64	1.3577e-05
1555.32	1.35309e-05
1564	1.3786e-05
1572.67	1.0343e-05
1581.35	7.12184e-06
1590.03	5.28928e-06
1598.71	5.05761e-06
1607.39	5.61364e-06
1616.07	5.46111e-06
1624.74	7.49673e-06
1633.42	8.01342e-06
1642.1	8.86676e-06
1650.78	9.31923e-06
1659.46	1.1489e-05
1668.13	1.27961e-05
1676.81	1.48172e-05
1685.49	1.61489e-05
1694.17	2.02833e-05
1702.85	2.23718e-05
1711.53	2.69758e-05
1720.2	3.1434e-05
1728.88	5.74954e-05
1737.56	0.000145284
1746.24	0.000409678
1754.92	0.00100682
1763.59	0.0010181
1772.27	0.00118732
1780.95	0.000470609
1789.63	0.000144861
1798.31	3.71159e-05
1806.98	1.74179e-05
1815.66	1.49757e-05
1824.34	1.56216e-05
1833.02	1.66673e-05
1841.7	1.5499e-05
1850.38	1.30957e-05
1859.05	1.08495e-05
1867.73	9.92159e-06
1876.41	9.76786e-06
1885.09	1.12882e-05
1893.77	1.21002e-05
1902.44	1.2508e-05
1911.12	1.00244e-05
1919.8	6.1011e-06
1928.48	4.31845e-06
1937.16	3.60689e-06
1945.84	3.58702e-06
1954.51	3.68322e-06
1963.19	3.78918e-06
1971.87	3.63286e-06
1980.55	3.35072e-06
1989.23	3.32558e-06
1997.9	4.13155e-06
2006.58	5.15018e-06
2015.26	6.09248e-06
2023.94	5.75365e-06
2032.62	4.73221e-06
2041.3	3.04386e-06
2049.97	2.79526e-06
2058.65	3.5786e-06
2067.33	5.67136e-06
2076.01	9.9769e-06
2084.69	1.32842e-05
2093.36	1.37866e-05
2102.04	9.08125e-06
2110.72	5.51316e-06
2119.4	2.82414e-06
2128.08	1.91006e-06
2136.75	1.91942e-06
2145.43	2.97367e-06
2154.11	3.47739e-06
2162.79	3.33431e-06
2171.47	2.91435e-06
2180.15	2.71571e-06
2188.82	2.29133e-06
2197.5	1.36759e-06
2206.18	1.35489e-06
2214.86	1.77422e-06
2223.54	2.23896e-06
2232.21	2.57281e-06
2240.89	2.29453e-06
2249.57	1.92418e-06
2258.25	1.41482e-06
2266.93	1.19591e-06
2275.61	1.40283e-06
2284.28	1.91517e-06
2292.96	2.59276e-06
2301.64	3.12038e-06
2310.32	3.18628e-06
2319	2.72444e-06
2327.67	2.11725e-06
2336.35	1.73816e-06
2345.03	1.49702e-06
2353.71	1.17237e-06
2362.39	1.46648e-06
2371.06	1.74077e-06
2379.74	1.75017e-06
2388.42	1.69656e-06
2397.1	1.74458e-06
2405.78	1.86888e-06
2414.46	1.96181e-06
2423.13	2.06409e-06
2431.81	1.8335e-06
2440.49	1.56922e-06
2449.17	1.73121e-06
2457.85	2.82532e-06
2466.52	4.19581e-06
2475.2	4.83377e-06
2483.88	4.37275e-06
2492.56	3.15496e-06
2501.24	1.98128e-06
2509.92	9.2833e-07
2518.59	3.13342e-07
2527.27	1.96787e-07
2535.95	4.23036e-07
2544.63	5.9892e-07
2553.31	5.96657e-07
2561.98	4.06626e-07
2570.66	3.29537e-07
2579.34	3.2997e-07
2588.02	6.31853e-07
2596.7	1.33552e-06
2605.38	2.0688e-06
2614.05	2.23039e-06
2622.73	1.75319e-06
2631.41	1.14414e-06
2640.09	7.20714e-07
2648.77	5.27579e-07
2657.44	6.16207e-07
2666.12	1.0173e-06
2674.8	1.51188e-06
2683.48	1.90087e-06
2692.16	2.12633e-06
2700.83	1.75718e-06
2709.51	1.6547e-06
2718.19	1.66133e-06
2726.87	1.95684e-06
2735.55	2.39941e-06
2744.23	2.6169e-06
2752.9	3.26577e-06
2761.58	3.481e-06
2770.26	3.43885e-06
2778.94	3.51449e-06
2787.62	3.48375e-06
2796.29	3.24144e-06
2804.97	3.41295e-06
2813.65	4.68962e-06
2822.33	5.69871e-06
2831.01	6.66028e-06
2839.69	7.73481e-06
2848.36	9.77246e-06
2857.04	1.20419e-05
2865.72	1.39218e-05
2874.4	2.27924e-05
2883.08	3.5102e-05
2891.75	4.39217e-05
2900.43	4.891e-05
2909.11	5.72771e-05
2917.79	5.82885e-05
2926.47	6.06651e-05
2935.14	7.76094e-05
2943.82	0.00010482
2952.5	0.00011904
2961.18	0.000120476
2969.86	0.00013505
2978.54	0.000207805
2987.21	0.000252754
2995.89	0.000316223
3004.57	0.000177022
3013.25	0.000114651
3021.93	5.84267e-05
3030.6	3.46137e-05
3039.28	2.67045e-05
3047.96	2.23494e-05
3056.64	2.06592e-05
3065.32	1.77672e-05
3074	1.41487e-05
3082.67	1.05342e-05
3091.35	8.22895e-06
3100.03	6.92405e-06
3108.71	5.66687e-06
3117.39	4.60006e-06
3126.06	4.1342e-06
3134.74	4.00124e-06
3143.42	3.24953e-06
3152.1	2.78196e-06
3160.78	2.2741e-06
3169.46	2.29335e-06
3178.13	2.65081e-06
3186.81	2.86084e-06
3195.49	2.631e-06
3204.17	2.27867e-06
3212.85	1.82588e-06
3221.52	1.42751e-06
3230.2	1.12878e-06
3238.88	9.76295e-07
3247.56	6.50952e-07
3256.24	3.5565e-07
3264.91	1.50539e-07
3273.59	9.64563e-08
3282.27	8.29127e-08
3290.95	1.86208e-07
3299.63	1.87903e-07
3308.31	1.66935e-07
3316.98	1.96649e-07
3325.66	1.38931e-07
3334.34	9.93701e-08
3343.02	-4.9907e-08
3351.7	1.43235e-07
3360.37	2.25165e-07
3369.05	2.16435e-07
3377.73	-3.97466e-08
3386.41	-1.15642e-07
3395.09	-1.32976e-07
3403.77	-4.63929e-08
3412.44	4.82991e-08
3421.12	2.2255e-07
3429.8	3.16339e-07
3438.48	3.50728e-07
3447.16	1.93495e-07
3455.83	2.44929e-07
3464.51	8.8042e-08
3473.19	1.6221e-08
3481.87	7.828e-07
3490.55	3.4396e-06
3499.22	9.03402e-06
3507.9	1.09465e-05
3516.58	1.21955e-05
3525.26	4.59033e-06
3533.94	2.5059e-07
3542.62	-1.21498e-06
3551.29	-1.51498e-06
3559.97	-1.45217e-06
3568.65	-1.44924e-06
3577.33	-8.70824e-07
3586.01	-7.70712e-07
3594.68	-4.35219e-07
3603.36	-1.76564e-07
3612.04	-5.4957e-07
3620.72	-6.45855e-07
3629.4	-1.42075e-06
3638.08	-4.49774e-07
3646.75	-8.93415e-07
3655.43	-7.89104e-07
3664.11	-4.48002e-07
3672.79	-5.32803e-07
3681.47	-4.02901e-07
3690.14	-9.00548e-07
3698.82	-3.61736e-07
3707.5	-5.03221e-07
3716.18	-3.89812e-07
3724.86	-5.10507e-07
3733.54	-7.60871e-07
3742.21	-4.60495e-07
3750.89	-1.19293e-06
3759.57	-3.93046e-07
3768.25	-4.30243e-08
3776.93	3.449e-08
3785.6	-6.68009e-08
3794.28	-6.14825e-08
3802.96	-5.03202e-07
3811.64	-2.54792e-08
3820.32	-7.33366e-07
3828.99	-1.36781e-08
3837.67	-1.30803e-06
3846.35	7.33235e-08
3855.03	-1.436e-06
3863.71	-2.18635e-07
3872.39	-3.72438e-08
3881.06	-3.02017e-07
3889.74	-4.68112e-08
3898.42	-1.50609e-07
3907.1	1.13441e-07
3915.78	1.8034e-07
3924.45	1.88715e-07
3933.13	2.66465e-07
3941.81	4.36267e-07
3950.49	6.41792e-07
3959.17	6.81291e-07
3967.85	7.84881e-07
