Infrared Spectrum: Ethyl Ester Acetic Acid
Formula: C H3 C O2 C H2 C H3
CAS: 141-78-6
State: gas
Melting point: -83.58 C
Boiling point: 77.06 C
Class: IUPAC A
Instrument: IFS66V (Bruker)
Instrument parameters: KBr Beam splitter; MCT Detector; Multipass cell
Sampling: 1 L/min Flow
Resolution: 0.9640
Temperature: 23 C
Pressure: 101.3 kPa
Origin: NIST, Anayltical Chemistry Division, 301-975-3108
cm-1	(micromol/mol)-1m-1 (base 10)
575.169	1.85008e-07
583.847	3.89246e-06
592.525	1.12195e-05
601.203	2.05461e-05
609.882	2.972e-05
618.56	3.02379e-05
627.238	5.13851e-05
635.916	4.2891e-05
644.594	2.71753e-05
653.272	4.54603e-06
661.951	1.54986e-06
670.629	9.00756e-07
679.307	4.84799e-07
687.985	4.048e-07
696.663	3.98477e-07
705.341	3.46468e-07
714.019	4.78774e-07
722.698	5.42243e-07
731.376	7.64415e-07
740.054	9.85127e-07
748.732	1.75073e-06
757.41	3.96986e-06
766.088	8.91373e-06
774.767	1.81729e-05
783.445	2.38928e-05
792.123	2.56787e-05
800.801	1.70943e-05
809.479	1.18301e-05
818.157	9.39027e-06
826.835	1.40329e-05
835.514	2.69367e-05
844.192	3.92388e-05
852.87	4.13151e-05
861.548	3.14188e-05
870.226	1.46993e-05
878.904	6.99043e-06
887.583	4.42524e-06
896.261	5.90444e-06
904.939	1.88268e-05
913.617	3.26215e-05
922.295	3.92649e-05
930.973	4.53139e-05
939.651	3.81839e-05
948.33	2.50167e-05
957.008	6.34986e-06
965.686	5.40895e-06
974.364	7.3486e-06
983.042	1.24737e-05
991.72	2.24561e-05
1000.4	2.5756e-05
1009.08	2.59693e-05
1017.75	2.43703e-05
1026.43	4.41172e-05
1035.11	0.000125975
1043.79	0.000330856
1052.47	0.000522699
1061.15	0.000523371
1069.82	0.000292709
1078.5	0.00014383
1087.18	0.000105009
1095.86	0.000124042
1104.54	0.000136231
1113.21	0.000106136
1121.89	5.03326e-05
1130.57	3.1463e-05
1139.25	1.73495e-05
1147.93	1.57085e-05
1156.61	1.75951e-05
1165.28	1.93962e-05
1173.96	2.00943e-05
1182.64	2.22325e-05
1191.32	3.13221e-05
1200	6.57862e-05
1208.67	0.000145214
1217.35	0.000280109
1226.03	0.000722629
1234.71	0.00153826
1243.39	0.00184404
1252.07	0.00145392
1260.74	0.000651366
1269.42	0.000264768
1278.1	0.000154836
1286.78	6.96006e-05
1295.46	7.26326e-05
1304.13	9.85589e-05
1312.81	8.81519e-05
1321.49	5.46317e-05
1330.17	2.26959e-05
1338.85	1.68238e-05
1347.52	3.03569e-05
1356.2	9.43286e-05
1364.88	0.00021882
1373.56	0.000351815
1382.24	0.000360367
1390.92	0.00018988
1399.59	9.38151e-05
1408.27	7.1551e-05
1416.95	5.28072e-05
1425.63	5.38358e-05
1434.31	6.1991e-05
1442.98	7.02953e-05
1451.66	8.07249e-05
1460.34	8.31184e-05
1469.02	8.128e-05
1477.7	7.49199e-05
1486.38	5.35938e-05
1495.05	4.20102e-05
1503.73	2.67237e-05
1512.41	1.8536e-05
1521.09	1.33938e-05
1529.77	1.37556e-05
1538.44	1.19457e-05
1547.12	1.3826e-05
1555.8	1.4065e-05
1564.48	1.35441e-05
1573.16	1.03401e-05
1581.83	7.06703e-06
1590.51	5.41816e-06
1599.19	5.22356e-06
1607.87	5.83019e-06
1616.55	4.15856e-06
1625.23	7.89008e-06
1633.9	8.25451e-06
1642.58	9.09562e-06
1651.26	9.72663e-06
1659.94	1.17819e-05
1668.62	1.31463e-05
1677.29	1.54262e-05
1685.97	1.80294e-05
1694.65	2.0902e-05
1703.33	2.32583e-05
1712.01	2.81583e-05
1720.69	3.30022e-05
1729.36	6.1582e-05
1738.04	0.000156613
1746.72	0.00043322
1755.4	0.0010359
1764.08	0.00100324
1772.75	0.00113566
1781.43	0.000444904
1790.11	0.000136652
1798.79	3.7042e-05
1807.47	1.83885e-05
1816.15	1.58608e-05
1824.82	1.60612e-05
1833.5	1.70695e-05
1842.18	1.56769e-05
1850.86	1.32309e-05
1859.54	1.10123e-05
1868.21	1.01246e-05
1876.89	1.00138e-05
1885.57	1.14549e-05
1894.25	1.22682e-05
1902.93	1.24911e-05
1911.6	9.87265e-06
1920.28	6.06567e-06
1928.96	4.36026e-06
1937.64	3.69216e-06
1946.32	3.65172e-06
1955	3.79494e-06
1963.67	3.84965e-06
1972.35	3.71292e-06
1981.03	3.38601e-06
1989.71	3.4294e-06
1998.39	4.26848e-06
2007.06	5.25092e-06
2015.74	6.13852e-06
2024.42	5.75427e-06
2033.1	4.67058e-06
2041.78	3.05335e-06
2050.46	2.88207e-06
2059.13	3.71536e-06
2067.81	5.89145e-06
2076.49	1.02723e-05
2085.17	1.33785e-05
2093.85	1.3571e-05
2102.52	8.84917e-06
2111.2	5.3261e-06
2119.88	2.73139e-06
2128.56	1.97022e-06
2137.24	2.00626e-06
2145.91	3.05415e-06
2154.59	3.43219e-06
2163.27	3.35662e-06
2171.95	2.93586e-06
2180.63	2.78542e-06
2189.31	2.28927e-06
2197.98	1.3711e-06
2206.66	1.38408e-06
2215.34	1.81734e-06
2224.02	2.26788e-06
2232.7	2.5947e-06
2241.37	2.30278e-06
2250.05	1.92174e-06
2258.73	1.41863e-06
2267.41	1.21641e-06
2276.09	1.46566e-06
2284.77	1.97672e-06
2293.44	2.64924e-06
2302.12	3.13331e-06
2310.8	3.15058e-06
2319.48	2.70795e-06
2328.16	2.09439e-06
2336.83	1.74247e-06
2345.51	1.50068e-06
2354.19	1.20111e-06
2362.87	1.49844e-06
2371.55	1.74271e-06
2380.23	1.74694e-06
2388.9	1.71357e-06
2397.58	1.7673e-06
2406.26	1.90077e-06
2414.94	1.98345e-06
2423.62	2.07028e-06
2432.29	1.83804e-06
2440.97	1.5807e-06
2449.65	1.79482e-06
2458.33	2.90136e-06
2467.01	4.28612e-06
2475.68	4.84127e-06
2484.36	4.3148e-06
2493.04	3.11478e-06
2501.72	1.95458e-06
2510.4	9.28159e-07
2519.08	3.28988e-07
2527.75	2.5382e-07
2536.43	4.57264e-07
2545.11	6.06494e-07
2553.79	6.23694e-07
2562.47	4.68047e-07
2571.14	3.52801e-07
2579.82	3.49367e-07
2588.5	6.8503e-07
2597.18	1.41967e-06
2605.86	2.1162e-06
2614.54	2.25759e-06
2623.21	1.69804e-06
2631.89	1.11817e-06
2640.57	7.49798e-07
2649.25	5.25051e-07
2657.93	6.73113e-07
2666.6	1.04845e-06
2675.28	1.55201e-06
2683.96	1.9018e-06
2692.64	2.14734e-06
2701.32	1.74225e-06
2709.99	1.67619e-06
2718.67	1.65389e-06
2727.35	2.01342e-06
2736.03	2.45815e-06
2744.71	2.69423e-06
2753.39	3.26559e-06
2762.06	3.49246e-06
2770.74	3.50594e-06
2779.42	3.55999e-06
2788.1	3.54035e-06
2796.78	3.25035e-06
2805.45	3.5389e-06
2814.13	4.83042e-06
2822.81	5.78167e-06
2831.49	6.78867e-06
2840.17	7.90407e-06
2848.85	9.98663e-06
2857.52	1.22155e-05
2866.2	1.42438e-05
2874.88	2.37653e-05
2883.56	3.52068e-05
2892.24	4.44122e-05
2900.91	4.93888e-05
2909.59	5.78533e-05
2918.27	5.77557e-05
2926.95	6.09629e-05
2935.63	7.96908e-05
2944.31	0.000106393
2952.98	0.000118574
2961.66	0.000120845
2970.34	0.00013693
2979.02	0.000211982
2987.7	0.000252849
2996.37	0.000299706
3005.05	0.000171408
3013.73	0.000111178
3022.41	5.66931e-05
3031.09	3.42671e-05
3039.76	2.6635e-05
3048.44	2.23579e-05
3057.12	2.07087e-05
3065.8	1.7678e-05
3074.48	1.40371e-05
3083.16	1.04462e-05
3091.83	8.18381e-06
3100.51	6.92618e-06
3109.19	5.63406e-06
3117.87	4.58491e-06
3126.55	4.18778e-06
3135.22	4.00674e-06
3143.9	3.24285e-06
3152.58	2.78262e-06
3161.26	2.27602e-06
3169.94	2.33475e-06
3178.62	2.696e-06
3187.29	2.91627e-06
3195.97	2.65685e-06
3204.65	2.25771e-06
3213.33	1.8458e-06
3222.01	1.46165e-06
3230.68	1.16742e-06
3239.36	1.03359e-06
3248.04	5.93907e-07
3256.72	3.29315e-07
3265.4	1.21794e-07
3274.07	6.76631e-08
3282.75	1.25875e-07
3291.43	1.9559e-07
3300.11	2.11313e-07
3308.79	1.64243e-07
3317.47	1.89817e-07
3326.14	1.37793e-07
3334.82	5.10747e-08
3343.5	-1.17403e-07
3352.18	1.87954e-07
3360.86	2.76771e-07
3369.53	2.24274e-07
3378.21	-2.76982e-08
3386.89	-3.13542e-08
3395.57	-9.07813e-08
3404.25	2.40677e-08
3412.93	1.12412e-07
3421.6	2.73526e-07
3430.28	3.68385e-07
3438.96	3.40254e-07
3447.64	1.52173e-07
3456.32	2.29833e-07
3464.99	4.0878e-08
3473.67	5.14967e-08
3482.35	8.84029e-07
3491.03	3.76325e-06
3499.71	9.38423e-06
3508.39	1.0752e-05
3517.06	1.18524e-05
3525.74	4.18327e-06
3534.42	1.6998e-07
3543.1	-1.27764e-06
3551.78	-1.50502e-06
3560.45	-1.43153e-06
3569.13	-1.24832e-06
3577.81	-8.1916e-07
3586.49	-1.06674e-06
3595.17	-5.1234e-07
3603.84	-1.02771e-07
3612.52	-9.36028e-07
3621.2	-4.88276e-07
3629.88	-1.63995e-06
3638.56	-4.68923e-07
3647.24	-1.20098e-06
3655.91	-1.17984e-06
3664.59	-4.9656e-07
3673.27	-5.02213e-07
3681.95	-3.84337e-07
3690.63	-7.23569e-07
3699.3	-3.65111e-07
3707.98	-5.02864e-07
3716.66	-3.91802e-07
3725.34	-5.87839e-07
3734.02	-5.65172e-07
3742.7	-3.59316e-07
3751.37	-6.42184e-07
3760.05	-6.38379e-07
3768.73	-1.43511e-08
3777.41	7.11554e-09
3786.09	-2.79019e-09
3794.76	-7.19266e-08
3803.44	-2.5521e-07
3812.12	-4.59309e-08
3820.8	-1.14205e-06
3829.48	-4.78807e-08
3838.16	-2.15783e-06
3846.83	6.09513e-08
3855.51	-1.09214e-07
3864.19	-1.73683e-07
3872.87	-1.16482e-08
3881.55	-1.04714e-07
3890.22	2.57593e-08
3898.9	-3.07754e-07
3907.58	1.23663e-07
3916.26	1.85761e-07
3924.94	1.18487e-07
3933.61	3.91795e-07
3942.29	3.48869e-07
3950.97	7.77303e-07
3959.65	6.32581e-07
3968.33	8.30073e-07
