Infrared Spectrum: Ethyl Ester Acetic Acid
Formula: C H3 C O2 C H2 C H3
CAS: 141-78-6
State: gas
Melting point: -83.58 C
Boiling point: 77.06 C
Class: IUPAC A
Instrument: IFS66V (Bruker)
Instrument parameters: KBr Beam splitter; MCT Detector; Multipass cell
Sampling: 1 L/min Flow
Resolution: 0.2410
Temperature: 23 C
Pressure: 101.3 kPa
Origin: NIST, Anayltical Chemistry Division, 301-975-3108
cm-1	(micromol/mol)-1m-1 (base 10)
575.048	-3.18708e-08
583.606	3.59043e-06
592.163	9.88949e-06
600.721	1.92318e-05
609.279	3.02921e-05
617.836	2.95472e-05
626.394	5.11808e-05
634.951	4.16375e-05
643.509	3.04809e-05
652.067	5.88377e-06
660.624	1.49264e-06
669.182	1.05995e-06
677.74	1.91068e-07
686.297	7.50264e-07
694.855	-2.13575e-07
703.412	7.06755e-07
711.97	2.29756e-07
720.528	4.32014e-07
729.085	6.33101e-07
737.643	5.72979e-07
746.201	1.28862e-06
754.758	2.90855e-06
763.316	7.14792e-06
771.873	1.47206e-05
780.431	2.45487e-05
788.989	2.65982e-05
797.546	2.0543e-05
806.104	1.28918e-05
814.662	9.15205e-06
823.219	1.09679e-05
831.777	2.00437e-05
840.334	3.68186e-05
848.892	4.11636e-05
857.45	3.91144e-05
866.007	2.16993e-05
874.565	9.83352e-06
883.123	5.06977e-06
891.68	4.46541e-06
900.238	9.48801e-06
908.795	2.61981e-05
917.353	3.37696e-05
925.911	4.11411e-05
934.468	4.14224e-05
943.026	3.25576e-05
951.584	1.28814e-05
960.141	5.26737e-06
968.699	5.50684e-06
977.256	8.24677e-06
985.814	1.4823e-05
994.372	2.45359e-05
1002.93	2.56275e-05
1011.49	2.41771e-05
1020.04	2.6067e-05
1028.6	5.45891e-05
1037.16	0.000160883
1045.72	0.000387863
1054.28	0.000537393
1062.83	0.000507624
1071.39	0.000244991
1079.95	0.000131146
1088.51	0.000104165
1097.06	0.000128326
1105.62	0.000120506
1114.18	9.9674e-05
1122.74	4.68295e-05
1131.29	2.86335e-05
1139.85	1.62986e-05
1148.41	1.51719e-05
1156.97	1.72742e-05
1165.52	1.84778e-05
1174.08	1.92482e-05
1182.64	2.10704e-05
1191.2	2.93729e-05
1199.75	6.19167e-05
1208.31	0.000138438
1216.87	0.00026433
1225.43	0.000666845
1233.99	0.00150396
1242.54	0.00186892
1251.1	0.00159616
1259.66	0.000741698
1268.22	0.000275993
1276.77	0.000177987
1285.33	7.28235e-05
1293.89	6.70887e-05
1302.45	9.28361e-05
1311	9.524e-05
1319.56	6.50301e-05
1328.12	2.58168e-05
1336.68	1.56298e-05
1345.23	2.1837e-05
1353.79	7.26968e-05
1362.35	0.000173017
1370.91	0.000351087
1379.46	0.000337255
1388.02	0.000268422
1396.58	0.000113723
1405.14	8.0642e-05
1413.7	5.62995e-05
1422.25	5.23865e-05
1430.81	5.84777e-05
1439.37	6.64344e-05
1447.93	7.195e-05
1456.48	7.63663e-05
1465.04	8.02834e-05
1473.6	7.35464e-05
1482.16	6.72302e-05
1490.71	4.65333e-05
1499.27	3.3538e-05
1507.83	2.17398e-05
1516.39	1.64347e-05
1524.94	1.4251e-05
1533.5	1.27222e-05
1542.06	9.25974e-06
1550.62	1.38336e-05
1559.18	1.44241e-05
1567.73	1.20255e-05
1576.29	3.83504e-06
1584.85	5.87838e-06
1593.41	5.1597e-06
1601.96	5.30327e-06
1610.52	5.90955e-06
1619.08	7.11483e-06
1627.64	7.66509e-06
1636.19	7.95892e-06
1644.75	9.12573e-06
1653.31	1.80871e-08
1661.87	1.20652e-05
1670.42	1.35798e-05
1678.98	1.55831e-05
1687.54	1.86097e-05
1696.1	1.79653e-05
1704.65	2.28303e-05
1713.21	2.8243e-05
1721.77	3.2779e-05
1730.33	6.41728e-05
1738.89	0.000170356
1747.44	0.000467596
1756	0.00109104
1764.56	0.000997926
1773.12	0.00111882
1781.67	0.000429544
1790.23	0.000130428
1798.79	3.45532e-05
1807.35	1.71362e-05
1815.9	1.49147e-05
1824.46	1.57705e-05
1833.02	1.66466e-05
1841.58	1.56325e-05
1850.13	1.32508e-05
1858.69	1.08534e-05
1867.25	1.01299e-05
1875.81	9.67746e-06
1884.36	1.11905e-05
1892.92	1.20807e-05
1901.48	1.26094e-05
1910.04	1.03349e-05
1918.6	6.59479e-06
1927.15	4.48684e-06
1935.71	3.65114e-06
1944.27	3.48818e-06
1952.83	3.69876e-06
1961.38	3.82251e-06
1969.94	3.63345e-06
1978.5	3.48095e-06
1987.06	3.31032e-06
1995.61	3.86146e-06
2004.17	5.01167e-06
2012.73	6.02368e-06
2021.29	5.88519e-06
2029.84	5.31214e-06
2038.4	3.37242e-06
2046.96	2.71042e-06
2055.52	3.2265e-06
2064.08	4.6933e-06
2072.63	8.15073e-06
2081.19	1.2121e-05
2089.75	1.41229e-05
2098.31	1.11547e-05
2106.86	7.07016e-06
2115.42	3.90885e-06
2123.98	2.21207e-06
2132.54	1.80672e-06
2141.09	2.29823e-06
2149.65	3.3054e-06
2158.21	3.23556e-06
2166.77	3.2025e-06
2175.32	2.83492e-06
2183.88	2.57934e-06
2192.44	1.96912e-06
2201	1.3107e-06
2209.55	1.60672e-06
2218.11	2.0417e-06
2226.67	2.57176e-06
2235.23	2.61595e-06
2243.79	2.17026e-06
2252.34	1.67636e-06
2260.9	1.23252e-06
2269.46	1.28043e-06
2278.02	1.44522e-06
2286.57	2.06403e-06
2295.13	2.66709e-06
2303.69	3.23885e-06
2312.25	2.90625e-06
2320.8	2.66952e-06
2329.36	2.09268e-06
2337.92	1.55511e-06
2346.48	1.45601e-06
2355.03	1.10621e-06
2363.59	1.45457e-06
2372.15	1.79734e-06
2380.71	1.78188e-06
2389.26	1.66692e-06
2397.82	1.66036e-06
2406.38	1.85016e-06
2414.94	2.06047e-06
2423.5	2.04409e-06
2432.05	1.77659e-06
2440.61	1.49219e-06
2449.17	1.6996e-06
2457.73	2.63838e-06
2466.28	4.05252e-06
2474.84	4.94512e-06
2483.4	4.37224e-06
2491.96	3.21299e-06
2500.51	1.90724e-06
2509.07	9.46068e-07
2517.63	3.06656e-07
2526.19	2.53802e-07
2534.74	2.62475e-07
2543.3	3.88855e-07
2551.86	7.06715e-07
2560.42	4.28267e-07
2568.98	3.44121e-07
2577.53	3.45384e-07
2586.09	4.4909e-07
2594.65	1.21992e-06
2603.21	1.7609e-06
2611.76	2.45098e-06
2620.32	1.96557e-06
2628.88	1.25224e-06
2637.44	9.10851e-07
2645.99	5.55536e-07
2654.55	5.78996e-07
2663.11	9.23754e-07
2671.67	1.42148e-06
2680.22	1.63937e-06
2688.78	2.03794e-06
2697.34	1.83292e-06
2705.9	1.95585e-06
2714.45	1.50393e-06
2723.01	1.81879e-06
2731.57	2.09085e-06
2740.13	2.3253e-06
2748.69	3.14144e-06
2757.24	3.20265e-06
2765.8	3.43792e-06
2774.36	3.56135e-06
2782.92	3.61835e-06
2791.47	3.65405e-06
2800.03	3.05227e-06
2808.59	3.89613e-06
2817.15	5.18031e-06
2825.7	6.20513e-06
2834.26	7.03309e-06
2842.82	8.57781e-06
2851.38	1.0597e-05
2859.93	1.26018e-05
2868.49	1.54473e-05
2877.05	2.80296e-05
2885.61	3.70011e-05
2894.16	4.61003e-05
2902.72	5.06839e-05
2911.28	5.95352e-05
2919.84	5.68367e-05
2928.4	6.11945e-05
2936.95	8.54113e-05
2945.51	0.000108323
2954.07	0.000118668
2962.63	0.000121106
2971.18	0.000139942
2979.74	0.000220177
2988.3	0.00025607
2996.86	0.0002859
3005.41	0.000167831
3013.97	0.000109519
3022.53	5.55001e-05
3031.09	3.39053e-05
3039.64	2.64598e-05
3048.2	2.22163e-05
3056.76	2.07111e-05
3065.32	1.78611e-05
3073.88	1.41922e-05
3082.43	1.0624e-05
3090.99	8.2526e-06
3099.55	7.45896e-06
3108.11	5.74412e-06
3116.66	4.75603e-06
3125.22	4.21594e-06
3133.78	4.27009e-06
3142.34	3.4775e-06
3150.89	2.85217e-06
3159.45	2.37199e-06
3168.01	2.28003e-06
3176.57	2.46967e-06
3185.12	2.58094e-06
3193.68	2.67525e-06
3202.24	2.18051e-06
3210.8	2.04445e-06
3219.35	1.69753e-06
3227.91	1.28931e-06
3236.47	1.08687e-06
3245.03	7.44898e-07
3253.59	5.5101e-07
3262.14	3.19326e-07
3270.7	8.515e-08
3279.26	-1.36709e-08
3287.82	2.8436e-07
3296.37	7.34072e-08
3304.93	7.0446e-08
3313.49	2.63282e-07
3322.05	-1.0562e-07
3330.6	-1.10767e-07
3339.16	-4.47922e-07
3347.72	-2.0889e-07
3356.28	3.84963e-07
3364.83	3.56795e-07
3373.39	4.14978e-07
3381.95	-1.22248e-07
3390.51	3.31585e-07
3399.06	-1.97547e-07
3407.62	-4.64365e-08
3416.18	2.58968e-07
3424.74	4.59993e-07
3433.3	1.6763e-08
3441.85	1.95223e-07
3450.41	3.40829e-07
3458.97	5.76569e-07
3467.53	-1.71413e-07
3476.08	2.98183e-07
3484.64	1.42985e-06
3493.2	4.69307e-06
3501.76	1.07342e-05
3510.31	1.03973e-05
3518.87	1.05252e-05
3527.43	3.15127e-06
3535.99	-1.35366e-07
3544.54	-1.42739e-06
3553.1	-1.46711e-06
3561.66	-1.37642e-06
3570.22	-1.18626e-06
3578.78	-9.50521e-07
3587.33	-6.01503e-07
3595.89	-1.53748e-07
3604.45	-3.21556e-07
3613.01	-5.82743e-07
3621.56	-5.0644e-07
3630.12	-4.67526e-07
3638.68	-3.91875e-07
3647.24	-1.31462e-06
3655.79	-5.21711e-07
3664.35	-2.57669e-07
3672.91	-5.45936e-07
3681.47	-5.45488e-07
3690.02	-4.22167e-07
3698.58	-4.1428e-07
3707.14	-6.30394e-07
3715.7	-2.87684e-07
3724.25	-2.63613e-07
3732.81	-3.50695e-07
3741.37	-1.16921e-06
3749.93	-6.13741e-07
3758.49	-1.25821e-07
3767.04	1.9356e-07
3775.6	1.23129e-07
3784.16	-2.91049e-07
3792.72	3.48217e-07
3801.27	-2.93915e-06
3809.83	3.48247e-08
3818.39	9.38552e-08
3826.95	-3.3495e-07
3835.5	8.08137e-08
3844.06	-8.07628e-08
3852.62	-5.49162e-07
3861.18	1.756e-07
3869.73	-1.9125e-07
3878.29	1.74716e-07
3886.85	2.45381e-07
3895.41	4.36081e-07
3903.96	-4.11522e-07
3912.52	7.587e-08
3921.08	-5.82339e-08
3929.64	1.47025e-07
3938.2	3.03571e-07
3946.75	3.87415e-07
3955.31	4.03094e-07
3963.87	5.54561e-07
3972.43	8.91472e-07
