Infrared Spectrum: Ethyl Ester Acetic Acid
Formula: C H3 C O2 C H2 C H3
CAS: 141-78-6
State: gas
Melting point: -83.58 C
Boiling point: 77.06 C
Class: IUPAC A
Instrument: IFS66V (Bruker)
Instrument parameters: KBr Beam splitter; MCT Detector; Multipass cell
Sampling: 1 L/min Flow
Resolution: 1.9290
Temperature: 23 C
Pressure: 101.3 kPa
Origin: NIST, Anayltical Chemistry Division, 301-975-3108
cm-1	(micromol/mol)-1m-1 (base 10)
574.687	5.25038e-07
583.365	3.64276e-06
592.043	1.0601e-05
600.721	1.98695e-05
609.4	3.01678e-05
618.078	2.97848e-05
626.756	5.048e-05
635.434	4.21485e-05
644.112	2.86815e-05
652.79	5.26986e-06
661.469	1.76338e-06
670.147	9.09657e-07
678.825	6.24238e-07
687.503	4.61783e-07
696.181	4.65824e-07
704.859	3.85042e-07
713.537	4.99335e-07
722.216	5.90266e-07
730.894	8.2528e-07
739.572	1.06761e-06
748.25	1.83502e-06
756.928	3.85726e-06
765.606	8.59439e-06
774.285	1.75584e-05
782.963	2.40078e-05
791.641	2.57933e-05
800.319	1.75905e-05
808.997	1.19175e-05
817.675	9.5318e-06
826.353	1.36889e-05
835.032	2.60123e-05
843.71	3.90087e-05
852.388	4.11467e-05
861.066	3.23936e-05
869.744	1.55657e-05
878.422	7.51639e-06
887.101	4.71633e-06
895.779	5.95723e-06
904.457	1.77966e-05
913.135	3.11641e-05
921.813	3.87943e-05
930.491	4.48454e-05
939.169	3.75528e-05
947.848	2.68839e-05
956.526	6.97276e-06
965.204	5.67898e-06
973.882	7.49069e-06
982.56	1.23754e-05
991.238	2.21151e-05
999.917	2.60179e-05
1008.59	2.65584e-05
1017.27	2.49774e-05
1025.95	4.34907e-05
1034.63	0.000120199
1043.31	0.000315687
1051.99	0.000513353
1060.66	0.00052169
1069.34	0.000309044
1078.02	0.000149443
1086.7	0.000106621
1095.38	0.000122726
1104.05	0.000132024
1112.73	0.000108401
1121.41	5.30634e-05
1130.09	3.33874e-05
1138.77	1.83772e-05
1147.45	1.62939e-05
1156.12	1.80926e-05
1164.8	2.0157e-05
1173.48	2.09964e-05
1182.16	2.31618e-05
1190.84	3.20857e-05
1199.51	6.49966e-05
1208.19	0.000142422
1216.87	0.000274455
1225.55	0.000684945
1234.23	0.00149553
1242.9	0.00184921
1251.58	0.00150897
1260.26	0.000694182
1268.94	0.00027679
1277.62	0.000166591
1286.3	7.41286e-05
1294.97	7.29568e-05
1303.65	9.76157e-05
1312.33	9.02115e-05
1321.01	5.80338e-05
1329.69	2.46704e-05
1338.36	1.80134e-05
1347.04	2.99628e-05
1355.72	9.11602e-05
1364.4	0.000206669
1373.08	0.000349144
1381.76	0.000353685
1390.43	0.000201969
1399.11	9.73669e-05
1407.79	7.38087e-05
1416.47	5.38763e-05
1425.15	5.39295e-05
1433.82	6.18012e-05
1442.5	7.00048e-05
1451.18	7.93502e-05
1459.86	8.21598e-05
1468.54	8.07546e-05
1477.22	7.49194e-05
1485.89	5.51234e-05
1494.57	4.30361e-05
1503.25	2.7617e-05
1511.93	1.93486e-05
1520.61	1.4738e-05
1529.28	1.39308e-05
1537.96	1.25145e-05
1546.64	1.38687e-05
1555.32	1.37627e-05
1564	1.39315e-05
1572.67	1.05187e-05
1581.35	7.41899e-06
1590.03	5.61932e-06
1598.71	5.37151e-06
1607.39	5.92155e-06
1616.07	5.75296e-06
1624.74	7.8544e-06
1633.42	8.42312e-06
1642.1	9.20884e-06
1650.78	9.87772e-06
1659.46	1.18937e-05
1668.13	1.33721e-05
1676.81	1.55313e-05
1685.49	1.68532e-05
1694.17	2.13628e-05
1702.85	2.35574e-05
1711.53	2.85668e-05
1720.2	3.40295e-05
1728.88	6.14387e-05
1737.56	0.000150721
1746.24	0.000412969
1754.92	0.000990196
1763.59	0.00101244
1772.27	0.00116155
1780.95	0.000473237
1789.63	0.000151129
1798.31	4.19503e-05
1806.98	2.02518e-05
1815.66	1.67539e-05
1824.34	1.68279e-05
1833.02	1.74649e-05
1841.7	1.612e-05
1850.38	1.36485e-05
1859.05	1.13546e-05
1867.73	1.03785e-05
1876.41	1.01445e-05
1885.09	1.15544e-05
1893.77	1.23194e-05
1902.44	1.26419e-05
1911.12	1.01836e-05
1919.8	6.36209e-06
1928.48	4.54388e-06
1937.16	3.81275e-06
1945.84	3.75511e-06
1954.51	3.83951e-06
1963.19	3.92578e-06
1971.87	3.76435e-06
1980.55	3.48396e-06
1989.23	3.45893e-06
1997.9	4.24566e-06
2006.58	5.23726e-06
2015.26	6.1376e-06
2023.94	5.82192e-06
2032.62	4.80698e-06
2041.3	3.16655e-06
2049.97	2.92546e-06
2058.65	3.70666e-06
2067.33	5.7839e-06
2076.01	9.96811e-06
2084.69	1.32057e-05
2093.36	1.36555e-05
2102.04	9.10548e-06
2110.72	5.58543e-06
2119.4	2.92893e-06
2128.08	2.01166e-06
2136.75	2.01834e-06
2145.43	3.02511e-06
2154.11	3.50212e-06
2162.79	3.36672e-06
2171.47	2.97409e-06
2180.15	2.74132e-06
2188.82	2.34017e-06
2197.5	1.44242e-06
2206.18	1.41073e-06
2214.86	1.82418e-06
2223.54	2.27193e-06
2232.21	2.5999e-06
2240.89	2.33053e-06
2249.57	1.95778e-06
2258.25	1.46277e-06
2266.93	1.25209e-06
2275.61	1.45285e-06
2284.28	1.95907e-06
2292.96	2.61366e-06
2301.64	3.12911e-06
2310.32	3.1901e-06
2319	2.74122e-06
2327.67	2.14765e-06
2336.35	1.77688e-06
2345.03	1.53775e-06
2353.71	1.22322e-06
2362.39	1.50382e-06
2371.06	1.76514e-06
2379.74	1.77973e-06
2388.42	1.72639e-06
2397.1	1.7746e-06
2405.78	1.89359e-06
2414.46	1.98554e-06
2423.13	2.08177e-06
2431.81	1.86348e-06
2440.49	1.61602e-06
2449.17	1.78562e-06
2457.85	2.85197e-06
2466.52	4.18412e-06
2475.2	4.8176e-06
2483.88	4.35771e-06
2492.56	3.17271e-06
2501.24	2.01005e-06
2509.92	9.74286e-07
2518.59	3.68758e-07
2527.27	2.49193e-07
2535.95	4.61684e-07
2544.63	6.31117e-07
2553.31	6.27452e-07
2561.98	4.47156e-07
2570.66	3.69764e-07
2579.34	3.71956e-07
2588.02	6.72053e-07
2596.7	1.36135e-06
2605.38	2.08359e-06
2614.05	2.23968e-06
2622.73	1.77104e-06
2631.41	1.1794e-06
2640.09	7.70518e-07
2648.77	5.80899e-07
2657.44	6.68672e-07
2666.12	1.05934e-06
2674.8	1.54977e-06
2683.48	1.92737e-06
2692.16	2.14693e-06
2700.83	1.80661e-06
2709.51	1.70651e-06
2718.19	1.71549e-06
2726.87	2.00923e-06
2735.55	2.44233e-06
2744.23	2.67502e-06
2752.9	3.30233e-06
2761.58	3.53362e-06
2770.26	3.49157e-06
2778.94	3.58172e-06
2787.62	3.55515e-06
2796.29	3.33749e-06
2804.97	3.53516e-06
2813.65	4.79139e-06
2822.33	5.7976e-06
2831.01	6.7863e-06
2839.69	7.88955e-06
2848.36	9.9349e-06
2857.04	1.22373e-05
2865.72	1.42397e-05
2874.4	2.30081e-05
2883.08	3.51101e-05
2891.75	4.3877e-05
2900.43	4.89448e-05
2909.11	5.71849e-05
2917.79	5.8406e-05
2926.47	6.10601e-05
2935.14	7.77938e-05
2943.82	0.000104702
2952.5	0.000118631
2961.18	0.000120752
2969.86	0.000135808
2978.54	0.000206457
2987.21	0.000250561
2995.89	0.000312289
3004.57	0.000176539
3013.25	0.000114677
3021.93	5.93942e-05
3030.6	3.54758e-05
3039.28	2.7249e-05
3047.96	2.27407e-05
3056.64	2.08873e-05
3065.32	1.79584e-05
3074	1.43174e-05
3082.67	1.07301e-05
3091.35	8.39402e-06
3100.03	7.06692e-06
3108.71	5.7996e-06
3117.39	4.72016e-06
3126.06	4.25222e-06
3134.74	4.08863e-06
3143.42	3.33932e-06
3152.1	2.88582e-06
3160.78	2.36526e-06
3169.46	2.36164e-06
3178.13	2.7052e-06
3186.81	2.90893e-06
3195.49	2.67653e-06
3204.17	2.33063e-06
3212.85	1.86461e-06
3221.52	1.46667e-06
3230.2	1.17444e-06
3238.88	1.01605e-06
3247.56	6.97062e-07
3256.24	3.97251e-07
3264.91	1.8648e-07
3273.59	1.44618e-07
3282.27	1.1244e-07
3290.95	2.22987e-07
3299.63	2.29319e-07
3308.31	1.88779e-07
3316.98	2.22409e-07
3325.66	1.66708e-07
3334.34	1.1546e-07
3343.02	-9.03487e-09
3351.7	1.76081e-07
3360.37	2.46243e-07
3369.05	2.47645e-07
3377.73	-4.52017e-09
3386.41	-7.19243e-08
3395.09	-9.68789e-08
3403.77	-1.54777e-08
3412.44	7.32449e-08
3421.12	2.45379e-07
3429.8	3.46839e-07
3438.48	3.74201e-07
3447.16	2.02496e-07
3455.83	2.82355e-07
3464.51	1.23438e-07
3473.19	7.1977e-08
3481.87	8.72348e-07
3490.55	3.50121e-06
3499.22	8.93706e-06
3507.9	1.0836e-05
3516.58	1.19405e-05
3525.26	4.62708e-06
3533.94	3.44759e-07
3542.62	-1.13282e-06
3551.29	-1.43536e-06
3559.97	-1.4106e-06
3568.65	-1.41494e-06
3577.33	-8.50337e-07
3586.01	-7.81052e-07
3594.68	-4.07386e-07
3603.36	-1.65416e-07
3612.04	-5.87287e-07
3620.72	-5.83067e-07
3629.4	-1.43851e-06
3638.08	-4.55613e-07
3646.75	-9.17275e-07
3655.43	-7.47641e-07
3664.11	-4.59269e-07
3672.79	-4.45923e-07
3681.47	-4.03848e-07
3690.14	-6.6823e-07
3698.82	-3.62854e-07
3707.5	-4.61604e-07
3716.18	-3.7788e-07
3724.86	-4.94622e-07
3733.54	-6.04043e-07
3742.21	-4.38527e-07
3750.89	-7.67058e-07
3759.57	-4.41848e-07
3768.25	2.00961e-08
3776.93	3.65633e-08
3785.6	-4.06015e-08
3794.28	-4.68242e-08
3802.96	-3.31682e-07
3811.64	-5.08478e-08
3820.32	-6.86194e-07
3828.99	-2.25772e-08
3837.67	-1.50613e-06
3846.35	5.42966e-08
3855.03	-1.36713e-06
3863.71	-1.21199e-07
3872.39	1.17324e-08
3881.06	-2.99819e-07
3889.74	4.6635e-08
3898.42	-1.18525e-07
3907.1	1.13943e-07
3915.78	2.29988e-07
3924.45	1.97536e-07
3933.13	2.88861e-07
3941.81	4.73968e-07
3950.49	6.77759e-07
3959.17	6.92791e-07
3967.85	8.09348e-07
