Infrared Spectrum: Ethyl Ester Acetic Acid
Formula: C H3 C O2 C H2 C H3
CAS: 141-78-6
State: gas
Melting point: -83.58 C
Boiling point: 77.06 C
Class: IUPAC A
Instrument: IFS66V (Bruker)
Instrument parameters: KBr Beam splitter; MCT Detector; Multipass cell
Sampling: 1 L/min Flow
Resolution: 0.4820
Temperature: 23 C
Pressure: 101.3 kPa
Origin: NIST, Anayltical Chemistry Division, 301-975-3108
cm-1	(micromol/mol)-1m-1 (base 10)
574.928	-1.52897e-07
583.606	3.49696e-06
592.284	1.0589e-05
600.962	2.00691e-05
609.641	3.01252e-05
618.319	2.97822e-05
626.997	5.19486e-05
635.675	4.29288e-05
644.353	2.80725e-05
653.031	4.46279e-06
661.71	1.4333e-06
670.388	7.78995e-07
679.066	3.9425e-07
687.744	3.79102e-07
696.422	4.5901e-07
705.1	2.99187e-07
713.778	3.85385e-07
722.457	4.44339e-07
731.135	6.95376e-07
739.813	9.02276e-07
748.491	1.62497e-06
757.169	3.86331e-06
765.847	8.60095e-06
774.526	1.78288e-05
783.204	2.41068e-05
791.882	2.59833e-05
800.56	1.73031e-05
809.238	1.18726e-05
817.916	9.25791e-06
826.594	1.36239e-05
835.273	2.65831e-05
843.951	3.95861e-05
852.629	4.1538e-05
861.307	3.20394e-05
869.985	1.47791e-05
878.663	6.91813e-06
887.342	4.25664e-06
896.02	5.47903e-06
904.698	1.81933e-05
913.376	3.15839e-05
922.054	3.9222e-05
930.732	4.55959e-05
939.41	3.96158e-05
948.089	2.60907e-05
956.767	6.09837e-06
965.445	5.06726e-06
974.123	6.94724e-06
982.801	1.19212e-05
991.479	2.20043e-05
1000.16	2.54484e-05
1008.84	2.56478e-05
1017.51	2.3285e-05
1026.19	4.16286e-05
1034.87	0.000120609
1043.55	0.000324851
1052.23	0.000525011
1060.9	0.000531681
1069.58	0.000300475
1078.26	0.000144341
1086.94	0.000103888
1095.62	0.000123258
1104.3	0.000138196
1112.97	0.000108197
1121.65	5.05557e-05
1130.33	3.14861e-05
1139.01	1.67326e-05
1147.69	1.50197e-05
1156.36	1.68327e-05
1165.04	1.8721e-05
1173.72	1.92434e-05
1182.4	2.09459e-05
1191.08	2.91692e-05
1199.76	6.19646e-05
1208.43	0.000139692
1217.11	0.000269604
1225.79	0.000697753
1234.47	0.00153513
1243.15	0.00184294
1251.82	0.00149359
1260.5	0.000669245
1269.18	0.000260816
1277.86	0.000156452
1286.54	6.76973e-05
1295.21	7.05138e-05
1303.89	9.809e-05
1312.57	8.84762e-05
1321.25	5.53704e-05
1329.93	2.19666e-05
1338.61	1.56369e-05
1347.28	2.79441e-05
1355.96	9.17572e-05
1364.64	0.000213171
1373.32	0.000354043
1382	0.000362383
1390.67	0.000194716
1399.35	9.30303e-05
1408.03	7.19035e-05
1416.71	5.25089e-05
1425.39	5.31976e-05
1434.07	6.1579e-05
1442.74	7.00417e-05
1451.42	7.99328e-05
1460.1	8.32027e-05
1468.78	8.10878e-05
1477.46	7.53679e-05
1486.13	5.39234e-05
1494.81	4.25565e-05
1503.49	2.6881e-05
1512.17	1.81641e-05
1520.85	1.42956e-05
1529.52	1.36523e-05
1538.2	1.24861e-05
1546.88	1.37154e-05
1555.56	1.40341e-05
1564.24	1.37948e-05
1572.92	1.02374e-05
1581.59	7.01357e-06
1590.27	5.26971e-06
1598.95	5.033e-06
1607.63	5.64423e-06
1616.31	5.0788e-06
1624.98	7.70166e-06
1633.66	8.14632e-06
1642.34	8.88844e-06
1651.02	9.64575e-06
1659.7	1.15419e-05
1668.38	1.29073e-05
1677.05	1.51e-05
1685.73	1.75719e-05
1694.41	2.06806e-05
1703.09	2.26333e-05
1711.77	2.71947e-05
1720.44	3.14613e-05
1729.12	5.84474e-05
1737.8	0.000148972
1746.48	0.000419476
1755.16	0.0010279
1763.84	0.00100591
1772.51	0.00117017
1781.19	0.000455118
1789.87	0.000138344
1798.55	3.56896e-05
1807.23	1.7179e-05
1815.9	1.49785e-05
1824.58	1.57685e-05
1833.26	1.66692e-05
1841.94	1.54301e-05
1850.62	1.30505e-05
1859.29	1.08148e-05
1867.97	9.75105e-06
1876.65	9.75673e-06
1885.33	1.13278e-05
1894.01	1.21482e-05
1902.69	1.24815e-05
1911.36	9.90844e-06
1920.04	6.03727e-06
1928.72	4.24263e-06
1937.4	3.58834e-06
1946.08	3.55533e-06
1954.75	3.7454e-06
1963.43	3.7725e-06
1972.11	3.66266e-06
1980.79	3.32918e-06
1989.47	3.32009e-06
1998.15	4.18226e-06
2006.82	5.18806e-06
2015.5	6.07109e-06
2024.18	5.79911e-06
2032.86	4.69058e-06
2041.54	2.99572e-06
2050.21	2.79836e-06
2058.89	3.618e-06
2067.57	5.75329e-06
2076.25	1.01526e-05
2084.93	1.34346e-05
2093.6	1.37567e-05
2102.28	8.95568e-06
2110.96	5.4743e-06
2119.64	2.61218e-06
2128.32	1.92482e-06
2137	1.94514e-06
2145.67	3.01831e-06
2154.35	3.40916e-06
2163.03	3.34387e-06
2171.71	2.9292e-06
2180.39	2.77349e-06
2189.06	2.29615e-06
2197.74	1.3386e-06
2206.42	1.2971e-06
2215.1	1.79384e-06
2223.78	2.24161e-06
2232.46	2.59402e-06
2241.13	2.30164e-06
2249.81	1.91083e-06
2258.49	1.41605e-06
2267.17	1.16378e-06
2275.85	1.43885e-06
2284.52	1.95342e-06
2293.2	2.61379e-06
2301.88	3.1062e-06
2310.56	3.13224e-06
2319.24	2.68688e-06
2327.92	2.11702e-06
2336.59	1.76059e-06
2345.27	1.53807e-06
2353.95	1.21653e-06
2362.63	1.46364e-06
2371.31	1.69574e-06
2379.98	1.73364e-06
2388.66	1.67149e-06
2397.34	1.74985e-06
2406.02	1.88684e-06
2414.7	1.95098e-06
2423.37	2.03826e-06
2432.05	1.81675e-06
2440.73	1.54252e-06
2449.41	1.73695e-06
2458.09	2.84553e-06
2466.77	4.27925e-06
2475.44	4.87023e-06
2484.12	4.34576e-06
2492.8	3.14451e-06
2501.48	1.98131e-06
2510.16	9.0387e-07
2518.83	3.25863e-07
2527.51	2.52412e-07
2536.19	4.373e-07
2544.87	6.14002e-07
2553.55	6.14526e-07
2562.23	4.35568e-07
2570.9	3.32011e-07
2579.58	3.22797e-07
2588.26	6.29376e-07
2596.94	1.37443e-06
2605.62	2.13112e-06
2614.29	2.27894e-06
2622.97	1.70518e-06
2631.65	1.1077e-06
2640.33	7.75033e-07
2649.01	4.83038e-07
2657.68	6.49591e-07
2666.36	1.00077e-06
2675.04	1.52794e-06
2683.72	1.86928e-06
2692.4	2.1229e-06
2701.08	1.70287e-06
2709.75	1.65339e-06
2718.43	1.61115e-06
2727.11	1.95222e-06
2735.79	2.41906e-06
2744.47	2.62258e-06
2753.14	3.19697e-06
2761.82	3.51035e-06
2770.5	3.43379e-06
2779.18	3.53297e-06
2787.86	3.51291e-06
2796.54	3.21455e-06
2805.21	3.45473e-06
2813.89	4.74053e-06
2822.57	5.67529e-06
2831.25	6.69659e-06
2839.93	7.80378e-06
2848.6	9.79418e-06
2857.28	1.21308e-05
2865.96	1.39613e-05
2874.64	2.31539e-05
2883.32	3.49812e-05
2892	4.42001e-05
2900.67	4.9168e-05
2909.35	5.764e-05
2918.03	5.77753e-05
2926.71	6.07047e-05
2935.39	7.85484e-05
2944.06	0.000106319
2952.74	0.000118672
2961.42	0.000120635
2970.1	0.00013563
2978.78	0.000210204
2987.45	0.000252733
2996.13	0.000313665
3004.81	0.000173541
3013.49	0.00011296
3022.17	5.71649e-05
3030.85	3.41932e-05
3039.52	2.65388e-05
3048.2	2.22159e-05
3056.88	2.06819e-05
3065.56	1.77079e-05
3074.24	1.39958e-05
3082.91	1.0384e-05
3091.59	8.05351e-06
3100.27	6.85332e-06
3108.95	5.66652e-06
3117.63	4.50061e-06
3126.31	4.1938e-06
3134.98	4.01429e-06
3143.66	3.20625e-06
3152.34	2.84787e-06
3161.02	2.2781e-06
3169.7	2.33329e-06
3178.37	2.61794e-06
3187.05	2.92412e-06
3195.73	2.60704e-06
3204.41	2.27015e-06
3213.09	1.80568e-06
3221.77	1.43012e-06
3230.44	1.10097e-06
3239.12	9.83246e-07
3247.8	5.49555e-07
3256.48	2.83898e-07
3265.16	9.95302e-08
3273.83	6.95293e-08
3282.51	9.0614e-08
3291.19	2.02382e-07
3299.87	2.48309e-07
3308.55	1.32922e-07
3317.22	1.58001e-07
3325.9	7.62155e-08
3334.58	6.86235e-08
3343.26	-9.12833e-08
3351.94	1.74505e-07
3360.62	2.76731e-07
3369.29	2.50175e-07
3377.97	-1.51041e-08
3386.65	-6.76631e-10
3395.33	-1.17439e-07
3404.01	-3.76549e-08
3412.68	1.071e-07
3421.36	2.37046e-07
3430.04	3.54555e-07
3438.72	3.05604e-07
3447.4	7.38219e-08
3456.08	2.93447e-07
3464.75	7.18829e-09
3473.43	4.17874e-08
3482.11	8.14518e-07
3490.79	3.66355e-06
3499.47	9.35386e-06
3508.14	1.08652e-05
3516.82	1.21794e-05
3525.5	4.32446e-06
3534.18	1.68205e-07
3542.86	-1.31268e-06
3551.53	-1.38053e-06
3560.21	-1.51161e-06
3568.89	-1.31765e-06
3577.57	-8.51998e-07
3586.25	-9.6704e-07
3594.93	-3.40425e-07
3603.6	-1.19265e-07
3612.28	-8.91065e-07
3620.96	-4.23378e-07
3629.64	-2.69446e-06
3638.32	-5.82852e-07
3646.99	-1.05769e-06
3655.67	-5.81e-07
3664.35	-4.52011e-07
3673.03	-4.23051e-07
3681.71	-4.15433e-07
3690.39	-6.46863e-07
3699.06	-3.52856e-07
3707.74	-4.81379e-07
3716.42	-3.40567e-07
3725.1	-7.17512e-07
3733.78	-4.76388e-07
3742.45	-2.92701e-07
3751.13	-4.82161e-07
3759.81	-9.63286e-07
3768.49	3.91391e-08
3777.17	6.54549e-08
3785.85	5.98236e-08
3794.52	-4.40174e-09
3803.2	-3.5486e-07
3811.88	-3.40171e-08
3820.56	-1.2694e-06
3829.24	1.19174e-08
3837.91	-4.0909e-06
3846.59	1.97714e-08
3855.27	-9.74276e-08
3863.95	-1.08432e-07
3872.63	5.53127e-08
3881.3	-1.90392e-07
3889.98	4.20675e-08
3898.66	-3.9652e-10
3907.34	1.15624e-07
3916.02	2.8655e-07
3924.7	1.63854e-07
3933.37	4.06026e-07
3942.05	5.12788e-07
3950.73	7.98472e-07
3959.41	6.03034e-07
3968.09	8.48961e-07
