Infrared Spectrum: Ethyl Ester Acetic Acid
Formula: C H3 C O2 C H2 C H3
CAS: 141-78-6
State: gas
Melting point: -83.58 C
Boiling point: 77.06 C
Class: IUPAC A
Instrument: IFS66V (Bruker)
Instrument parameters: KBr Beam splitter; MCT Detector; Multipass cell
Sampling: 1 L/min Flow
Resolution: 0.2410
Temperature: 23 C
Pressure: 101.3 kPa
Origin: NIST, Anayltical Chemistry Division, 301-975-3108
cm-1	(micromol/mol)-1m-1 (base 10)
575.048	-2.08319e-07
583.606	3.58215e-06
592.163	1.00089e-05
600.721	1.96911e-05
609.279	3.03838e-05
617.836	2.92527e-05
626.394	5.14094e-05
634.951	4.17623e-05
643.509	3.09523e-05
652.067	5.68596e-06
660.624	1.61477e-06
669.182	6.64368e-07
677.74	4.00071e-07
686.297	4.66748e-07
694.855	3.91682e-08
703.412	2.72831e-07
711.97	2.47549e-07
720.528	5.5559e-07
729.085	6.47809e-07
737.643	8.05809e-07
746.201	1.36781e-06
754.758	2.96473e-06
763.316	6.96791e-06
771.873	1.4593e-05
780.431	2.45564e-05
788.989	2.67795e-05
797.546	2.03983e-05
806.104	1.28371e-05
814.662	9.17268e-06
823.219	1.0904e-05
831.777	2.00113e-05
840.334	3.66059e-05
848.892	4.12721e-05
857.45	3.93636e-05
866.007	2.17156e-05
874.565	9.89553e-06
883.123	5.04756e-06
891.68	4.4398e-06
900.238	9.43074e-06
908.795	2.62121e-05
917.353	3.36662e-05
925.911	4.14098e-05
934.468	4.12607e-05
943.026	3.26457e-05
951.584	1.27877e-05
960.141	5.23624e-06
968.699	5.48773e-06
977.256	8.26625e-06
985.814	1.4926e-05
994.372	2.44853e-05
1002.93	2.56948e-05
1011.49	2.41865e-05
1020.04	2.60649e-05
1028.6	5.43537e-05
1037.16	0.000160965
1045.72	0.000387753
1054.28	0.000537332
1062.83	0.000507545
1071.39	0.000245039
1079.95	0.00013133
1088.51	0.000104226
1097.06	0.000128061
1105.62	0.000120434
1114.18	9.96807e-05
1122.74	4.66897e-05
1131.29	2.87091e-05
1139.85	1.62771e-05
1148.41	1.51579e-05
1156.97	1.71603e-05
1165.52	1.85558e-05
1174.08	1.91694e-05
1182.64	2.10469e-05
1191.2	2.93985e-05
1199.75	6.19025e-05
1208.31	0.000138311
1216.87	0.000264401
1225.43	0.000666389
1233.99	0.00150355
1242.54	0.00187074
1251.1	0.0015958
1259.66	0.000741869
1268.22	0.000276413
1276.77	0.000178124
1285.33	7.29677e-05
1293.89	6.70644e-05
1302.45	9.29418e-05
1311	9.51669e-05
1319.56	6.5132e-05
1328.12	2.57439e-05
1336.68	1.5862e-05
1345.23	2.17768e-05
1353.79	7.27199e-05
1362.35	0.000172543
1370.91	0.000351178
1379.46	0.000337343
1388.02	0.000268391
1396.58	0.00011375
1405.14	8.06273e-05
1413.7	5.62174e-05
1422.25	5.23782e-05
1430.81	5.84911e-05
1439.37	6.65333e-05
1447.93	7.27113e-05
1456.48	7.75315e-05
1465.04	7.9984e-05
1473.6	7.40138e-05
1482.16	6.72116e-05
1490.71	4.65761e-05
1499.27	3.34102e-05
1507.83	2.18481e-05
1516.39	1.65252e-05
1524.94	1.43089e-05
1533.5	1.2554e-05
1542.06	9.52269e-06
1550.62	1.3822e-05
1559.18	1.41223e-05
1567.73	1.20406e-05
1576.29	3.99577e-06
1584.85	5.8666e-06
1593.41	5.13029e-06
1601.96	5.168e-06
1610.52	5.89803e-06
1619.08	7.01539e-06
1627.64	7.40266e-06
1636.19	7.96459e-06
1644.75	9.14889e-06
1653.31	2.48314e-06
1661.87	1.19691e-05
1670.42	1.35637e-05
1678.98	1.55858e-05
1687.54	1.85332e-05
1696.1	1.60368e-05
1704.65	2.24984e-05
1713.21	2.82565e-05
1721.77	3.28698e-05
1730.33	6.40989e-05
1738.89	0.000170386
1747.44	0.000467647
1756	0.00109097
1764.56	0.000997106
1773.12	0.00111838
1781.67	0.000429743
1790.23	0.000130457
1798.79	3.45488e-05
1807.35	1.7112e-05
1815.9	1.49661e-05
1824.46	1.58051e-05
1833.02	1.66729e-05
1841.58	1.55785e-05
1850.13	1.3178e-05
1858.69	1.09083e-05
1867.25	1.01079e-05
1875.81	9.66805e-06
1884.36	1.12052e-05
1892.92	1.20393e-05
1901.48	1.26502e-05
1910.04	1.03974e-05
1918.6	6.60399e-06
1927.15	4.46598e-06
1935.71	3.6608e-06
1944.27	3.56556e-06
1952.83	3.67755e-06
1961.38	3.80526e-06
1969.94	3.62973e-06
1978.5	3.50367e-06
1987.06	3.30662e-06
1995.61	3.7943e-06
2004.17	4.9356e-06
2012.73	5.92542e-06
2021.29	5.93823e-06
2029.84	5.25199e-06
2038.4	3.41252e-06
2046.96	2.73007e-06
2055.52	3.17421e-06
2064.08	4.63731e-06
2072.63	8.15097e-06
2081.19	1.21349e-05
2089.75	1.41066e-05
2098.31	1.11644e-05
2106.86	7.08344e-06
2115.42	3.74055e-06
2123.98	2.18305e-06
2132.54	1.78477e-06
2141.09	2.44954e-06
2149.65	3.33984e-06
2158.21	3.33487e-06
2166.77	3.16644e-06
2175.32	2.84465e-06
2183.88	2.56302e-06
2192.44	1.9864e-06
2201	1.31835e-06
2209.55	1.56334e-06
2218.11	1.98818e-06
2226.67	2.53244e-06
2235.23	2.57491e-06
2243.79	2.17185e-06
2252.34	1.72488e-06
2260.9	1.28134e-06
2269.46	1.2391e-06
2278.02	1.46625e-06
2286.57	2.07852e-06
2295.13	2.71735e-06
2303.69	3.24423e-06
2312.25	3.01673e-06
2320.8	2.65576e-06
2329.36	2.07725e-06
2337.92	1.65935e-06
2346.48	1.39094e-06
2355.03	1.16107e-06
2363.59	1.54628e-06
2372.15	1.80763e-06
2380.71	1.7479e-06
2389.26	1.77007e-06
2397.82	1.71395e-06
2406.38	1.87063e-06
2414.94	2.0133e-06
2423.5	2.03218e-06
2432.05	1.79932e-06
2440.61	1.53241e-06
2449.17	1.7442e-06
2457.73	2.74176e-06
2466.28	4.10053e-06
2474.84	4.89561e-06
2483.4	4.41988e-06
2491.96	3.21867e-06
2500.51	1.98135e-06
2509.07	9.45173e-07
2517.63	3.38948e-07
2526.19	1.36425e-07
2534.74	3.22404e-07
2543.3	5.43036e-07
2551.86	6.21173e-07
2560.42	3.9457e-07
2568.98	3.30574e-07
2577.53	3.61852e-07
2586.09	5.56114e-07
2594.65	1.11468e-06
2603.21	1.81455e-06
2611.76	2.3622e-06
2620.32	1.90563e-06
2628.88	1.3206e-06
2637.44	8.56982e-07
2645.99	5.36466e-07
2654.55	5.97323e-07
2663.11	9.20494e-07
2671.67	1.43153e-06
2680.22	1.70328e-06
2688.78	2.04505e-06
2697.34	1.89474e-06
2705.9	1.82451e-06
2714.45	1.51165e-06
2723.01	1.79226e-06
2731.57	2.08552e-06
2740.13	2.38991e-06
2748.69	3.03061e-06
2757.24	3.33094e-06
2765.8	3.41378e-06
2774.36	3.50696e-06
2782.92	3.51518e-06
2791.47	3.56085e-06
2800.03	3.16773e-06
2808.59	3.83201e-06
2817.15	5.24927e-06
2825.7	6.11216e-06
2834.26	6.8861e-06
2842.82	8.58958e-06
2851.38	1.05955e-05
2859.93	1.26366e-05
2868.49	1.54459e-05
2877.05	2.81759e-05
2885.61	3.71155e-05
2894.16	4.60086e-05
2902.72	5.08116e-05
2911.28	5.95195e-05
2919.84	5.68539e-05
2928.4	6.12057e-05
2936.95	8.53136e-05
2945.51	0.000108462
2954.07	0.000118695
2962.63	0.000121418
2971.18	0.000139786
2979.74	0.000220162
2988.3	0.000256153
2996.86	0.000285933
3005.41	0.000167911
3013.97	0.000109426
3022.53	5.5552e-05
3031.09	3.38567e-05
3039.64	2.64418e-05
3048.2	2.21789e-05
3056.76	2.06811e-05
3065.32	1.77966e-05
3073.88	1.41934e-05
3082.43	1.0663e-05
3090.99	8.3246e-06
3099.55	7.18566e-06
3108.11	5.68466e-06
3116.66	4.75376e-06
3125.22	4.13474e-06
3133.78	4.12521e-06
3142.34	3.40024e-06
3150.89	2.82015e-06
3159.45	2.25423e-06
3168.01	2.3139e-06
3176.57	2.506e-06
3185.12	2.698e-06
3193.68	2.67539e-06
3202.24	2.34313e-06
3210.8	2.00881e-06
3219.35	1.58872e-06
3227.91	1.32317e-06
3236.47	9.69998e-07
3245.03	7.20539e-07
3253.59	5.01569e-07
3262.14	2.09013e-07
3270.7	1.56698e-07
3279.26	8.4266e-08
3287.82	1.92214e-07
3296.37	1.67968e-07
3304.93	1.15213e-07
3313.49	1.37225e-07
3322.05	2.65086e-08
3330.6	3.85279e-08
3339.16	-2.6135e-07
3347.72	-6.81033e-08
3356.28	3.16467e-07
3364.83	1.7735e-07
3373.39	1.52929e-07
3381.95	-5.05436e-08
3390.51	5.90306e-08
3399.06	-1.72359e-07
3407.62	-4.85355e-08
3416.18	2.22979e-07
3424.74	3.76258e-07
3433.3	2.36373e-07
3441.85	1.36643e-07
3450.41	3.42401e-07
3458.97	3.33801e-07
3467.53	-1.27207e-07
3476.08	2.34249e-07
3484.64	1.45147e-06
3493.2	4.81972e-06
3501.76	1.0729e-05
3510.31	1.05514e-05
3518.87	1.05756e-05
3527.43	3.22001e-06
3535.99	-3.03862e-07
3544.54	-1.38666e-06
3553.1	-1.49189e-06
3561.66	-1.30115e-06
3570.22	-1.26417e-06
3578.78	-9.54588e-07
3587.33	-5.48195e-07
3595.89	-2.92108e-07
3604.45	-1.86092e-07
3613.01	-4.97724e-07
3621.56	-4.65235e-07
3630.12	-5.82867e-07
3638.68	-3.13182e-07
3647.24	-1.26225e-06
3655.79	-5.46609e-07
3664.35	-3.61495e-07
3672.91	-4.41764e-07
3681.47	-5.21635e-07
3690.02	-5.17939e-07
3698.58	-3.73369e-07
3707.14	-4.25535e-07
3715.7	-2.87772e-07
3724.25	-3.00268e-07
3732.81	-4.70324e-07
3741.37	-8.47735e-07
3749.93	-8.5174e-07
3758.49	-1.47335e-07
3767.04	1.34788e-07
3775.6	5.9227e-08
3784.16	-1.69085e-07
3792.72	1.17712e-07
3801.27	-3.70357e-06
3809.83	-1.27599e-07
3818.39	-1.81999e-08
3826.95	-4.54969e-07
3835.5	-1.61227e-08
3844.06	-2.17148e-07
3852.62	-3.8569e-07
3861.18	8.37931e-08
3869.73	-4.05353e-07
3878.29	2.6134e-08
3886.85	1.13576e-07
3895.41	1.55509e-07
3903.96	-5.87126e-07
3912.52	1.39568e-07
3921.08	1.31357e-07
3929.64	2.10254e-07
3938.2	4.53965e-07
3946.75	4.8043e-07
3955.31	5.46503e-07
3963.87	6.5468e-07
3972.43	8.8532e-07
