Infrared Spectrum: Ethyl Ester Acetic Acid
Formula: C H3 C O2 C H2 C H3
CAS: 141-78-6
State: gas
Melting point: -83.58 C
Boiling point: 77.06 C
Class: IUPAC A
Instrument: IFS66V (Bruker)
Instrument parameters: KBr Beam splitter; MCT Detector; Multipass cell
Sampling: 1 L/min Flow
Resolution: 1.9290
Temperature: 23 C
Pressure: 101.3 kPa
Origin: NIST, Anayltical Chemistry Division, 301-975-3108
cm-1	(micromol/mol)-1m-1 (base 10)
574.687	1.56058e-07
583.365	3.22012e-06
592.043	1.03073e-05
600.721	1.9824e-05
609.4	3.03564e-05
618.078	2.95139e-05
626.756	5.18396e-05
635.434	4.27922e-05
644.112	2.91928e-05
652.79	4.6299e-06
661.469	1.55846e-06
670.147	7.33544e-07
678.825	4.92074e-07
687.503	3.67625e-07
696.181	4.83067e-07
704.859	2.8429e-07
713.537	4.60582e-07
722.216	4.75362e-07
730.894	7.48314e-07
739.572	9.17715e-07
748.25	1.61025e-06
756.928	3.71557e-06
765.606	8.43066e-06
774.285	1.75016e-05
782.963	2.43151e-05
791.641	2.61391e-05
800.319	1.74355e-05
808.997	1.1835e-05
817.675	9.179e-06
826.353	1.34007e-05
835.032	2.60179e-05
843.71	3.96112e-05
852.388	4.15561e-05
861.066	3.26118e-05
869.744	1.51492e-05
878.422	7.10622e-06
887.101	4.31876e-06
895.779	5.38504e-06
904.457	1.75795e-05
913.135	3.05914e-05
921.813	3.9015e-05
930.491	4.55208e-05
939.169	3.96143e-05
947.848	2.72149e-05
956.526	6.14727e-06
965.204	5.09843e-06
973.882	6.84604e-06
982.56	1.1734e-05
991.238	2.16953e-05
999.917	2.5492e-05
1008.59	2.57467e-05
1017.27	2.31296e-05
1025.95	4.05745e-05
1034.63	0.000116891
1043.31	0.000317587
1051.99	0.000522535
1060.66	0.000531776
1069.34	0.00030897
1078.02	0.000146342
1086.7	0.00010412
1095.38	0.000122298
1104.05	0.000136782
1112.73	0.000109803
1121.41	5.14966e-05
1130.09	3.21845e-05
1138.77	1.68906e-05
1147.45	1.50033e-05
1156.12	1.67628e-05
1164.8	1.87546e-05
1173.48	1.92925e-05
1182.16	2.08448e-05
1190.84	2.87707e-05
1199.51	6.04253e-05
1208.19	0.000137022
1216.87	0.000264365
1225.55	0.000676535
1234.23	0.00151966
1242.9	0.00184421
1251.58	0.00152714
1260.26	0.000689842
1268.94	0.000262003
1277.62	0.000160908
1286.3	6.85069e-05
1294.97	6.98521e-05
1303.65	9.76916e-05
1312.33	8.93766e-05
1321.01	5.67756e-05
1329.69	2.24162e-05
1338.36	1.57323e-05
1347.04	2.69815e-05
1355.72	8.99385e-05
1364.4	0.00020757
1373.08	0.000353928
1381.76	0.0003604
1390.43	0.000200416
1399.11	9.42518e-05
1407.79	7.27264e-05
1416.47	5.26792e-05
1425.15	5.30016e-05
1433.82	6.13587e-05
1442.5	6.98405e-05
1451.18	7.92507e-05
1459.86	8.29532e-05
1468.54	8.08803e-05
1477.22	7.55971e-05
1485.89	5.46053e-05
1494.57	4.3363e-05
1503.25	2.6982e-05
1511.93	1.87121e-05
1520.61	1.4046e-05
1529.28	1.34514e-05
1537.96	1.26478e-05
1546.64	1.37326e-05
1555.32	1.40841e-05
1564	1.39184e-05
1572.67	1.04634e-05
1581.35	7.25258e-06
1590.03	5.24696e-06
1598.71	5.01015e-06
1607.39	5.6215e-06
1616.07	5.23742e-06
1624.74	7.78289e-06
1633.42	8.11061e-06
1642.1	8.75126e-06
1650.78	9.81805e-06
1659.46	1.14304e-05
1668.13	1.3419e-05
1676.81	1.52714e-05
1685.49	1.5814e-05
1694.17	2.11566e-05
1702.85	2.25721e-05
1711.53	2.71273e-05
1720.2	3.1396e-05
1728.88	5.74141e-05
1737.56	0.000144236
1746.24	0.000407912
1754.92	0.00100924
1763.59	0.00100954
1772.27	0.00119228
1780.95	0.000467721
1789.63	0.000143929
1798.31	3.69095e-05
1806.98	1.73773e-05
1815.66	1.50078e-05
1824.34	1.5753e-05
1833.02	1.66877e-05
1841.7	1.53782e-05
1850.38	1.30391e-05
1859.05	1.08787e-05
1867.73	9.9519e-06
1876.41	9.76391e-06
1885.09	1.12637e-05
1893.77	1.21682e-05
1902.44	1.25397e-05
1911.12	1.00618e-05
1919.8	6.13774e-06
1928.48	4.30086e-06
1937.16	3.61365e-06
1945.84	3.5805e-06
1954.51	3.68245e-06
1963.19	3.80078e-06
1971.87	3.62568e-06
1980.55	3.35455e-06
1989.23	3.30249e-06
1997.9	4.15143e-06
2006.58	5.17346e-06
2015.26	6.10044e-06
2023.94	5.83291e-06
2032.62	4.76553e-06
2041.3	3.01933e-06
2049.97	2.79048e-06
2058.65	3.57496e-06
2067.33	5.68926e-06
2076.01	9.96846e-06
2084.69	1.3372e-05
2093.36	1.38746e-05
2102.04	9.09895e-06
2110.72	5.54349e-06
2119.4	2.72713e-06
2128.08	1.87959e-06
2136.75	1.93868e-06
2145.43	2.99186e-06
2154.11	3.44246e-06
2162.79	3.30183e-06
2171.47	2.95052e-06
2180.15	2.65426e-06
2188.82	2.34051e-06
2197.5	1.35595e-06
2206.18	1.31091e-06
2214.86	1.76552e-06
2223.54	2.22294e-06
2232.21	2.58661e-06
2240.89	2.32145e-06
2249.57	1.90198e-06
2258.25	1.40258e-06
2266.93	1.17551e-06
2275.61	1.39768e-06
2284.28	1.92519e-06
2292.96	2.59384e-06
2301.64	3.10297e-06
2310.32	3.15947e-06
2319	2.69772e-06
2327.67	2.11042e-06
2336.35	1.7381e-06
2345.03	1.53503e-06
2353.71	1.17849e-06
2362.39	1.47885e-06
2371.06	1.71777e-06
2379.74	1.762e-06
2388.42	1.67489e-06
2397.1	1.76351e-06
2405.78	1.84117e-06
2414.46	1.94977e-06
2423.13	2.02284e-06
2431.81	1.82802e-06
2440.49	1.56699e-06
2449.17	1.745e-06
2457.85	2.79784e-06
2466.52	4.19821e-06
2475.2	4.87472e-06
2483.88	4.38265e-06
2492.56	3.17738e-06
2501.24	1.97563e-06
2509.92	9.08475e-07
2518.59	3.12956e-07
2527.27	2.00668e-07
2535.95	4.45892e-07
2544.63	6.0445e-07
2553.31	6.02751e-07
2561.98	4.00613e-07
2570.66	3.20454e-07
2579.34	3.03993e-07
2588.02	6.13104e-07
2596.7	1.29207e-06
2605.38	2.10087e-06
2614.05	2.24906e-06
2622.73	1.76335e-06
2631.41	1.10977e-06
2640.09	7.52468e-07
2648.77	5.29591e-07
2657.44	6.37608e-07
2666.12	9.84403e-07
2674.8	1.53674e-06
2683.48	1.8773e-06
2692.16	2.13578e-06
2700.83	1.73907e-06
2709.51	1.68326e-06
2718.19	1.64032e-06
2726.87	1.95423e-06
2735.55	2.37989e-06
2744.23	2.64291e-06
2752.9	3.22749e-06
2761.58	3.5285e-06
2770.26	3.37762e-06
2778.94	3.55484e-06
2787.62	3.47037e-06
2796.29	3.25603e-06
2804.97	3.37323e-06
2813.65	4.73208e-06
2822.33	5.60466e-06
2831.01	6.70868e-06
2839.69	7.67755e-06
2848.36	9.782e-06
2857.04	1.20769e-05
2865.72	1.38747e-05
2874.4	2.26434e-05
2883.08	3.50037e-05
2891.75	4.39339e-05
2900.43	4.88859e-05
2909.11	5.72968e-05
2917.79	5.81431e-05
2926.47	6.06223e-05
2935.14	7.75897e-05
2943.82	0.00010569
2952.5	0.000118852
2961.18	0.000120423
2969.86	0.000135049
2978.54	0.000207421
2987.21	0.000252593
2995.89	0.000330805
3004.57	0.000175424
3013.25	0.000115089
3021.93	5.80269e-05
3030.6	3.47405e-05
3039.28	2.65785e-05
3047.96	2.24089e-05
3056.64	2.05543e-05
3065.32	1.79166e-05
3074	1.403e-05
3082.67	1.05757e-05
3091.35	8.10988e-06
3100.03	6.96895e-06
3108.71	5.64397e-06
3117.39	4.59511e-06
3126.06	4.11239e-06
3134.74	4.08969e-06
3143.42	3.19808e-06
3152.1	2.92739e-06
3160.78	2.26001e-06
3169.46	2.31466e-06
3178.13	2.59592e-06
3186.81	2.93057e-06
3195.49	2.59886e-06
3204.17	2.37466e-06
3212.85	1.77332e-06
3221.52	1.41472e-06
3230.2	1.07994e-06
3238.88	1.00846e-06
3247.56	6.35749e-07
3256.24	3.44907e-07
3264.91	7.58409e-08
3273.59	1.48786e-07
3282.27	2.92515e-08
3290.95	2.2745e-07
3299.63	2.14045e-07
3308.31	1.6003e-07
3316.98	1.29349e-07
3325.66	1.35359e-07
3334.34	2.99864e-08
3343.02	-1.90184e-08
3351.7	1.85833e-07
3360.37	2.52361e-07
3369.05	2.61521e-07
3377.73	-1.3489e-08
3386.41	-5.81648e-08
3395.09	-6.78122e-08
3403.77	-8.79111e-08
3412.44	9.57978e-08
3421.12	2.04375e-07
3429.8	3.64548e-07
3438.48	3.71274e-07
3447.16	8.24289e-08
3455.83	2.86393e-07
3464.51	1.04634e-07
3473.19	-1.2183e-08
3481.87	8.17195e-07
3490.55	3.45266e-06
3499.22	9.15831e-06
3507.9	1.09314e-05
3516.58	1.23127e-05
3525.26	4.60237e-06
3533.94	2.73999e-07
3542.62	-1.24549e-06
3551.29	-1.40116e-06
3559.97	-1.50414e-06
3568.65	-1.56798e-06
3577.33	-8.8237e-07
3586.01	-9.03819e-07
3594.68	-4.60596e-07
3603.36	-1.23842e-07
3612.04	-8.016e-07
3620.72	-3.01141e-07
3629.4	-1.90043e-06
3638.08	-5.21417e-07
3646.75	-1.23284e-06
3655.43	-7.26792e-07
3664.11	-4.93635e-07
3672.79	-4.51789e-07
3681.47	-2.49011e-07
3690.14	-2.06114e-07
3698.82	-3.41782e-07
3707.5	-4.25859e-07
3716.18	-3.38646e-07
3724.86	-6.22791e-07
3733.54	9.30695e-08
3742.21	-5.8112e-07
3750.89	5.0154e-07
3759.57	-6.60763e-07
3768.25	6.45237e-08
3776.93	1.29811e-07
3785.6	-8.94535e-08
3794.28	6.1999e-08
3802.96	3.08231e-08
3811.64	-2.52318e-07
3820.32	-8.45392e-07
3828.99	1.30924e-08
3837.67	-2.80353e-06
3846.35	3.24674e-08
3855.03	-1.11508e-06
3863.71	1.11146e-07
3872.39	-2.75854e-08
3881.06	-3.70226e-07
3889.74	1.8277e-07
3898.42	1.27585e-07
3907.1	1.81574e-07
3915.78	3.41673e-07
3924.45	1.21586e-07
3933.13	3.12218e-07
3941.81	5.88658e-07
3950.49	7.92942e-07
3959.17	6.20769e-07
3967.85	8.53955e-07
