Infrared Spectrum: Ethyl Ester Acetic Acid
Formula: C H3 C O2 C H2 C H3
CAS: 141-78-6
State: gas
Melting point: -83.58 C
Boiling point: 77.06 C
Class: IUPAC A
Instrument: IFS66V (Bruker)
Instrument parameters: KBr Beam splitter; MCT Detector; Multipass cell
Sampling: 1 L/min Flow
Resolution: 0.4820
Temperature: 23 C
Pressure: 101.3 kPa
Origin: NIST, Anayltical Chemistry Division, 301-975-3108
cm-1	(micromol/mol)-1m-1 (base 10)
574.928	-8.98686e-07
583.606	3.86303e-06
592.284	1.07294e-05
600.962	1.9924e-05
609.641	3.01462e-05
618.319	2.98938e-05
626.997	5.17244e-05
635.675	4.31478e-05
644.353	2.7947e-05
653.031	4.21422e-06
661.71	1.35061e-06
670.388	8.80006e-07
679.066	3.29825e-07
687.744	1.9368e-07
696.422	5.72513e-07
705.1	2.68804e-07
713.778	3.03571e-07
722.457	3.21691e-07
731.135	7.20826e-07
739.813	8.96467e-07
748.491	1.72789e-06
757.169	3.95105e-06
765.847	8.72687e-06
774.526	1.79582e-05
783.204	2.41988e-05
791.882	2.59005e-05
800.56	1.74693e-05
809.238	1.19014e-05
817.916	9.2617e-06
826.594	1.36637e-05
835.273	2.66241e-05
843.951	3.95751e-05
852.629	4.15976e-05
861.307	3.19083e-05
869.985	1.47586e-05
878.663	6.93994e-06
887.342	4.36724e-06
896.02	5.39866e-06
904.698	1.8209e-05
913.376	3.1525e-05
922.054	3.9175e-05
930.732	4.57152e-05
939.41	3.99706e-05
948.089	2.61477e-05
956.767	6.15381e-06
965.445	5.0131e-06
974.123	6.97347e-06
982.801	1.19478e-05
991.479	2.19485e-05
1000.16	2.54293e-05
1008.84	2.56322e-05
1017.51	2.33292e-05
1026.19	4.15827e-05
1034.87	0.000120635
1043.55	0.000324629
1052.23	0.000525258
1060.9	0.000533734
1069.58	0.000300451
1078.26	0.000144388
1086.94	0.000103947
1095.62	0.00012321
1104.3	0.000138899
1112.97	0.000108261
1121.65	5.05673e-05
1130.33	3.14436e-05
1139.01	1.67976e-05
1147.69	1.51023e-05
1156.36	1.69071e-05
1165.04	1.88007e-05
1173.72	1.92828e-05
1182.4	2.09426e-05
1191.08	2.91411e-05
1199.76	6.19001e-05
1208.43	0.000139774
1217.11	0.000269561
1225.79	0.000697543
1234.47	0.00153526
1243.15	0.0018403
1251.82	0.00149344
1260.5	0.000669175
1269.18	0.000260571
1277.86	0.0001564
1286.54	6.76744e-05
1295.21	7.05104e-05
1303.89	9.79981e-05
1312.57	8.83937e-05
1321.25	5.53846e-05
1329.93	2.19546e-05
1338.61	1.54366e-05
1347.28	2.79563e-05
1355.96	9.18888e-05
1364.64	0.000213275
1373.32	0.000354159
1382	0.000362437
1390.67	0.000194721
1399.35	9.26971e-05
1408.03	7.19096e-05
1416.71	5.26124e-05
1425.39	5.31954e-05
1434.07	6.15987e-05
1442.74	6.99152e-05
1451.42	7.98598e-05
1460.1	8.36158e-05
1468.78	8.12244e-05
1477.46	7.53251e-05
1486.13	5.381e-05
1494.81	4.25246e-05
1503.49	2.67732e-05
1512.17	1.78396e-05
1520.85	1.55215e-05
1529.52	1.36395e-05
1538.2	1.2681e-05
1546.88	1.37338e-05
1555.56	1.40504e-05
1564.24	1.37582e-05
1572.92	1.0308e-05
1581.59	6.94951e-06
1590.27	5.28278e-06
1598.95	4.98933e-06
1607.63	5.74615e-06
1616.31	6.39903e-06
1624.98	7.64798e-06
1633.66	8.06734e-06
1642.34	8.87461e-06
1651.02	9.85196e-06
1659.7	1.1503e-05
1668.38	1.25986e-05
1677.05	1.50399e-05
1685.73	1.79011e-05
1694.41	2.04752e-05
1703.09	2.28802e-05
1711.77	2.7254e-05
1720.44	3.14258e-05
1729.12	5.84761e-05
1737.8	0.000148725
1746.48	0.000419192
1755.16	0.00102819
1763.84	0.00100515
1772.51	0.00117072
1781.19	0.000455148
1789.87	0.000138194
1798.55	3.56204e-05
1807.23	1.71597e-05
1815.9	1.49503e-05
1824.58	1.57234e-05
1833.26	1.66505e-05
1841.94	1.54758e-05
1850.62	1.31201e-05
1859.29	1.08238e-05
1867.97	9.58947e-06
1876.65	9.68812e-06
1885.33	1.13709e-05
1894.01	1.21353e-05
1902.69	1.24779e-05
1911.36	9.912e-06
1920.04	6.00796e-06
1928.72	4.18554e-06
1937.4	3.56454e-06
1946.08	3.56746e-06
1954.75	3.77601e-06
1963.43	3.77533e-06
1972.11	3.68894e-06
1980.79	3.33911e-06
1989.47	3.30899e-06
1998.15	4.15806e-06
2006.82	5.16651e-06
2015.5	6.01078e-06
2024.18	5.80036e-06
2032.86	4.70244e-06
2041.54	3.04204e-06
2050.21	2.77022e-06
2058.89	3.63102e-06
2067.57	5.76661e-06
2076.25	1.0186e-05
2084.93	1.34358e-05
2093.6	1.38006e-05
2102.28	8.9688e-06
2110.96	5.52073e-06
2119.64	2.36058e-06
2128.32	1.89163e-06
2137	1.97788e-06
2145.67	2.97527e-06
2154.35	3.51964e-06
2163.03	3.29263e-06
2171.71	2.93585e-06
2180.39	2.82669e-06
2189.06	2.26377e-06
2197.74	1.32034e-06
2206.42	1.24218e-06
2215.1	1.75203e-06
2223.78	2.31616e-06
2232.46	2.55056e-06
2241.13	2.26477e-06
2249.81	1.88531e-06
2258.49	1.44396e-06
2267.17	1.11622e-06
2275.85	1.43381e-06
2284.52	1.87607e-06
2293.2	2.57628e-06
2301.88	3.06848e-06
2310.56	3.0673e-06
2319.24	2.62941e-06
2327.92	2.079e-06
2336.59	1.73071e-06
2345.27	1.54782e-06
2353.95	1.26018e-06
2362.63	1.3881e-06
2371.31	1.69464e-06
2379.98	1.71626e-06
2388.66	1.6682e-06
2397.34	1.78532e-06
2406.02	1.91623e-06
2414.7	1.89533e-06
2423.37	2.0062e-06
2432.05	1.78092e-06
2440.73	1.50938e-06
2449.41	1.71038e-06
2458.09	2.87478e-06
2466.77	4.33452e-06
2475.44	4.83264e-06
2484.12	4.33978e-06
2492.8	3.1429e-06
2501.48	2.0558e-06
2510.16	8.64698e-07
2518.83	3.54838e-07
2527.51	2.811e-07
2536.19	4.48661e-07
2544.87	6.40868e-07
2553.55	5.86297e-07
2562.23	4.18183e-07
2570.9	3.42262e-07
2579.58	2.97889e-07
2588.26	5.58682e-07
2596.94	1.39405e-06
2605.62	2.1626e-06
2614.29	2.30732e-06
2622.97	1.74498e-06
2631.65	1.14185e-06
2640.33	8.36101e-07
2649.01	4.51393e-07
2657.68	6.80745e-07
2666.36	9.81653e-07
2675.04	1.52502e-06
2683.72	1.82685e-06
2692.4	1.99733e-06
2701.08	1.60791e-06
2709.75	1.64595e-06
2718.43	1.57981e-06
2727.11	1.88419e-06
2735.79	2.45424e-06
2744.47	2.55557e-06
2753.14	3.13264e-06
2761.82	3.5713e-06
2770.5	3.46049e-06
2779.18	3.48135e-06
2787.86	3.54467e-06
2796.54	3.17392e-06
2805.21	3.46651e-06
2813.89	4.74109e-06
2822.57	5.61337e-06
2831.25	6.57101e-06
2839.93	7.88048e-06
2848.6	9.68803e-06
2857.28	1.21352e-05
2865.96	1.39209e-05
2874.64	2.31674e-05
2883.32	3.48558e-05
2892	4.41924e-05
2900.67	4.91998e-05
2909.35	5.76328e-05
2918.03	5.77659e-05
2926.71	6.06418e-05
2935.39	7.84427e-05
2944.06	0.00010642
2952.74	0.000118655
2961.42	0.000120884
2970.1	0.000135603
2978.78	0.000210165
2987.45	0.00025252
2996.13	0.000312449
3004.81	0.000173337
3013.49	0.000112953
3022.17	5.71977e-05
3030.85	3.40754e-05
3039.52	2.65907e-05
3048.2	2.21198e-05
3056.88	2.06907e-05
3065.56	1.77438e-05
3074.24	1.38928e-05
3082.91	1.03762e-05
3091.59	7.96328e-06
3100.27	6.88141e-06
3108.95	5.69009e-06
3117.63	4.38742e-06
3126.31	4.25962e-06
3134.98	4.06117e-06
3143.66	3.06145e-06
3152.34	2.84336e-06
3161.02	2.3146e-06
3169.7	2.37152e-06
3178.37	2.62957e-06
3187.05	2.94704e-06
3195.73	2.5442e-06
3204.41	2.24018e-06
3213.09	1.81157e-06
3221.77	1.39297e-06
3230.44	1.1451e-06
3239.12	9.65094e-07
3247.8	4.61098e-07
3256.48	1.96689e-07
3265.16	7.18466e-08
3273.83	4.0576e-08
3282.51	1.34053e-08
3291.19	2.74108e-07
3299.87	2.31888e-07
3308.55	1.05867e-07
3317.22	2.32674e-08
3325.9	8.63468e-08
3334.58	7.78198e-08
3343.26	-1.27821e-07
3351.94	3.84443e-08
3360.62	2.63853e-07
3369.29	1.81639e-07
3377.97	8.01662e-08
3386.65	1.65593e-07
3395.33	-1.93062e-07
3404.01	-1.67011e-07
3412.68	1.86841e-07
3421.36	2.51437e-07
3430.04	3.08478e-07
3438.72	3.41138e-07
3447.4	5.14785e-08
3456.08	3.00784e-07
3464.75	-5.18859e-08
3473.43	1.0028e-07
3482.11	8.45636e-07
3490.79	3.6507e-06
3499.47	9.48489e-06
3508.14	1.08939e-05
3516.82	1.22134e-05
3525.5	4.28456e-06
3534.18	1.86361e-07
3542.86	-1.39477e-06
3551.53	-1.35788e-06
3560.21	-1.62849e-06
3568.89	-1.45374e-06
3577.57	-8.23278e-07
3586.25	-7.87063e-07
3594.93	-1.28905e-07
3603.6	-2.14081e-07
3612.28	-4.9903e-07
3620.96	-2.6063e-07
3629.64	-4.2524e-06
3638.32	-7.04762e-07
3646.99	-1.17267e-06
3655.67	-7.90807e-07
3664.35	-3.85552e-07
3673.03	-3.20705e-07
3681.71	-3.19821e-07
3690.39	-6.32381e-07
3699.06	-3.53481e-07
3707.74	-6.32406e-07
3716.42	-2.99376e-07
3725.1	-8.44941e-07
3733.78	-6.23071e-07
3742.45	-3.89496e-07
3751.13	-6.67729e-07
3759.81	-1.59763e-06
3768.49	2.31717e-07
3777.17	9.33751e-08
3785.85	1.17905e-07
3794.52	6.55786e-08
3803.2	-2.37657e-07
3811.88	3.3435e-08
3820.56	-1.37264e-06
3829.24	3.30094e-08
3837.91	-7.17422e-06
3846.59	-6.67136e-08
3855.27	3.921e-07
3863.95	-9.95629e-08
3872.63	1.88911e-08
3881.3	-1.71904e-07
3889.98	-1.10407e-08
3898.66	-3.75057e-09
3907.34	1.2127e-07
3916.02	4.36256e-07
3924.7	1.75829e-07
3933.37	4.84409e-07
3942.05	3.20403e-07
3950.73	9.06205e-07
3959.41	6.09121e-07
3968.09	9.31862e-07
