Infrared Spectrum: Ethyl Ester Acetic Acid
Formula: C H3 C O2 C H2 C H3
CAS: 141-78-6
State: gas
Melting point: -83.58 C
Boiling point: 77.06 C
Class: IUPAC A
Instrument: IFS66V (Bruker)
Instrument parameters: KBr Beam splitter; MCT Detector; Multipass cell
Sampling: 1 L/min Flow
Resolution: 1.9290
Temperature: 23 C
Pressure: 101.3 kPa
Origin: NIST, Anayltical Chemistry Division, 301-975-3108
cm-1	(micromol/mol)-1m-1 (base 10)
574.687	3.83089e-07
583.365	3.43192e-06
592.043	1.04652e-05
600.721	1.96952e-05
609.4	3.03675e-05
618.078	2.95805e-05
626.756	5.16384e-05
635.434	4.25036e-05
644.112	2.90547e-05
652.79	4.75783e-06
661.469	1.49447e-06
670.147	7.24275e-07
678.825	4.87785e-07
687.503	3.40731e-07
696.181	3.56235e-07
704.859	2.71493e-07
713.537	3.85574e-07
722.216	4.74991e-07
730.894	7.02561e-07
739.572	9.18428e-07
748.25	1.65587e-06
756.928	3.6538e-06
765.606	8.42085e-06
774.285	1.75931e-05
782.963	2.41621e-05
791.641	2.61014e-05
800.319	1.7499e-05
808.997	1.17007e-05
817.675	9.18518e-06
826.353	1.33581e-05
835.032	2.59772e-05
843.71	3.9395e-05
852.388	4.15629e-05
861.066	3.26208e-05
869.744	1.52347e-05
878.422	7.09956e-06
887.101	4.26672e-06
895.779	5.41804e-06
904.457	1.7572e-05
913.135	3.13093e-05
921.813	3.89802e-05
930.491	4.53596e-05
939.169	3.7751e-05
947.848	2.70217e-05
956.526	6.21591e-06
965.204	5.07607e-06
973.882	6.88211e-06
982.56	1.17567e-05
991.238	2.17111e-05
999.917	2.54438e-05
1008.59	2.56967e-05
1017.27	2.31975e-05
1025.95	4.07642e-05
1034.63	0.0001173
1043.31	0.000317623
1051.99	0.000521836
1060.66	0.000530072
1069.34	0.00030932
1078.02	0.000146661
1086.7	0.000104305
1095.38	0.000122574
1104.05	0.000133204
1112.73	0.000109247
1121.41	5.1554e-05
1130.09	3.21925e-05
1138.77	1.69434e-05
1147.45	1.49889e-05
1156.12	1.67904e-05
1164.8	1.86983e-05
1173.48	1.92694e-05
1182.16	2.08414e-05
1190.84	2.87909e-05
1199.51	6.06161e-05
1208.19	0.000137102
1216.87	0.000265612
1225.55	0.000678834
1234.23	0.00151686
1242.9	0.00187648
1251.58	0.00152846
1260.26	0.00069016
1268.94	0.00026674
1277.62	0.000161523
1286.3	6.88373e-05
1294.97	6.99023e-05
1303.65	9.69542e-05
1312.33	8.96164e-05
1321.01	5.67626e-05
1329.69	2.24923e-05
1338.36	1.57603e-05
1347.04	2.71999e-05
1355.72	8.95457e-05
1364.4	0.000206686
1373.08	0.000354491
1381.76	0.000359557
1390.43	0.000201277
1399.11	9.50672e-05
1407.79	7.27455e-05
1416.47	5.26475e-05
1425.15	5.30349e-05
1433.82	6.13826e-05
1442.5	6.97856e-05
1451.18	7.94859e-05
1459.86	8.24028e-05
1468.54	8.09926e-05
1477.22	7.52497e-05
1485.89	5.48184e-05
1494.57	4.29123e-05
1503.25	2.7202e-05
1511.93	1.89169e-05
1520.61	1.42727e-05
1529.28	1.35833e-05
1537.96	1.21422e-05
1546.64	1.36271e-05
1555.32	1.35983e-05
1564	1.38064e-05
1572.67	1.03163e-05
1581.35	7.12282e-06
1590.03	5.28552e-06
1598.71	5.05037e-06
1607.39	5.61429e-06
1616.07	5.35089e-06
1624.74	7.54162e-06
1633.42	8.09629e-06
1642.1	8.85862e-06
1650.78	9.50993e-06
1659.46	1.1486e-05
1668.13	1.28637e-05
1676.81	1.49148e-05
1685.49	1.60397e-05
1694.17	2.05001e-05
1702.85	2.24705e-05
1711.53	2.69947e-05
1720.2	3.14163e-05
1728.88	5.74314e-05
1737.56	0.000144984
1746.24	0.000408975
1754.92	0.00100777
1763.59	0.00101536
1772.27	0.00118943
1780.95	0.00046959
1789.63	0.00014445
1798.31	3.70006e-05
1806.98	1.73945e-05
1815.66	1.49796e-05
1824.34	1.56377e-05
1833.02	1.66768e-05
1841.7	1.55034e-05
1850.38	1.30944e-05
1859.05	1.08495e-05
1867.73	9.93301e-06
1876.41	9.75734e-06
1885.09	1.12893e-05
1893.77	1.21149e-05
1902.44	1.25163e-05
1911.12	1.00307e-05
1919.8	6.11424e-06
1928.48	4.31351e-06
1937.16	3.60541e-06
1945.84	3.58269e-06
1954.51	3.68192e-06
1963.19	3.7916e-06
1971.87	3.63276e-06
1980.55	3.34932e-06
1989.23	3.32451e-06
1997.9	4.13629e-06
2006.58	5.15254e-06
2015.26	6.09589e-06
2023.94	5.77118e-06
2032.62	4.74276e-06
2041.3	3.03823e-06
2049.97	2.79198e-06
2058.65	3.5777e-06
2067.33	5.67389e-06
2076.01	9.98229e-06
2084.69	1.3313e-05
2093.36	1.38133e-05
2102.04	9.07976e-06
2110.72	5.51178e-06
2119.4	2.80536e-06
2128.08	1.9019e-06
2136.75	1.91824e-06
2145.43	2.97643e-06
2154.11	3.46879e-06
2162.79	3.32999e-06
2171.47	2.92672e-06
2180.15	2.70373e-06
2188.82	2.30197e-06
2197.5	1.36481e-06
2206.18	1.3458e-06
2214.86	1.77189e-06
2223.54	2.23351e-06
2232.21	2.57752e-06
2240.89	2.29917e-06
2249.57	1.92019e-06
2258.25	1.41293e-06
2266.93	1.19381e-06
2275.61	1.40184e-06
2284.28	1.91748e-06
2292.96	2.59258e-06
2301.64	3.11564e-06
2310.32	3.18053e-06
2319	2.72002e-06
2327.67	2.11374e-06
2336.35	1.74104e-06
2345.03	1.50561e-06
2353.71	1.17411e-06
2362.39	1.46925e-06
2371.06	1.73718e-06
2379.74	1.75231e-06
2388.42	1.69321e-06
2397.1	1.74464e-06
2405.78	1.86546e-06
2414.46	1.95883e-06
2423.13	2.05913e-06
2431.81	1.83343e-06
2440.49	1.56923e-06
2449.17	1.73117e-06
2457.85	2.82308e-06
2466.52	4.19712e-06
2475.2	4.84304e-06
2483.88	4.37556e-06
2492.56	3.15935e-06
2501.24	1.9813e-06
2509.92	9.26064e-07
2518.59	3.13546e-07
2527.27	1.98668e-07
2535.95	4.26492e-07
2544.63	6.01652e-07
2553.31	5.98462e-07
2561.98	4.0675e-07
2570.66	3.30487e-07
2579.34	3.24037e-07
2588.02	6.2911e-07
2596.7	1.33099e-06
2605.38	2.07809e-06
2614.05	2.23473e-06
2622.73	1.75135e-06
2631.41	1.13996e-06
2640.09	7.23919e-07
2648.77	5.28136e-07
2657.44	6.17255e-07
2666.12	1.01271e-06
2674.8	1.51659e-06
2683.48	1.89775e-06
2692.16	2.12626e-06
2700.83	1.75462e-06
2709.51	1.65652e-06
2718.19	1.65826e-06
2726.87	1.95867e-06
2735.55	2.39908e-06
2744.23	2.61698e-06
2752.9	3.25903e-06
2761.58	3.48988e-06
2770.26	3.42894e-06
2778.94	3.51992e-06
2787.62	3.48146e-06
2796.29	3.24157e-06
2804.97	3.40958e-06
2813.65	4.69749e-06
2822.33	5.68414e-06
2831.01	6.66561e-06
2839.69	7.72679e-06
2848.36	9.77459e-06
2857.04	1.20525e-05
2865.72	1.3907e-05
2874.4	2.27505e-05
2883.08	3.50646e-05
2891.75	4.39344e-05
2900.43	4.88901e-05
2909.11	5.72992e-05
2917.79	5.82393e-05
2926.47	6.06651e-05
2935.14	7.75755e-05
2943.82	0.000105053
2952.5	0.00011894
2961.18	0.000120468
2969.86	0.000134973
2978.54	0.000207765
2987.21	0.000252565
2995.89	0.000320542
3004.57	0.00017665
3013.25	0.000114721
3021.93	5.83334e-05
3030.6	3.46159e-05
3039.28	2.66918e-05
3047.96	2.23441e-05
3056.64	2.06505e-05
3065.32	1.77821e-05
3074	1.41365e-05
3082.67	1.05367e-05
3091.35	8.20711e-06
3100.03	6.9265e-06
3108.71	5.66837e-06
3117.39	4.5941e-06
3126.06	4.13692e-06
3134.74	4.01246e-06
3143.42	3.24044e-06
3152.1	2.80724e-06
3160.78	2.273e-06
3169.46	2.2886e-06
3178.13	2.64472e-06
3186.81	2.87264e-06
3195.49	2.62999e-06
3204.17	2.28853e-06
3212.85	1.81405e-06
3221.52	1.42024e-06
3230.2	1.12219e-06
3238.88	9.82486e-07
3247.56	6.51384e-07
3256.24	3.52918e-07
3264.91	1.40965e-07
3273.59	1.03066e-07
3282.27	7.16719e-08
3290.95	1.94775e-07
3299.63	1.93335e-07
3308.31	1.58473e-07
3316.98	1.89217e-07
3325.66	1.39233e-07
3334.34	8.95263e-08
3343.02	-4.75351e-08
3351.7	1.46451e-07
3360.37	2.25005e-07
3369.05	2.28814e-07
3377.73	-3.30603e-08
3386.41	-1.02448e-07
3395.09	-1.27661e-07
3403.77	-4.85574e-08
3412.44	4.87938e-08
3421.12	2.21702e-07
3429.8	3.28271e-07
3438.48	3.55831e-07
3447.16	1.70078e-07
3455.83	2.54704e-07
3464.51	8.48226e-08
3473.19	1.93167e-09
3481.87	7.81534e-07
3490.55	3.44054e-06
3499.22	9.05895e-06
3507.9	1.09479e-05
3516.58	1.2236e-05
3525.26	4.58624e-06
3533.94	2.48669e-07
3542.62	-1.2164e-06
3551.29	-1.49629e-06
3559.97	-1.45802e-06
3568.65	-1.4663e-06
3577.33	-8.69933e-07
3586.01	-8.00425e-07
3594.68	-4.39563e-07
3603.36	-1.64261e-07
3612.04	-5.96414e-07
3620.72	-6.12336e-07
3629.4	-1.54777e-06
3638.08	-4.66442e-07
3646.75	-9.3829e-07
3655.43	-7.94921e-07
3664.11	-4.58054e-07
3672.79	-4.23698e-07
3681.47	-3.81409e-07
3690.14	-7.48339e-07
3698.82	-3.54998e-07
3707.5	-4.74089e-07
3716.18	-3.78946e-07
3724.86	-5.10336e-07
3733.54	-6.29292e-07
3742.21	-3.89514e-07
3750.89	-8.93567e-07
3759.57	-4.56617e-07
3768.25	6.44254e-09
3776.93	4.8732e-08
3785.6	-6.45346e-08
3794.28	-3.57596e-08
3802.96	-3.89499e-07
3811.64	-3.79714e-08
3820.32	-7.59071e-07
3828.99	4.34353e-09
3837.67	-1.59638e-06
3846.35	7.42366e-08
3855.03	-1.4613e-06
3863.71	-1.51918e-07
3872.39	2.19359e-08
3881.06	-3.27184e-07
3889.74	1.49368e-08
3898.42	-1.3478e-07
3907.1	1.23172e-07
3915.78	2.12789e-07
3924.45	1.77063e-07
3933.13	2.6839e-07
3941.81	4.55001e-07
3950.49	6.74354e-07
3959.17	6.79035e-07
3967.85	7.96322e-07
