Infrared Spectrum: Ethyl Ester Acetic Acid
Formula: C H3 C O2 C H2 C H3
CAS: 141-78-6
State: gas
Melting point: -83.58 C
Boiling point: 77.06 C
Class: IUPAC A
Instrument: IFS66V (Bruker)
Instrument parameters: KBr Beam splitter; MCT Detector; Multipass cell
Sampling: 1 L/min Flow
Resolution: 0.1250
Temperature: 23 C
Pressure: 101.3 kPa
Origin: NIST, Anayltical Chemistry Division, 301-975-3108
cm-1	(micromol/mol)-1m-1 (base 10)
574.988	-1.01572e-06
583.546	3.18598e-06
592.103	9.85236e-06
600.661	1.98417e-05
609.219	3.0154e-05
617.776	2.90418e-05
626.334	5.10678e-05
634.891	4.19361e-05
643.449	3.09447e-05
652.007	5.75439e-06
660.564	1.58618e-06
669.122	4.9143e-07
677.68	3.70168e-07
686.237	5.39991e-07
694.795	-1.41518e-07
703.352	-2.12666e-08
711.91	2.34482e-07
720.468	4.32196e-07
729.025	6.93186e-07
737.583	8.39732e-07
746.141	1.26197e-06
754.698	2.86349e-06
763.256	6.96237e-06
771.813	1.47755e-05
780.371	2.45249e-05
788.929	2.66952e-05
797.486	2.04806e-05
806.044	1.29804e-05
814.602	9.19091e-06
823.159	1.09186e-05
831.717	2.0085e-05
840.274	3.65614e-05
848.832	4.09535e-05
857.39	3.94059e-05
865.947	2.18437e-05
874.505	9.86471e-06
883.063	5.14009e-06
891.62	4.38997e-06
900.178	9.34043e-06
908.735	2.60584e-05
917.293	3.35757e-05
925.851	4.13767e-05
934.408	4.14291e-05
942.966	3.26553e-05
951.524	1.30074e-05
960.081	5.22914e-06
968.639	5.47386e-06
977.196	8.22688e-06
985.754	1.47839e-05
994.312	2.44535e-05
1002.87	2.56853e-05
1011.43	2.41995e-05
1019.98	2.59602e-05
1028.54	5.39499e-05
1037.1	0.000159713
1045.66	0.000386267
1054.22	0.000536816
1062.77	0.000508516
1071.33	0.000246694
1079.89	0.000131783
1088.45	0.000104188
1097	0.000128086
1105.56	0.00012134
1114.12	0.000100213
1122.68	4.68081e-05
1131.23	2.89868e-05
1139.79	1.63688e-05
1148.35	1.51057e-05
1156.91	1.71773e-05
1165.46	1.84814e-05
1174.02	1.92113e-05
1182.58	2.0998e-05
1191.14	2.92584e-05
1199.69	6.14752e-05
1208.25	0.000137661
1216.81	0.000263382
1225.37	0.000661144
1233.93	0.00150065
1242.48	0.00187905
1251.04	0.00160456
1259.6	0.000747313
1268.16	0.000277967
1276.71	0.000179459
1285.27	7.32195e-05
1293.83	6.68545e-05
1302.39	9.26005e-05
1310.94	9.53883e-05
1319.5	6.53798e-05
1328.06	2.58928e-05
1336.62	1.5807e-05
1345.17	2.16772e-05
1353.73	7.22056e-05
1362.29	0.000171787
1370.85	0.000350711
1379.4	0.000336843
1387.96	0.00027019
1396.52	0.000114395
1405.08	8.03784e-05
1413.64	5.64827e-05
1422.19	5.23138e-05
1430.75	5.8402e-05
1439.31	6.63903e-05
1447.87	7.26549e-05
1456.42	7.81612e-05
1464.98	7.91338e-05
1473.54	7.18238e-05
1482.1	6.7385e-05
1490.65	4.71838e-05
1499.21	3.34749e-05
1507.77	2.18827e-05
1516.33	1.6378e-05
1524.88	1.42027e-05
1533.44	1.26195e-05
1542	9.92109e-06
1550.56	1.38331e-05
1559.11	1.4178e-05
1567.67	1.20754e-05
1576.23	1.21891e-06
1584.79	5.82039e-06
1593.35	5.16182e-06
1601.9	5.14972e-06
1610.46	5.9596e-06
1619.02	7.0904e-06
1627.58	7.69869e-06
1636.13	7.83691e-06
1644.69	9.10108e-06
1653.25	5.00325e-07
1661.81	1.20092e-05
1670.36	1.35297e-05
1678.92	1.56234e-05
1687.48	1.85982e-05
1696.04	1.42161e-05
1704.59	2.23035e-05
1713.15	2.81648e-05
1721.71	3.27536e-05
1730.27	6.36942e-05
1738.83	0.000169164
1747.38	0.000464321
1755.94	0.00108665
1764.5	0.000999414
1773.06	0.00112389
1781.61	0.000432668
1790.17	0.000131753
1798.73	3.48257e-05
1807.29	1.71585e-05
1815.84	1.49787e-05
1824.4	1.58327e-05
1832.96	1.66807e-05
1841.52	1.55956e-05
1850.07	1.32329e-05
1858.63	1.08813e-05
1867.19	1.01661e-05
1875.75	9.68418e-06
1884.3	1.12023e-05
1892.86	1.20368e-05
1901.42	1.26627e-05
1909.98	1.02994e-05
1918.54	6.59777e-06
1927.09	4.4247e-06
1935.65	3.66344e-06
1944.21	3.626e-06
1952.77	3.74879e-06
1961.32	3.83489e-06
1969.88	3.6929e-06
1978.44	3.51358e-06
1987	3.27303e-06
1995.55	3.9159e-06
2004.11	4.96428e-06
2012.67	6.0271e-06
2021.23	5.90981e-06
2029.78	5.27411e-06
2038.34	3.39616e-06
2046.9	2.71095e-06
2055.46	3.12586e-06
2064.01	4.64408e-06
2072.57	8.15881e-06
2081.13	1.21533e-05
2089.69	1.41034e-05
2098.25	1.11761e-05
2106.8	7.13743e-06
2115.36	3.87098e-06
2123.92	2.24425e-06
2132.48	1.81938e-06
2141.03	2.4266e-06
2149.59	3.35077e-06
2158.15	3.47675e-06
2166.71	3.19879e-06
2175.26	2.82357e-06
2183.82	2.57682e-06
2192.38	2.02964e-06
2200.94	1.29161e-06
2209.49	1.54773e-06
2218.05	2.01234e-06
2226.61	2.56601e-06
2235.17	2.62424e-06
2243.72	2.25623e-06
2252.28	1.71553e-06
2260.84	1.25217e-06
2269.4	1.19898e-06
2277.96	1.52478e-06
2286.51	2.06536e-06
2295.07	2.67561e-06
2303.63	3.19908e-06
2312.19	3.01126e-06
2320.74	2.63485e-06
2329.3	2.18389e-06
2337.86	1.62971e-06
2346.42	1.40176e-06
2354.97	1.19118e-06
2363.53	1.58225e-06
2372.09	1.85616e-06
2380.65	1.78221e-06
2389.2	1.72642e-06
2397.76	1.73027e-06
2406.32	1.92686e-06
2414.88	1.96867e-06
2423.44	2.02317e-06
2431.99	1.88327e-06
2440.55	1.53023e-06
2449.11	1.73361e-06
2457.67	2.75091e-06
2466.22	4.1161e-06
2474.78	4.98355e-06
2483.34	4.39412e-06
2491.9	3.21856e-06
2500.45	1.99746e-06
2509.01	9.09334e-07
2517.57	3.43943e-07
2526.13	1.42631e-07
2534.68	3.6402e-07
2543.24	4.78138e-07
2551.8	6.09059e-07
2560.36	4.34368e-07
2568.91	4.06979e-07
2577.47	3.88615e-07
2586.03	5.83125e-07
2594.59	1.10044e-06
2603.15	1.7941e-06
2611.7	2.42829e-06
2620.26	1.95278e-06
2628.82	1.29343e-06
2637.38	8.50008e-07
2645.93	5.38151e-07
2654.49	6.58278e-07
2663.05	9.49164e-07
2671.61	1.3745e-06
2680.16	1.55477e-06
2688.72	1.98548e-06
2697.28	1.90998e-06
2705.84	1.88083e-06
2714.39	1.52554e-06
2722.95	1.80917e-06
2731.51	2.14878e-06
2740.07	2.37896e-06
2748.62	3.07575e-06
2757.18	3.43436e-06
2765.74	3.53202e-06
2774.3	3.45544e-06
2782.86	3.55256e-06
2791.41	3.65801e-06
2799.97	3.21121e-06
2808.53	3.84312e-06
2817.09	5.13023e-06
2825.64	6.14273e-06
2834.2	6.95981e-06
2842.76	8.53001e-06
2851.32	1.05466e-05
2859.87	1.25556e-05
2868.43	1.55207e-05
2876.99	2.80385e-05
2885.55	3.70837e-05
2894.1	4.60521e-05
2902.66	5.06423e-05
2911.22	5.95805e-05
2919.78	5.68366e-05
2928.34	6.10542e-05
2936.89	8.51875e-05
2945.45	0.000108297
2954.01	0.000118635
2962.57	0.000121645
2971.12	0.000139539
2979.68	0.000219406
2988.24	0.000255796
2996.8	0.000287567
3005.35	0.000168187
3013.91	0.000110035
3022.47	5.58505e-05
3031.03	3.38798e-05
3039.58	2.65673e-05
3048.14	2.21837e-05
3056.7	2.06865e-05
3065.26	1.77653e-05
3073.81	1.42966e-05
3082.37	1.06501e-05
3090.93	8.3757e-06
3099.49	7.2596e-06
3108.05	5.69388e-06
3116.6	4.71521e-06
3125.16	4.21304e-06
3133.72	4.13837e-06
3142.28	3.52913e-06
3150.83	2.97075e-06
3159.39	2.26699e-06
3167.95	2.41042e-06
3176.51	2.55046e-06
3185.06	2.48308e-06
3193.62	2.7383e-06
3202.18	2.12119e-06
3210.74	2.09796e-06
3219.29	1.65126e-06
3227.85	1.49507e-06
3236.41	1.03566e-06
3244.97	8.08883e-07
3253.52	4.58497e-07
3262.08	1.49284e-07
3270.64	2.07646e-07
3279.2	2.11986e-07
3287.76	2.50142e-07
3296.31	1.2577e-07
3304.87	1.36647e-07
3313.43	2.44333e-07
3321.99	-9.28949e-08
3330.54	-2.29436e-08
3339.1	-2.87208e-07
3347.66	2.51445e-08
3356.22	2.7174e-07
3364.77	-1.01713e-07
3373.33	2.7489e-07
3381.89	-5.11984e-08
3390.45	9.36915e-08
3399	-6.55386e-08
3407.56	3.16125e-09
3416.12	1.61751e-07
3424.68	5.09729e-07
3433.23	1.16842e-07
3441.79	-1.46312e-08
3450.35	3.88499e-07
3458.91	4.33029e-07
3467.47	1.68794e-08
3476.02	2.7313e-07
3484.58	1.48002e-06
3493.14	4.78828e-06
3501.7	1.06511e-05
3510.25	1.066e-05
3518.81	1.04731e-05
3527.37	3.15796e-06
3535.93	-2.14401e-07
3544.48	-1.34459e-06
3553.04	-1.43269e-06
3561.6	-1.44069e-06
3570.16	-1.34359e-06
3578.71	-9.77153e-07
3587.27	-5.43917e-07
3595.83	-2.87499e-07
3604.39	-2.71103e-07
3612.95	-4.64282e-07
3621.5	-5.34407e-07
3630.06	-6.42417e-07
3638.62	-2.70492e-07
3647.18	-1.46823e-06
3655.73	-5.75147e-07
3664.29	-2.7787e-07
3672.85	-4.45863e-07
3681.41	-6.41311e-07
3689.96	-4.75635e-07
3698.52	-2.62525e-07
3707.08	-4.84278e-07
3715.64	-4.64089e-07
3724.19	-3.45675e-07
3732.75	-4.22698e-07
3741.31	-1.04556e-06
3749.87	-8.70755e-07
3758.42	-1.34817e-08
3766.98	2.07889e-07
3775.54	4.04014e-08
3784.1	-1.96532e-07
3792.66	3.52295e-07
3801.21	-2.1456e-06
3809.77	-1.6102e-07
3818.33	-4.62474e-08
3826.89	-5.36175e-07
3835.44	-4.71532e-08
3844	-2.79012e-07
3852.56	-4.58898e-07
3861.12	2.42936e-07
3869.67	-3.42972e-07
3878.23	1.34071e-07
3886.79	2.5199e-07
3895.35	3.17187e-07
3903.9	-2.38658e-07
3912.46	1.17825e-07
3921.02	1.20844e-07
3929.58	1.76579e-07
3938.13	4.40287e-07
3946.69	5.14701e-07
3955.25	5.13534e-07
3963.81	5.92434e-07
3972.37	9.22302e-07
