Infrared Spectrum: Ethyl Ester Acetic Acid
Formula: C H3 C O2 C H2 C H3
CAS: 141-78-6
State: gas
Melting point: -83.58 C
Boiling point: 77.06 C
Class: IUPAC A
Instrument: IFS66V (Bruker)
Instrument parameters: KBr Beam splitter; MCT Detector; Multipass cell
Sampling: 1 L/min Flow
Resolution: 0.9640
Temperature: 23 C
Pressure: 101.3 kPa
Origin: NIST, Anayltical Chemistry Division, 301-975-3108
cm-1	(micromol/mol)-1m-1 (base 10)
575.169	7.76707e-08
583.847	3.78856e-06
592.525	1.11522e-05
601.203	2.04276e-05
609.882	2.97445e-05
618.56	3.01202e-05
627.238	5.20455e-05
635.916	4.315e-05
644.594	2.73353e-05
653.272	4.28588e-06
661.951	1.41313e-06
670.629	8.12543e-07
679.307	4.1763e-07
687.985	3.51346e-07
696.663	3.6175e-07
705.341	3.02476e-07
714.019	4.26092e-07
722.698	4.85108e-07
731.376	7.04893e-07
740.054	9.0376e-07
748.732	1.65114e-06
757.41	3.87089e-06
766.088	8.83223e-06
774.767	1.81908e-05
783.445	2.39575e-05
792.123	2.58295e-05
800.801	1.7044e-05
809.479	1.17584e-05
818.157	9.21457e-06
826.835	1.38752e-05
835.514	2.69334e-05
844.192	3.94223e-05
852.87	4.15246e-05
861.548	3.15105e-05
870.226	1.45171e-05
878.904	6.77285e-06
887.583	4.19652e-06
896.261	5.62266e-06
904.939	1.87371e-05
913.617	3.28088e-05
922.295	3.93719e-05
930.973	4.56292e-05
939.651	3.86037e-05
948.33	2.5023e-05
957.008	5.97448e-06
965.686	5.10387e-06
974.364	7.04021e-06
983.042	1.21568e-05
991.72	2.2269e-05
1000.4	2.54473e-05
1009.08	2.55336e-05
1017.75	2.34408e-05
1026.43	4.26723e-05
1035.11	0.000124456
1043.79	0.000332103
1052.47	0.000527157
1061.15	0.000527851
1069.82	0.000292309
1078.5	0.000142411
1087.18	0.000103827
1095.86	0.000124058
1104.54	0.000137812
1113.21	0.000106586
1121.89	4.9511e-05
1130.57	3.08371e-05
1139.25	1.66294e-05
1147.93	1.50604e-05
1156.61	1.69346e-05
1165.28	1.86624e-05
1173.96	1.92161e-05
1182.64	2.10529e-05
1191.32	2.96234e-05
1200	6.35392e-05
1208.67	0.000142462
1217.35	0.000275221
1226.03	0.000719651
1234.71	0.00154965
1243.39	0.00185133
1252.07	0.00146129
1260.74	0.000648597
1269.42	0.000259291
1278.1	0.000152032
1286.78	6.69298e-05
1295.46	7.11594e-05
1304.13	9.84931e-05
1312.81	8.77436e-05
1321.49	5.39389e-05
1330.17	2.15878e-05
1338.85	1.56765e-05
1347.52	2.89259e-05
1356.2	9.35761e-05
1364.88	0.000219167
1373.56	0.000354218
1382.24	0.000364032
1390.92	0.000189097
1399.59	9.25856e-05
1408.27	7.09991e-05
1416.95	5.21871e-05
1425.63	5.3395e-05
1434.31	6.17951e-05
1442.98	7.01958e-05
1451.66	8.07859e-05
1460.34	8.33596e-05
1469.02	8.13983e-05
1477.7	7.51624e-05
1486.38	5.3381e-05
1495.05	4.19991e-05
1503.73	2.65249e-05
1512.41	1.82819e-05
1521.09	1.30692e-05
1529.77	1.36178e-05
1538.44	1.16829e-05
1547.12	1.37266e-05
1555.8	1.4092e-05
1564.48	1.34504e-05
1573.16	1.02014e-05
1581.83	6.90447e-06
1590.51	5.24874e-06
1599.19	5.05616e-06
1607.87	5.67116e-06
1616.55	3.79777e-06
1625.23	7.78811e-06
1633.9	8.1352e-06
1642.58	8.92258e-06
1651.26	9.58032e-06
1659.94	1.15916e-05
1668.62	1.28449e-05
1677.29	1.51536e-05
1685.97	1.77331e-05
1694.65	2.05708e-05
1703.33	2.27328e-05
1712.01	2.73743e-05
1720.69	3.15994e-05
1729.36	5.94487e-05
1738.04	0.000153638
1746.72	0.000431108
1755.4	0.00104627
1764.08	0.00100323
1772.75	0.00114877
1781.43	0.00044255
1790.11	0.00013313
1798.79	3.45825e-05
1807.47	1.69833e-05
1816.15	1.49968e-05
1824.82	1.54528e-05
1833.5	1.6681e-05
1842.18	1.53674e-05
1850.86	1.29575e-05
1859.54	1.07604e-05
1868.21	9.91208e-06
1876.89	9.81739e-06
1885.57	1.13271e-05
1894.25	1.21707e-05
1902.93	1.24289e-05
1911.6	9.79716e-06
1920.28	5.9438e-06
1928.96	4.24309e-06
1937.64	3.58722e-06
1946.32	3.5606e-06
1955	3.71822e-06
1963.67	3.78428e-06
1972.35	3.65059e-06
1981.03	3.3175e-06
1989.71	3.36522e-06
1998.39	4.21556e-06
2007.06	5.20869e-06
2015.74	6.1189e-06
2024.42	5.73443e-06
2033.1	4.63709e-06
2041.78	2.9864e-06
2050.46	2.81376e-06
2059.13	3.65124e-06
2067.81	5.83769e-06
2076.49	1.02907e-05
2085.17	1.34431e-05
2093.85	1.36549e-05
2102.52	8.82798e-06
2111.2	5.27977e-06
2119.88	2.66064e-06
2128.56	1.91294e-06
2137.24	1.95631e-06
2145.91	3.0304e-06
2154.59	3.40783e-06
2163.27	3.34556e-06
2171.95	2.91036e-06
2180.63	2.76783e-06
2189.31	2.26931e-06
2197.98	1.33483e-06
2206.66	1.34728e-06
2215.34	1.78938e-06
2224.02	2.24401e-06
2232.7	2.58586e-06
2241.37	2.28822e-06
2250.05	1.9033e-06
2258.73	1.3939e-06
2267.41	1.18748e-06
2276.09	1.44253e-06
2284.77	1.95862e-06
2293.44	2.63774e-06
2302.12	3.12449e-06
2310.8	3.14263e-06
2319.48	2.69753e-06
2328.16	2.07405e-06
2336.83	1.72335e-06
2345.51	1.48782e-06
2354.19	1.17955e-06
2362.87	1.48355e-06
2371.55	1.72883e-06
2380.23	1.73315e-06
2388.9	1.69619e-06
2397.58	1.75207e-06
2406.26	1.88958e-06
2414.94	1.96875e-06
2423.62	2.0596e-06
2432.29	1.82336e-06
2440.97	1.55636e-06
2449.65	1.76679e-06
2458.33	2.8857e-06
2467.01	4.29582e-06
2475.68	4.85743e-06
2484.36	4.3249e-06
2493.04	3.10939e-06
2501.72	1.94209e-06
2510.4	9.05441e-07
2519.08	3.04433e-07
2527.75	2.3371e-07
2536.43	4.40152e-07
2545.11	5.91645e-07
2553.79	6.11059e-07
2562.47	4.54114e-07
2571.14	3.35325e-07
2579.82	3.21945e-07
2588.5	6.61861e-07
2597.18	1.40713e-06
2605.86	2.11702e-06
2614.54	2.25912e-06
2623.21	1.6853e-06
2631.89	1.09618e-06
2640.57	7.30117e-07
2649.25	4.9736e-07
2657.93	6.4727e-07
2666.6	1.02311e-06
2675.28	1.5362e-06
2683.96	1.88476e-06
2692.64	2.13855e-06
2701.32	1.71174e-06
2709.99	1.64895e-06
2718.67	1.62352e-06
2727.35	1.98888e-06
2736.03	2.43979e-06
2744.71	2.66655e-06
2753.39	3.23728e-06
2762.06	3.46822e-06
2770.74	3.4765e-06
2779.42	3.52867e-06
2788.1	3.50267e-06
2796.78	3.19396e-06
2805.45	3.48228e-06
2814.13	4.78277e-06
2822.81	5.71988e-06
2831.49	6.72456e-06
2840.17	7.82008e-06
2848.85	9.90333e-06
2857.52	1.21224e-05
2866.2	1.40657e-05
2874.88	2.36367e-05
2883.56	3.51345e-05
2892.24	4.44611e-05
2900.91	4.93715e-05
2909.59	5.79402e-05
2918.27	5.75944e-05
2926.95	6.0742e-05
2935.63	7.96219e-05
2944.31	0.000106686
2952.98	0.000118638
2961.66	0.000120684
2970.34	0.000136428
2979.02	0.00021269
2987.7	0.000253774
2996.37	0.00030373
3005.05	0.000171311
3013.73	0.00011117
3022.41	5.61317e-05
3031.09	3.38294e-05
3039.76	2.63615e-05
3048.44	2.21545e-05
3057.12	2.06008e-05
3065.8	1.75874e-05
3074.48	1.39542e-05
3083.16	1.03453e-05
3091.83	8.08517e-06
3100.51	6.85267e-06
3109.19	5.57067e-06
3117.87	4.51539e-06
3126.55	4.14161e-06
3135.22	3.96783e-06
3143.9	3.19466e-06
3152.58	2.7447e-06
3161.26	2.23403e-06
3169.94	2.29042e-06
3178.62	2.66677e-06
3187.29	2.90148e-06
3195.97	2.63638e-06
3204.65	2.23668e-06
3213.33	1.82257e-06
3222.01	1.43582e-06
3230.68	1.14951e-06
3239.36	1.02332e-06
3248.04	5.71688e-07
3256.72	3.02047e-07
3265.4	9.43573e-08
3274.07	4.29806e-08
3282.75	1.07457e-07
3291.43	1.82436e-07
3300.11	1.938e-07
3308.79	1.44566e-07
3317.47	1.69794e-07
3326.14	1.24169e-07
3334.82	2.87277e-08
3343.5	-1.41962e-07
3352.18	1.77903e-07
3360.86	2.68521e-07
3369.53	2.13084e-07
3378.21	-4.24786e-08
3386.89	-3.76476e-08
3395.57	-1.02237e-07
3404.25	1.33798e-08
3412.93	9.88099e-08
3421.6	2.66352e-07
3430.28	3.60575e-07
3438.96	3.25048e-07
3447.64	1.20862e-07
3456.32	2.1686e-07
3464.99	8.45789e-09
3473.67	6.74084e-09
3482.35	8.32962e-07
3491.03	3.74172e-06
3499.71	9.46888e-06
3508.39	1.08018e-05
3517.06	1.20069e-05
3525.74	4.15938e-06
3534.42	1.22452e-07
3543.1	-1.32506e-06
3551.78	-1.53297e-06
3560.45	-1.45752e-06
3569.13	-1.26128e-06
3577.81	-8.29928e-07
3586.49	-1.11582e-06
3595.17	-5.31664e-07
3603.84	-8.87914e-08
3612.52	-9.85491e-07
3621.2	-4.61375e-07
3629.88	-1.70054e-06
3638.56	-4.82594e-07
3647.24	-1.25998e-06
3655.91	-1.24726e-06
3664.59	-4.96083e-07
3673.27	-4.1121e-07
3681.95	-3.69619e-07
3690.63	-7.52897e-07
3699.3	-3.58152e-07
3707.98	-4.81485e-07
3716.66	-3.79881e-07
3725.34	-5.89393e-07
3734.02	-5.40948e-07
3742.7	-2.86971e-07
3751.37	-6.88945e-07
3760.05	-6.84354e-07
3768.73	-1.04405e-09
3777.41	5.68224e-09
3786.09	4.40538e-09
3794.76	-5.62586e-08
3803.44	-2.49589e-07
3812.12	-5.03071e-08
3820.8	-1.22981e-06
3829.48	-3.36205e-08
3838.16	-2.32858e-06
3846.83	6.86853e-08
3855.51	6.10423e-09
3864.19	-2.08064e-07
3872.87	2.4275e-08
3881.55	-9.7544e-08
3890.22	3.16489e-08
3898.9	-3.49458e-07
3907.58	1.32536e-07
3916.26	1.80555e-07
3924.94	1.03721e-07
3933.61	3.88939e-07
3942.29	3.29636e-07
3950.97	7.88013e-07
3959.65	6.28059e-07
3968.33	8.25028e-07
