Infrared Spectrum: Ethyl Ester Acetic Acid
Formula: C H3 C O2 C H2 C H3
CAS: 141-78-6
State: gas
Melting point: -83.58 C
Boiling point: 77.06 C
Class: IUPAC A
Instrument: IFS66V (Bruker)
Instrument parameters: KBr Beam splitter; MCT Detector; Multipass cell
Sampling: 1 L/min Flow
Resolution: 0.1250
Temperature: 23 C
Pressure: 101.3 kPa
Origin: NIST, Anayltical Chemistry Division, 301-975-3108
cm-1	(micromol/mol)-1m-1 (base 10)
574.988	-9.21113e-07
583.546	3.21395e-06
592.103	9.95826e-06
600.661	1.98455e-05
609.219	3.01882e-05
617.776	2.90617e-05
626.334	5.1013e-05
634.891	4.19106e-05
643.449	3.09696e-05
652.007	5.7609e-06
660.564	1.6106e-06
669.122	5.10667e-07
677.68	4.11686e-07
686.237	5.37962e-07
694.795	-1.00956e-07
703.352	6.8718e-09
711.91	2.43696e-07
720.468	4.54165e-07
729.025	6.83299e-07
737.583	8.67881e-07
746.141	1.2896e-06
754.698	2.86806e-06
763.256	6.92759e-06
771.813	1.47382e-05
780.371	2.44883e-05
788.929	2.66682e-05
797.486	2.05007e-05
806.044	1.29774e-05
814.602	9.22369e-06
823.159	1.09542e-05
831.717	2.0105e-05
840.274	3.65276e-05
848.832	4.09343e-05
857.39	3.93827e-05
865.947	2.18432e-05
874.505	9.90538e-06
883.063	5.14728e-06
891.62	4.41951e-06
900.178	9.36902e-06
908.735	2.60537e-05
917.293	3.35807e-05
925.851	4.13744e-05
934.408	4.1394e-05
942.966	3.26311e-05
951.524	1.30666e-05
960.081	5.27498e-06
968.639	5.51186e-06
977.196	8.27241e-06
985.754	1.48362e-05
994.312	2.44782e-05
1002.87	2.57363e-05
1011.43	2.42759e-05
1019.98	2.60921e-05
1028.54	5.41508e-05
1037.1	0.000159909
1045.66	0.000385969
1054.22	0.00053628
1062.77	0.000507872
1071.33	0.000246893
1079.89	0.00013194
1088.45	0.000104323
1097	0.000127996
1105.56	0.000121446
1114.12	0.000100168
1122.68	4.69344e-05
1131.23	2.90703e-05
1139.79	1.64543e-05
1148.35	1.51877e-05
1156.91	1.72508e-05
1165.46	1.8596e-05
1174.02	1.93217e-05
1182.58	2.11537e-05
1191.14	2.94774e-05
1199.69	6.17789e-05
1208.25	0.000138012
1216.81	0.000264012
1225.37	0.000661674
1233.93	0.00149897
1242.48	0.00187828
1251.04	0.0016028
1259.6	0.000747463
1268.16	0.000279029
1276.71	0.000179782
1285.27	7.35868e-05
1293.83	6.70901e-05
1302.39	9.26862e-05
1310.94	9.53733e-05
1319.5	6.54438e-05
1328.06	2.60282e-05
1336.62	1.59786e-05
1345.17	2.1846e-05
1353.73	7.23175e-05
1362.29	0.000171519
1370.85	0.00035019
1379.4	0.000336823
1387.96	0.000269973
1396.52	0.000114536
1405.08	8.05086e-05
1413.64	5.65518e-05
1422.19	5.23649e-05
1430.75	5.84504e-05
1439.31	6.6416e-05
1447.87	7.27774e-05
1456.42	7.82583e-05
1464.98	7.93335e-05
1473.54	7.22654e-05
1482.1	6.7351e-05
1490.65	4.71863e-05
1499.21	3.34592e-05
1507.77	2.18712e-05
1516.33	1.64366e-05
1524.88	1.42283e-05
1533.44	1.25922e-05
1542	1.00857e-05
1550.56	1.38275e-05
1559.11	1.40784e-05
1567.67	1.20848e-05
1576.23	1.85342e-06
1584.79	5.85878e-06
1593.35	5.1723e-06
1601.9	5.17178e-06
1610.46	5.97449e-06
1619.02	7.094e-06
1627.58	7.69502e-06
1636.13	7.80132e-06
1644.69	9.11843e-06
1653.25	1.15675e-06
1661.81	1.20217e-05
1670.36	1.35537e-05
1678.92	1.56526e-05
1687.48	1.86159e-05
1696.04	1.46747e-05
1704.59	2.24198e-05
1713.15	2.82765e-05
1721.71	3.29423e-05
1730.27	6.39898e-05
1738.83	0.000169562
1747.38	0.000464585
1755.94	0.00108507
1764.5	0.000999138
1773.06	0.00112214
1781.61	0.000433024
1790.17	0.000132206
1798.73	3.51516e-05
1807.29	1.73415e-05
1815.84	1.50939e-05
1824.4	1.59015e-05
1832.96	1.67253e-05
1841.52	1.5629e-05
1850.07	1.32577e-05
1858.63	1.09198e-05
1867.19	1.01817e-05
1875.75	9.70679e-06
1884.3	1.12144e-05
1892.86	1.20452e-05
1901.42	1.26671e-05
1909.98	1.03338e-05
1918.54	6.59637e-06
1927.09	4.45175e-06
1935.65	3.67748e-06
1944.21	3.63105e-06
1952.77	3.75244e-06
1961.32	3.83535e-06
1969.88	3.6952e-06
1978.44	3.51708e-06
1987	3.28056e-06
1995.55	3.91596e-06
2004.11	4.95878e-06
2012.67	6.01515e-06
2021.23	5.91864e-06
2029.78	5.2665e-06
2038.34	3.40629e-06
2046.9	2.72374e-06
2055.46	3.13767e-06
2064.01	4.64543e-06
2072.57	8.15444e-06
2081.13	1.21435e-05
2089.69	1.40922e-05
2098.25	1.11774e-05
2106.8	7.13318e-06
2115.36	3.86104e-06
2123.92	2.23484e-06
2132.48	1.81607e-06
2141.03	2.4433e-06
2149.59	3.35016e-06
2158.15	3.47738e-06
2166.71	3.19424e-06
2175.26	2.83457e-06
2183.82	2.57888e-06
2192.38	2.02703e-06
2200.94	1.29524e-06
2209.49	1.55543e-06
2218.05	2.00992e-06
2226.61	2.55636e-06
2235.17	2.61461e-06
2243.72	2.25053e-06
2252.28	1.72412e-06
2260.84	1.25865e-06
2269.4	1.20315e-06
2277.96	1.52223e-06
2286.51	2.07224e-06
2295.07	2.68245e-06
2303.63	3.2062e-06
2312.19	3.02102e-06
2320.74	2.63419e-06
2329.3	2.17143e-06
2337.86	1.63343e-06
2346.42	1.40142e-06
2354.97	1.19501e-06
2363.53	1.57642e-06
2372.09	1.84944e-06
2380.65	1.77653e-06
2389.2	1.7299e-06
2397.76	1.73609e-06
2406.32	1.9282e-06
2414.88	1.96871e-06
2423.44	2.03015e-06
2431.99	1.87701e-06
2440.55	1.53674e-06
2449.11	1.73586e-06
2457.67	2.75534e-06
2466.22	4.11498e-06
2474.78	4.96862e-06
2483.34	4.3997e-06
2491.9	3.22208e-06
2500.45	2.01349e-06
2509.01	9.2052e-07
2517.57	3.53503e-07
2526.13	1.50838e-07
2534.68	3.71732e-07
2543.24	4.88593e-07
2551.8	6.14035e-07
2560.36	4.34444e-07
2568.91	4.01606e-07
2577.47	3.89852e-07
2586.03	5.76948e-07
2594.59	1.11028e-06
2603.15	1.80898e-06
2611.7	2.41708e-06
2620.26	1.94592e-06
2628.82	1.29989e-06
2637.38	8.52817e-07
2645.93	5.37641e-07
2654.49	6.53669e-07
2663.05	9.39695e-07
2671.61	1.37786e-06
2680.16	1.57676e-06
2688.72	1.98907e-06
2697.28	1.90657e-06
2705.84	1.87797e-06
2714.39	1.53638e-06
2722.95	1.80759e-06
2731.51	2.15144e-06
2740.07	2.39444e-06
2748.62	3.07014e-06
2757.18	3.43154e-06
2765.74	3.52097e-06
2774.3	3.46701e-06
2782.86	3.55101e-06
2791.41	3.63501e-06
2799.97	3.22504e-06
2808.53	3.84081e-06
2817.09	5.14919e-06
2825.64	6.13384e-06
2834.2	6.96381e-06
2842.76	8.52944e-06
2851.32	1.05426e-05
2859.87	1.2567e-05
2868.43	1.55337e-05
2876.99	2.80538e-05
2885.55	3.71072e-05
2894.1	4.60239e-05
2902.66	5.06491e-05
2911.22	5.95404e-05
2919.78	5.68752e-05
2928.34	6.11067e-05
2936.89	8.51593e-05
2945.45	0.000108305
2954.01	0.000118637
2962.57	0.000121675
2971.12	0.000139605
2979.68	0.000219322
2988.24	0.000255693
2996.8	0.000287414
3005.35	0.000168257
3013.91	0.000110005
3022.47	5.59372e-05
3031.03	3.39304e-05
3039.58	2.65979e-05
3048.14	2.22254e-05
3056.7	2.06951e-05
3065.26	1.77874e-05
3073.81	1.4301e-05
3082.37	1.06571e-05
3090.93	8.38159e-06
3099.49	7.24945e-06
3108.05	5.70596e-06
3116.6	4.72261e-06
3125.16	4.20311e-06
3133.72	4.12778e-06
3142.28	3.5055e-06
3150.83	2.9768e-06
3159.39	2.27511e-06
3167.95	2.4073e-06
3176.51	2.54952e-06
3185.06	2.51322e-06
3193.62	2.72819e-06
3202.18	2.15521e-06
3210.74	2.09624e-06
3219.29	1.6493e-06
3227.85	1.46285e-06
3236.41	1.03423e-06
3244.97	7.99363e-07
3253.52	4.64536e-07
3262.08	1.62981e-07
3270.64	2.08617e-07
3279.2	2.10403e-07
3287.76	2.54057e-07
3296.31	1.22554e-07
3304.87	1.41478e-07
3313.43	2.50332e-07
3321.99	-6.74375e-08
3330.54	7.07552e-09
3339.1	-2.5043e-07
3347.66	3.61015e-08
3356.22	2.891e-07
3364.77	-8.37349e-08
3373.33	2.6967e-07
3381.89	-5.5782e-08
3390.45	7.29488e-08
3399	-7.42257e-08
3407.56	9.53104e-09
3416.12	1.62537e-07
3424.68	4.86712e-07
3433.23	1.50547e-07
3441.79	8.45061e-09
3450.35	3.7055e-07
3458.91	4.21945e-07
3467.47	2.05208e-08
3476.02	2.73606e-07
3484.58	1.51044e-06
3493.14	4.80916e-06
3501.7	1.06416e-05
3510.25	1.06416e-05
3518.81	1.04662e-05
3527.37	3.15464e-06
3535.93	-2.27399e-07
3544.48	-1.3426e-06
3553.04	-1.435e-06
3561.6	-1.42526e-06
3570.16	-1.34064e-06
3578.71	-9.64395e-07
3587.27	-5.63652e-07
3595.83	-3.01846e-07
3604.39	-2.54006e-07
3612.95	-4.76959e-07
3621.5	-5.30573e-07
3630.06	-6.867e-07
3638.62	-2.89522e-07
3647.18	-1.43665e-06
3655.73	-5.97363e-07
3664.29	-3.02203e-07
3672.85	-4.43324e-07
3681.41	-6.17426e-07
3689.96	-5.00849e-07
3698.52	-2.66847e-07
3707.08	-4.72521e-07
3715.64	-4.59516e-07
3724.19	-3.42386e-07
3732.75	-4.61939e-07
3741.31	-9.88983e-07
3749.87	-9.45912e-07
3758.42	-1.82618e-08
3766.98	1.89191e-07
3775.54	4.23476e-08
3784.1	-1.76084e-07
3792.66	3.132e-07
3801.21	-2.19791e-06
3809.77	-1.40939e-07
3818.33	-6.86489e-08
3826.89	-5.22293e-07
3835.44	-9.71474e-08
3844	-2.96954e-07
3852.56	-5.0704e-07
3861.12	2.1897e-07
3869.67	-3.9019e-07
3878.23	1.241e-07
3886.79	2.26875e-07
3895.35	2.96666e-07
3903.9	-2.70223e-07
3912.46	1.206e-07
3921.02	1.23114e-07
3929.58	1.77135e-07
3938.13	4.4993e-07
3946.69	5.195e-07
3955.25	5.15182e-07
3963.81	6.01521e-07
3972.37	9.11767e-07
