Infrared Spectrum: Ethyl Ester Acetic Acid
Formula: C H3 C O2 C H2 C H3
CAS: 141-78-6
State: gas
Melting point: -83.58 C
Boiling point: 77.06 C
Class: IUPAC A
Instrument: IFS66V (Bruker)
Instrument parameters: KBr Beam splitter; MCT Detector; Multipass cell
Sampling: 1 L/min Flow
Resolution: 0.1250
Temperature: 23 C
Pressure: 101.3 kPa
Origin: NIST, Anayltical Chemistry Division, 301-975-3108
cm-1	(micromol/mol)-1m-1 (base 10)
574.988	-7.90465e-07
583.546	3.26136e-06
592.103	9.73074e-06
600.661	1.97538e-05
609.219	3.02234e-05
617.776	2.91036e-05
626.334	5.11212e-05
634.891	4.1876e-05
643.449	3.09885e-05
652.007	5.74751e-06
660.564	1.5987e-06
669.122	5.45837e-07
677.68	3.4442e-07
686.237	4.99506e-07
694.795	-1.21299e-07
703.352	3.74257e-08
711.91	2.83672e-07
720.468	4.74638e-07
729.025	6.87551e-07
737.583	8.23645e-07
746.141	1.30137e-06
754.698	2.89343e-06
763.256	6.99796e-06
771.813	1.47325e-05
780.371	2.45267e-05
788.929	2.67096e-05
797.486	2.04306e-05
806.044	1.29808e-05
814.602	9.2177e-06
823.159	1.08776e-05
831.717	2.00046e-05
840.274	3.65392e-05
848.832	4.10218e-05
857.39	3.9408e-05
865.947	2.18605e-05
874.505	9.87809e-06
883.063	5.1607e-06
891.62	4.39651e-06
900.178	9.3456e-06
908.735	2.61048e-05
917.293	3.35797e-05
925.851	4.13754e-05
934.408	4.14156e-05
942.966	3.26339e-05
951.524	1.29841e-05
960.081	5.22309e-06
968.639	5.47068e-06
977.196	8.21606e-06
985.754	1.48018e-05
994.312	2.44492e-05
1002.87	2.56913e-05
1011.43	2.41979e-05
1019.98	2.59638e-05
1028.54	5.39562e-05
1037.1	0.000159714
1045.66	0.000386202
1054.22	0.000536937
1062.77	0.000508533
1071.33	0.0002467
1079.89	0.000131791
1088.45	0.00010418
1097	0.000128068
1105.56	0.000121329
1114.12	0.000100197
1122.68	4.67955e-05
1131.23	2.8963e-05
1139.79	1.63677e-05
1148.35	1.5128e-05
1156.91	1.71662e-05
1165.46	1.8503e-05
1174.02	1.92109e-05
1182.58	2.09984e-05
1191.14	2.92655e-05
1199.69	6.14928e-05
1208.25	0.000137643
1216.81	0.000263328
1225.37	0.000661191
1233.93	0.00150028
1242.48	0.00187906
1251.04	0.00160463
1259.6	0.000747218
1268.16	0.000278066
1276.71	0.000179462
1285.27	7.32495e-05
1293.83	6.68692e-05
1302.39	9.26244e-05
1310.94	9.53988e-05
1319.5	6.54115e-05
1328.06	2.58929e-05
1336.62	1.58136e-05
1345.17	2.16778e-05
1353.73	7.22049e-05
1362.29	0.00017175
1370.85	0.000350761
1379.4	0.000336892
1387.96	0.000270198
1396.52	0.000114389
1405.08	8.03985e-05
1413.64	5.64364e-05
1422.19	5.23312e-05
1430.75	5.83846e-05
1439.31	6.64215e-05
1447.87	7.26668e-05
1456.42	7.80713e-05
1464.98	7.91671e-05
1473.54	7.22145e-05
1482.1	6.73839e-05
1490.65	4.71233e-05
1499.21	3.34826e-05
1507.77	2.18854e-05
1516.33	1.64091e-05
1524.88	1.4232e-05
1533.44	1.26082e-05
1542	9.90141e-06
1550.56	1.38174e-05
1559.11	1.41622e-05
1567.67	1.20831e-05
1576.23	1.5503e-06
1584.79	5.83123e-06
1593.35	5.15883e-06
1601.9	5.14191e-06
1610.46	5.95149e-06
1619.02	7.07016e-06
1627.58	7.69932e-06
1636.13	7.84216e-06
1644.69	9.10199e-06
1653.25	9.50895e-07
1661.81	1.19907e-05
1670.36	1.35237e-05
1678.92	1.56082e-05
1687.48	1.8594e-05
1696.04	1.40182e-05
1704.59	2.22408e-05
1713.15	2.81707e-05
1721.71	3.27709e-05
1730.27	6.37079e-05
1738.83	0.00016914
1747.38	0.000464361
1755.94	0.00108664
1764.5	0.000999252
1773.06	0.00112384
1781.61	0.000432728
1790.17	0.000131775
1798.73	3.48191e-05
1807.29	1.71503e-05
1815.84	1.49707e-05
1824.4	1.58288e-05
1832.96	1.66929e-05
1841.52	1.5602e-05
1850.07	1.32346e-05
1858.63	1.08828e-05
1867.19	1.01581e-05
1875.75	9.6854e-06
1884.3	1.12145e-05
1892.86	1.20331e-05
1901.42	1.2653e-05
1909.98	1.03275e-05
1918.54	6.60437e-06
1927.09	4.43384e-06
1935.65	3.66014e-06
1944.21	3.61768e-06
1952.77	3.7238e-06
1961.32	3.82854e-06
1969.88	3.67886e-06
1978.44	3.52002e-06
1987	3.27881e-06
1995.55	3.87414e-06
2004.11	4.95296e-06
2012.67	5.99904e-06
2021.23	5.91689e-06
2029.78	5.26772e-06
2038.34	3.39636e-06
2046.9	2.71648e-06
2055.46	3.13521e-06
2064.01	4.64619e-06
2072.57	8.14674e-06
2081.13	1.21504e-05
2089.69	1.4099e-05
2098.25	1.11857e-05
2106.8	7.13307e-06
2115.36	3.86825e-06
2123.92	2.23332e-06
2132.48	1.82235e-06
2141.03	2.41798e-06
2149.59	3.34189e-06
2158.15	3.46067e-06
2166.71	3.19099e-06
2175.26	2.82857e-06
2183.82	2.57247e-06
2192.38	2.0246e-06
2200.94	1.30067e-06
2209.49	1.54926e-06
2218.05	2.00565e-06
2226.61	2.56056e-06
2235.17	2.6172e-06
2243.72	2.24655e-06
2252.28	1.7204e-06
2260.84	1.26259e-06
2269.4	1.21106e-06
2277.96	1.51222e-06
2286.51	2.05792e-06
2295.07	2.68236e-06
2303.63	3.20692e-06
2312.19	3.00995e-06
2320.74	2.64181e-06
2329.3	2.15898e-06
2337.86	1.63656e-06
2346.42	1.39684e-06
2354.97	1.18422e-06
2363.53	1.57573e-06
2372.09	1.84817e-06
2380.65	1.77424e-06
2389.2	1.72621e-06
2397.76	1.72468e-06
2406.32	1.90838e-06
2414.88	1.97984e-06
2423.44	2.01827e-06
2431.99	1.86887e-06
2440.55	1.53477e-06
2449.11	1.73694e-06
2457.67	2.75476e-06
2466.22	4.11176e-06
2474.78	4.95957e-06
2483.34	4.4022e-06
2491.9	3.21226e-06
2500.45	1.98532e-06
2509.01	9.21658e-07
2517.57	3.33004e-07
2526.13	1.28396e-07
2534.68	3.39054e-07
2543.24	5.03752e-07
2551.8	6.01499e-07
2560.36	4.16434e-07
2568.91	3.78993e-07
2577.47	3.784e-07
2586.03	5.86944e-07
2594.59	1.08502e-06
2603.15	1.78445e-06
2611.7	2.40377e-06
2620.26	1.95159e-06
2628.82	1.28903e-06
2637.38	8.52922e-07
2645.93	5.52436e-07
2654.49	6.41883e-07
2663.05	9.44187e-07
2671.61	1.38913e-06
2680.16	1.57724e-06
2688.72	2.00878e-06
2697.28	1.92879e-06
2705.84	1.87062e-06
2714.39	1.50609e-06
2722.95	1.80207e-06
2731.51	2.12016e-06
2740.07	2.37273e-06
2748.62	3.06935e-06
2757.18	3.41708e-06
2765.74	3.49764e-06
2774.3	3.44663e-06
2782.86	3.53657e-06
2791.41	3.64338e-06
2799.97	3.18345e-06
2808.53	3.85599e-06
2817.09	5.14989e-06
2825.64	6.14166e-06
2834.2	6.92225e-06
2842.76	8.55055e-06
2851.32	1.05669e-05
2859.87	1.25714e-05
2868.43	1.54794e-05
2876.99	2.80356e-05
2885.55	3.70293e-05
2894.1	4.6038e-05
2902.66	5.06852e-05
2911.22	5.95935e-05
2919.78	5.68264e-05
2928.34	6.10726e-05
2936.89	8.51395e-05
2945.45	0.000108303
2954.01	0.000118652
2962.57	0.000121606
2971.12	0.000139532
2979.68	0.000219445
2988.24	0.000255841
2996.8	0.000287544
3005.35	0.000168235
3013.91	0.000110025
3022.47	5.58253e-05
3031.03	3.39158e-05
3039.58	2.65478e-05
3048.14	2.21675e-05
3056.7	2.06884e-05
3065.26	1.77684e-05
3073.81	1.42719e-05
3082.37	1.06683e-05
3090.93	8.39033e-06
3099.49	7.24631e-06
3108.05	5.69017e-06
3116.6	4.71932e-06
3125.16	4.19693e-06
3133.72	4.14544e-06
3142.28	3.5297e-06
3150.83	2.90232e-06
3159.39	2.26348e-06
3167.95	2.38271e-06
3176.51	2.56528e-06
3185.06	2.53438e-06
3193.62	2.74997e-06
3202.18	2.17025e-06
3210.74	2.07691e-06
3219.29	1.65062e-06
3227.85	1.46485e-06
3236.41	1.01475e-06
3244.97	7.91167e-07
3253.52	4.80542e-07
3262.08	1.48389e-07
3270.64	1.77921e-07
3279.2	1.60834e-07
3287.76	2.00381e-07
3296.31	1.52104e-07
3304.87	1.53501e-07
3313.43	1.99468e-07
3321.99	-4.38246e-08
3330.54	-1.65302e-08
3339.1	-3.13637e-07
3347.66	-1.20593e-08
3356.22	2.42117e-07
3364.77	-2.62576e-08
3373.33	2.13997e-07
3381.89	-4.50069e-08
3390.45	9.1116e-08
3399	-7.55789e-08
3407.56	-2.17104e-08
3416.12	1.74698e-07
3424.68	4.86672e-07
3433.23	1.44923e-07
3441.79	3.11541e-08
3450.35	3.89528e-07
3458.91	3.86265e-07
3467.47	-2.03353e-08
3476.02	2.41539e-07
3484.58	1.40941e-06
3493.14	4.74913e-06
3501.7	1.06395e-05
3510.25	1.06425e-05
3518.81	1.05198e-05
3527.37	3.19285e-06
3535.93	-2.03087e-07
3544.48	-1.34911e-06
3553.04	-1.43783e-06
3561.6	-1.42606e-06
3570.16	-1.30136e-06
3578.71	-9.8082e-07
3587.27	-5.31657e-07
3595.83	-2.81875e-07
3604.39	-2.57149e-07
3612.95	-4.86705e-07
3621.5	-5.13301e-07
3630.06	-6.39594e-07
3638.62	-2.72275e-07
3647.18	-1.41455e-06
3655.73	-5.52891e-07
3664.29	-2.91319e-07
3672.85	-4.52826e-07
3681.41	-6.07473e-07
3689.96	-4.61761e-07
3698.52	-2.91904e-07
3707.08	-4.85421e-07
3715.64	-4.16986e-07
3724.19	-3.39738e-07
3732.75	-4.36147e-07
3741.31	-1.00395e-06
3749.87	-9.33027e-07
3758.42	-6.13006e-08
3766.98	1.9201e-07
3775.54	5.7721e-08
3784.1	-2.00872e-07
3792.66	2.83294e-07
3801.21	-2.22304e-06
3809.77	-1.66444e-07
3818.33	-3.02301e-08
3826.89	-5.63117e-07
3835.44	-1.78398e-08
3844	-2.79358e-07
3852.56	-4.71728e-07
3861.12	2.09901e-07
3869.67	-3.50215e-07
3878.23	1.04037e-07
3886.79	2.16384e-07
3895.35	2.60838e-07
3903.9	-2.43161e-07
3912.46	1.30492e-07
3921.02	1.35541e-07
3929.58	1.82519e-07
3938.13	4.28886e-07
3946.69	4.99623e-07
3955.25	5.34233e-07
3963.81	5.97756e-07
3972.37	9.22113e-07
