Infrared Spectrum: Ethyl Ester Acetic Acid
Formula: C H3 C O2 C H2 C H3
CAS: 141-78-6
State: gas
Melting point: -83.58 C
Boiling point: 77.06 C
Class: IUPAC A
Instrument: IFS66V (Bruker)
Instrument parameters: KBr Beam splitter; MCT Detector; Multipass cell
Sampling: 1 L/min Flow
Resolution: 0.9640
Temperature: 23 C
Pressure: 101.3 kPa
Origin: NIST, Anayltical Chemistry Division, 301-975-3108
cm-1	(micromol/mol)-1m-1 (base 10)
575.169	6.60261e-08
583.847	3.79251e-06
592.525	1.1151e-05
601.203	2.04251e-05
609.882	2.97397e-05
618.56	3.01173e-05
627.238	5.20526e-05
635.916	4.3156e-05
644.594	2.73385e-05
653.272	4.28463e-06
661.951	1.41427e-06
670.629	8.14234e-07
679.307	4.17136e-07
687.985	3.52441e-07
696.663	3.62398e-07
705.341	3.04364e-07
714.019	4.26918e-07
722.698	4.84311e-07
731.376	7.04314e-07
740.054	9.03448e-07
748.732	1.64974e-06
757.41	3.87283e-06
766.088	8.83251e-06
774.767	1.81897e-05
783.445	2.39584e-05
792.123	2.58311e-05
800.801	1.70455e-05
809.479	1.17627e-05
818.157	9.21358e-06
826.835	1.38761e-05
835.514	2.69344e-05
844.192	3.94253e-05
852.87	4.1524e-05
861.548	3.15109e-05
870.226	1.45135e-05
878.904	6.77213e-06
887.583	4.19631e-06
896.261	5.62152e-06
904.939	1.87387e-05
913.617	3.28122e-05
922.295	3.93713e-05
930.973	4.56345e-05
939.651	3.86508e-05
948.33	2.50237e-05
957.008	5.97432e-06
965.686	5.10364e-06
974.364	7.03919e-06
983.042	1.21571e-05
991.72	2.22696e-05
1000.4	2.54472e-05
1009.08	2.55336e-05
1017.75	2.34391e-05
1026.43	4.26694e-05
1035.11	0.000124448
1043.79	0.000332106
1052.47	0.000527179
1061.15	0.000527896
1069.82	0.000292291
1078.5	0.000142407
1087.18	0.000103823
1095.86	0.000124054
1104.54	0.000137938
1113.21	0.000106594
1121.89	4.95058e-05
1130.57	3.08366e-05
1139.25	1.66292e-05
1147.93	1.50611e-05
1156.61	1.69338e-05
1165.28	1.86619e-05
1173.96	1.92153e-05
1182.64	2.10525e-05
1191.32	2.96218e-05
1200	6.35375e-05
1208.67	0.000142458
1217.35	0.000275195
1226.03	0.000719612
1234.71	0.00154969
1243.39	0.00185089
1252.07	0.00146122
1260.74	0.000648588
1269.42	0.000259255
1278.1	0.000152023
1286.78	6.6925e-05
1295.46	7.11576e-05
1304.13	9.85173e-05
1312.81	8.77395e-05
1321.49	5.39382e-05
1330.17	2.15863e-05
1338.85	1.56746e-05
1347.52	2.89229e-05
1356.2	9.35824e-05
1364.88	0.000219197
1373.56	0.000354208
1382.24	0.000364059
1390.92	0.000189079
1399.59	9.25718e-05
1408.27	7.09982e-05
1416.95	5.21842e-05
1425.63	5.33945e-05
1434.31	6.17956e-05
1442.98	7.01977e-05
1451.66	8.07764e-05
1460.34	8.33733e-05
1469.02	8.13943e-05
1477.7	7.51668e-05
1486.38	5.33823e-05
1495.05	4.20174e-05
1503.73	2.65215e-05
1512.41	1.82746e-05
1521.09	1.30502e-05
1529.77	1.36184e-05
1538.44	1.16707e-05
1547.12	1.37277e-05
1555.8	1.40894e-05
1564.48	1.34511e-05
1573.16	1.02044e-05
1581.83	6.90477e-06
1590.51	5.24979e-06
1599.19	5.05712e-06
1607.87	5.67212e-06
1616.55	3.77176e-06
1625.23	7.78443e-06
1633.9	8.13852e-06
1642.58	8.92484e-06
1651.26	9.61138e-06
1659.94	1.15886e-05
1668.62	1.28469e-05
1677.29	1.51535e-05
1685.97	1.77705e-05
1694.65	2.05985e-05
1703.33	2.27379e-05
1712.01	2.73734e-05
1720.69	3.15961e-05
1729.36	5.94473e-05
1738.04	0.000153623
1746.72	0.000431082
1755.4	0.00104631
1764.08	0.00100327
1772.75	0.00114879
1781.43	0.000442523
1790.11	0.000133119
1798.79	3.45811e-05
1807.47	1.69828e-05
1816.15	1.49978e-05
1824.82	1.54497e-05
1833.5	1.66815e-05
1842.18	1.53685e-05
1850.86	1.29575e-05
1859.54	1.076e-05
1868.21	9.9158e-06
1876.89	9.81716e-06
1885.57	1.1327e-05
1894.25	1.21714e-05
1902.93	1.2428e-05
1911.6	9.79657e-06
1920.28	5.94426e-06
1928.96	4.24273e-06
1937.64	3.58675e-06
1946.32	3.56033e-06
1955	3.71883e-06
1963.67	3.78407e-06
1972.35	3.65111e-06
1981.03	3.31717e-06
1989.71	3.36601e-06
1998.39	4.21665e-06
2007.06	5.20867e-06
2015.74	6.11949e-06
2024.42	5.73555e-06
2033.1	4.63713e-06
2041.78	2.98613e-06
2050.46	2.81398e-06
2059.13	3.65079e-06
2067.81	5.83784e-06
2076.49	1.0292e-05
2085.17	1.3445e-05
2093.85	1.36563e-05
2102.52	8.82798e-06
2111.2	5.27855e-06
2119.88	2.65936e-06
2128.56	1.91368e-06
2137.24	1.95578e-06
2145.91	3.03122e-06
2154.59	3.40643e-06
2163.27	3.34652e-06
2171.95	2.91103e-06
2180.63	2.76926e-06
2189.31	2.26951e-06
2197.98	1.33471e-06
2206.66	1.34662e-06
2215.34	1.78908e-06
2224.02	2.24376e-06
2232.7	2.58648e-06
2241.37	2.28851e-06
2250.05	1.90327e-06
2258.73	1.39406e-06
2267.41	1.18747e-06
2276.09	1.44271e-06
2284.77	1.95874e-06
2293.44	2.63846e-06
2302.12	3.124e-06
2310.8	3.14224e-06
2319.48	2.69738e-06
2328.16	2.07405e-06
2336.83	1.7239e-06
2345.51	1.4887e-06
2354.19	1.17963e-06
2362.87	1.48371e-06
2371.55	1.72895e-06
2380.23	1.73296e-06
2388.9	1.69634e-06
2397.58	1.75176e-06
2406.26	1.8892e-06
2414.94	1.96854e-06
2423.62	2.05927e-06
2432.29	1.82329e-06
2440.97	1.55651e-06
2449.65	1.7664e-06
2458.33	2.8856e-06
2467.01	4.29629e-06
2475.68	4.85746e-06
2484.36	4.32566e-06
2493.04	3.1099e-06
2501.72	1.94231e-06
2510.4	9.05656e-07
2519.08	3.04422e-07
2527.75	2.34442e-07
2536.43	4.40025e-07
2545.11	5.91812e-07
2553.79	6.11467e-07
2562.47	4.54845e-07
2571.14	3.35209e-07
2579.82	3.21811e-07
2588.5	6.61436e-07
2597.18	1.40788e-06
2605.86	2.11766e-06
2614.54	2.26058e-06
2623.21	1.6841e-06
2631.89	1.09561e-06
2640.57	7.30539e-07
2649.25	4.96563e-07
2657.93	6.47481e-07
2666.6	1.02279e-06
2675.28	1.53622e-06
2683.96	1.88378e-06
2692.64	2.13865e-06
2701.32	1.71142e-06
2709.99	1.6492e-06
2718.67	1.62184e-06
2727.35	1.98894e-06
2736.03	2.44e-06
2744.71	2.66659e-06
2753.39	3.23602e-06
2762.06	3.46817e-06
2770.74	3.47644e-06
2779.42	3.52904e-06
2788.1	3.50288e-06
2796.78	3.19363e-06
2805.45	3.48258e-06
2814.13	4.78284e-06
2822.81	5.71984e-06
2831.49	6.72514e-06
2840.17	7.81968e-06
2848.85	9.90382e-06
2857.52	1.21223e-05
2866.2	1.40651e-05
2874.88	2.36357e-05
2883.56	3.51328e-05
2892.24	4.44617e-05
2900.91	4.93724e-05
2909.59	5.79414e-05
2918.27	5.7592e-05
2926.95	6.07419e-05
2935.63	7.9622e-05
2944.31	0.000106694
2952.98	0.000118635
2961.66	0.000120683
2970.34	0.000136424
2979.02	0.000212688
2987.7	0.000253761
2996.37	0.000303621
3005.05	0.000171297
3013.73	0.000111172
3022.41	5.61278e-05
3031.09	3.38294e-05
3039.76	2.63615e-05
3048.44	2.2153e-05
3057.12	2.06007e-05
3065.8	1.75877e-05
3074.48	1.39539e-05
3083.16	1.03455e-05
3091.83	8.08384e-06
3100.51	6.85155e-06
3109.19	5.56999e-06
3117.87	4.51379e-06
3126.55	4.14137e-06
3135.22	3.96749e-06
3143.9	3.19442e-06
3152.58	2.74594e-06
3161.26	2.23329e-06
3169.94	2.28934e-06
3178.62	2.66554e-06
3187.29	2.90191e-06
3195.97	2.63716e-06
3204.65	2.23614e-06
3213.33	1.82227e-06
3222.01	1.43603e-06
3230.68	1.14931e-06
3239.36	1.02446e-06
3248.04	5.69556e-07
3256.72	3.01694e-07
3265.4	9.31277e-08
3274.07	4.27987e-08
3282.75	1.0789e-07
3291.43	1.82276e-07
3300.11	1.93589e-07
3308.79	1.44479e-07
3317.47	1.68979e-07
3326.14	1.2358e-07
3334.82	2.67851e-08
3343.5	-1.44417e-07
3352.18	1.78332e-07
3360.86	2.69754e-07
3369.53	2.13397e-07
3378.21	-4.08525e-08
3386.89	-3.59742e-08
3395.57	-1.03121e-07
3404.25	1.42092e-08
3412.93	9.99304e-08
3421.6	2.67218e-07
3430.28	3.62016e-07
3438.96	3.25434e-07
3447.64	1.19534e-07
3456.32	2.16129e-07
3464.99	6.02056e-09
3473.67	6.11878e-09
3482.35	8.3226e-07
3491.03	3.74325e-06
3499.71	9.46996e-06
3508.39	1.08017e-05
3517.06	1.20086e-05
3525.74	4.1577e-06
3534.42	1.21648e-07
3543.1	-1.32661e-06
3551.78	-1.53409e-06
3560.45	-1.45828e-06
3569.13	-1.25611e-06
3577.81	-8.28625e-07
3586.49	-1.11971e-06
3595.17	-5.33785e-07
3603.84	-8.79547e-08
3612.52	-9.92064e-07
3621.2	-4.62925e-07
3629.88	-1.71468e-06
3638.56	-4.84078e-07
3647.24	-1.26517e-06
3655.91	-1.25957e-06
3664.59	-4.98368e-07
3673.27	-4.1623e-07
3681.95	-3.70928e-07
3690.63	-7.51268e-07
3699.3	-3.58072e-07
3707.98	-4.7952e-07
3716.66	-3.81103e-07
3725.34	-5.88632e-07
3734.02	-5.42036e-07
3742.7	-2.82457e-07
3751.37	-6.70781e-07
3760.05	-6.89272e-07
3768.73	7.71214e-09
3777.41	5.40213e-09
3786.09	5.40941e-09
3794.76	-5.7761e-08
3803.44	-2.51365e-07
3812.12	-4.78844e-08
3820.8	-1.2278e-06
3829.48	-3.4741e-08
3838.16	-2.35299e-06
3846.83	7.04933e-08
3855.51	2.96044e-08
3864.19	-1.97744e-07
3872.87	2.44824e-08
3881.55	-9.45282e-08
3890.22	4.21112e-08
3898.9	-3.54213e-07
3907.58	1.31805e-07
3916.26	1.8531e-07
3924.94	1.01433e-07
3933.61	3.91547e-07
3942.29	3.27824e-07
3950.97	7.88395e-07
3959.65	6.26687e-07
3968.33	8.25115e-07
