Infrared Spectrum: Ethyl Ester Acetic Acid
Formula: C H3 C O2 C H2 C H3
CAS: 141-78-6
State: gas
Melting point: -83.58 C
Boiling point: 77.06 C
Class: IUPAC A
Instrument: IFS66V (Bruker)
Instrument parameters: KBr Beam splitter; MCT Detector; Multipass cell
Sampling: 1 L/min Flow
Resolution: 0.4820
Temperature: 23 C
Pressure: 101.3 kPa
Origin: NIST, Anayltical Chemistry Division, 301-975-3108
cm-1	(micromol/mol)-1m-1 (base 10)
574.928	-3.07569e-07
583.606	3.52452e-06
592.284	1.06103e-05
600.962	2.00595e-05
609.641	3.01626e-05
618.319	2.97949e-05
626.997	5.18907e-05
635.675	4.29808e-05
644.353	2.80166e-05
653.031	4.42076e-06
661.71	1.41796e-06
670.388	7.95041e-07
679.066	3.7182e-07
687.744	3.58836e-07
696.422	4.88688e-07
705.1	3.02072e-07
713.778	3.59804e-07
722.457	4.29642e-07
731.135	6.97428e-07
739.813	8.97485e-07
748.491	1.63774e-06
757.169	3.88721e-06
765.847	8.60945e-06
774.526	1.78418e-05
783.204	2.41093e-05
791.882	2.59754e-05
800.56	1.7326e-05
809.238	1.18918e-05
817.916	9.26736e-06
826.594	1.36269e-05
835.273	2.66055e-05
843.951	3.9611e-05
852.629	4.15434e-05
861.307	3.20169e-05
869.985	1.47728e-05
878.663	6.91103e-06
887.342	4.27639e-06
896.02	5.46103e-06
904.698	1.82038e-05
913.376	3.15488e-05
922.054	3.92235e-05
930.732	4.56148e-05
939.41	3.977e-05
948.089	2.6097e-05
956.767	6.11017e-06
965.445	5.05356e-06
974.123	6.95235e-06
982.801	1.19207e-05
991.479	2.1997e-05
1000.16	2.5445e-05
1008.84	2.56446e-05
1017.51	2.32912e-05
1026.19	4.16158e-05
1034.87	0.000120608
1043.55	0.000324821
1052.23	0.000525072
1060.9	0.000532311
1069.58	0.000300448
1078.26	0.000144323
1086.94	0.000103893
1095.62	0.000123248
1104.3	0.000138479
1112.97	0.00010822
1121.65	5.05633e-05
1130.33	3.14776e-05
1139.01	1.67368e-05
1147.69	1.50286e-05
1156.36	1.68329e-05
1165.04	1.87403e-05
1173.72	1.92469e-05
1182.4	2.09382e-05
1191.08	2.91634e-05
1199.76	6.19448e-05
1208.43	0.000139698
1217.11	0.000269544
1225.79	0.000697667
1234.47	0.00153521
1243.15	0.00184163
1251.82	0.0014935
1260.5	0.000669226
1269.18	0.000260733
1277.86	0.000156434
1286.54	6.76886e-05
1295.21	7.05128e-05
1303.89	9.8078e-05
1312.57	8.84544e-05
1321.25	5.53771e-05
1329.93	2.196e-05
1338.61	1.55976e-05
1347.28	2.79345e-05
1355.96	9.1789e-05
1364.64	0.000213198
1373.32	0.000354057
1382	0.000362421
1390.67	0.000194705
1399.35	9.29048e-05
1408.03	7.19085e-05
1416.71	5.25298e-05
1425.39	5.31999e-05
1434.07	6.15768e-05
1442.74	7.00278e-05
1451.42	7.99225e-05
1460.1	8.32674e-05
1468.78	8.11021e-05
1477.46	7.53699e-05
1486.13	5.38948e-05
1494.81	4.2559e-05
1503.49	2.68797e-05
1512.17	1.80412e-05
1520.85	1.46303e-05
1529.52	1.36578e-05
1538.2	1.24926e-05
1546.88	1.37152e-05
1555.56	1.4043e-05
1564.24	1.38104e-05
1572.92	1.02435e-05
1581.59	7.00833e-06
1590.27	5.27177e-06
1598.95	5.02693e-06
1607.63	5.65974e-06
1616.31	5.41196e-06
1624.98	7.68481e-06
1633.66	8.14028e-06
1642.34	8.88617e-06
1651.02	9.65873e-06
1659.7	1.15433e-05
1668.38	1.28577e-05
1677.05	1.50915e-05
1685.73	1.76022e-05
1694.41	2.06691e-05
1703.09	2.2655e-05
1711.77	2.72012e-05
1720.44	3.14625e-05
1729.12	5.84498e-05
1737.8	0.000148928
1746.48	0.000419439
1755.16	0.00102796
1763.84	0.00100566
1772.51	0.00117014
1781.19	0.000455124
1789.87	0.000138298
1798.55	3.56797e-05
1807.23	1.71762e-05
1815.9	1.49755e-05
1824.58	1.5789e-05
1833.26	1.66623e-05
1841.94	1.54301e-05
1850.62	1.30611e-05
1859.29	1.08165e-05
1867.97	9.69822e-06
1876.65	9.74268e-06
1885.33	1.13318e-05
1894.01	1.21436e-05
1902.69	1.24819e-05
1911.36	9.90753e-06
1920.04	6.03803e-06
1928.72	4.23118e-06
1937.4	3.58292e-06
1946.08	3.55601e-06
1954.75	3.75922e-06
1963.43	3.76889e-06
1972.11	3.66752e-06
1980.79	3.32805e-06
1989.47	3.31234e-06
1998.15	4.1762e-06
2006.82	5.18453e-06
2015.5	6.06077e-06
2024.18	5.80141e-06
2032.86	4.69045e-06
2041.54	2.99686e-06
2050.21	2.79482e-06
2058.89	3.62263e-06
2067.57	5.75307e-06
2076.25	1.0158e-05
2084.93	1.34433e-05
2093.6	1.37633e-05
2102.28	8.95678e-06
2110.96	5.49908e-06
2119.64	2.56207e-06
2128.32	1.92661e-06
2137	1.95129e-06
2145.67	3.01486e-06
2154.35	3.42484e-06
2163.03	3.33645e-06
2171.71	2.93414e-06
2180.39	2.79513e-06
2189.06	2.29103e-06
2197.74	1.33483e-06
2206.42	1.28608e-06
2215.1	1.79353e-06
2223.78	2.25038e-06
2232.46	2.59094e-06
2241.13	2.29717e-06
2249.81	1.90972e-06
2258.49	1.42389e-06
2267.17	1.15177e-06
2275.85	1.44165e-06
2284.52	1.94565e-06
2293.2	2.61159e-06
2301.88	3.09866e-06
2310.56	3.12039e-06
2319.24	2.67826e-06
2327.92	2.11678e-06
2336.59	1.76023e-06
2345.27	1.54211e-06
2353.95	1.23071e-06
2362.63	1.45079e-06
2371.31	1.68904e-06
2379.98	1.72821e-06
2388.66	1.66975e-06
2397.34	1.75586e-06
2406.02	1.89382e-06
2414.7	1.94021e-06
2423.37	2.03448e-06
2432.05	1.81071e-06
2440.73	1.53143e-06
2449.41	1.72958e-06
2458.09	2.85015e-06
2466.77	4.29192e-06
2475.44	4.86704e-06
2484.12	4.34407e-06
2492.8	3.14374e-06
2501.48	1.99378e-06
2510.16	8.94975e-07
2518.83	3.32742e-07
2527.51	2.58986e-07
2536.19	4.32625e-07
2544.87	6.21489e-07
2553.55	6.1071e-07
2562.23	4.34466e-07
2570.9	3.32655e-07
2579.58	3.22036e-07
2588.26	6.19681e-07
2596.94	1.37917e-06
2605.62	2.13922e-06
2614.29	2.2873e-06
2622.97	1.71148e-06
2631.65	1.1109e-06
2640.33	7.87937e-07
2649.01	4.7175e-07
2657.68	6.57805e-07
2666.36	9.93898e-07
2675.04	1.52795e-06
2683.72	1.86e-06
2692.4	2.10423e-06
2701.08	1.68614e-06
2709.75	1.6493e-06
2718.43	1.6017e-06
2727.11	1.9437e-06
2735.79	2.42474e-06
2744.47	2.61483e-06
2753.14	3.17803e-06
2761.82	3.52638e-06
2770.5	3.44246e-06
2779.18	3.52575e-06
2787.86	3.51937e-06
2796.54	3.21198e-06
2805.21	3.45875e-06
2813.89	4.73978e-06
2822.57	5.66771e-06
2831.25	6.68134e-06
2839.93	7.82457e-06
2848.6	9.77589e-06
2857.28	1.21366e-05
2865.96	1.39561e-05
2874.64	2.31546e-05
2883.32	3.49531e-05
2892	4.41997e-05
2900.67	4.9186e-05
2909.35	5.76388e-05
2918.03	5.77649e-05
2926.71	6.06922e-05
2935.39	7.8534e-05
2944.06	0.000106347
2952.74	0.000118671
2961.42	0.000120682
2970.1	0.000135631
2978.78	0.000210188
2987.45	0.000252681
2996.13	0.000313155
3004.81	0.000173483
3013.49	0.000112955
3022.17	5.71655e-05
3030.85	3.41786e-05
3039.52	2.654e-05
3048.2	2.22009e-05
3056.88	2.06941e-05
3065.56	1.77136e-05
3074.24	1.39757e-05
3082.91	1.03722e-05
3091.59	8.03287e-06
3100.27	6.85944e-06
3108.95	5.67143e-06
3117.63	4.48421e-06
3126.31	4.20527e-06
3134.98	4.02248e-06
3143.66	3.18171e-06
3152.34	2.85632e-06
3161.02	2.28528e-06
3169.7	2.34531e-06
3178.37	2.61562e-06
3187.05	2.935e-06
3195.73	2.59464e-06
3204.41	2.26844e-06
3213.09	1.80583e-06
3221.77	1.43216e-06
3230.44	1.09931e-06
3239.12	9.81027e-07
3247.8	5.36317e-07
3256.48	2.65854e-07
3265.16	9.6278e-08
3273.83	6.55568e-08
3282.51	8.01589e-08
3291.19	2.17257e-07
3299.87	2.54548e-07
3308.55	1.30921e-07
3317.22	1.36738e-07
3325.9	6.71793e-08
3334.58	7.75215e-08
3343.26	-9.05267e-08
3351.94	1.54206e-07
3360.62	2.79834e-07
3369.29	2.45508e-07
3377.97	1.51696e-09
3386.65	2.79165e-08
3395.33	-1.41983e-07
3404.01	-5.73536e-08
3412.68	1.25242e-07
3421.36	2.36934e-07
3430.04	3.46831e-07
3438.72	3.05797e-07
3447.4	6.20281e-08
3456.08	3.01617e-07
3464.75	-6.78813e-09
3473.43	6.66918e-08
3482.11	8.2442e-07
3490.79	3.67468e-06
3499.47	9.37294e-06
3508.14	1.08668e-05
3516.82	1.21923e-05
3525.5	4.29975e-06
3534.18	1.6512e-07
3542.86	-1.33812e-06
3551.53	-1.36529e-06
3560.21	-1.54169e-06
3568.89	-1.3251e-06
3577.57	-8.42016e-07
3586.25	-9.406e-07
3594.93	-2.74497e-07
3603.6	-1.31627e-07
3612.28	-8.47655e-07
3620.96	-4.02381e-07
3629.64	-3.08335e-06
3638.32	-6.1055e-07
3646.99	-1.04643e-06
3655.67	-5.37772e-07
3664.35	-4.2499e-07
3673.03	-4.18231e-07
3681.71	-4.1404e-07
3690.39	-6.62411e-07
3699.06	-3.50491e-07
3707.74	-5.0803e-07
3716.42	-3.28559e-07
3725.1	-7.55888e-07
3733.78	-4.85963e-07
3742.45	-2.98463e-07
3751.13	-5.00721e-07
3759.81	-1.10866e-06
3768.49	6.13915e-08
3777.17	7.45385e-08
3785.85	7.16537e-08
3794.52	1.54352e-08
3803.2	-3.59236e-07
3811.88	-2.87059e-08
3820.56	-1.33114e-06
3829.24	2.33401e-08
3837.91	-4.81032e-06
3846.59	7.49387e-10
3855.27	-4.77097e-08
3863.95	-1.04932e-07
3872.63	5.85722e-08
3881.3	-1.93316e-07
3889.98	2.68324e-08
3898.66	2.34565e-08
3907.34	1.0383e-07
3916.02	3.18231e-07
3924.7	1.84007e-07
3933.37	4.20613e-07
3942.05	4.97236e-07
3950.73	8.19636e-07
3959.41	5.9231e-07
3968.09	8.65978e-07
