Infrared Spectrum: Ethyl Ester Acetic Acid
Formula: C H3 C O2 C H2 C H3
CAS: 141-78-6
State: gas
Melting point: -83.58 C
Boiling point: 77.06 C
Class: IUPAC A
Instrument: IFS66V (Bruker)
Instrument parameters: KBr Beam splitter; MCT Detector; Multipass cell
Sampling: 1 L/min Flow
Resolution: 0.4820
Temperature: 23 C
Pressure: 101.3 kPa
Origin: NIST, Anayltical Chemistry Division, 301-975-3108
cm-1	(micromol/mol)-1m-1 (base 10)
574.928	-3.01104e-07
583.606	3.52957e-06
592.284	1.06106e-05
600.962	2.00569e-05
609.641	3.01569e-05
618.319	2.97959e-05
626.997	5.18943e-05
635.675	4.29779e-05
644.353	2.8023e-05
653.031	4.42099e-06
661.71	1.41863e-06
670.388	7.95114e-07
679.066	3.73995e-07
687.744	3.57254e-07
696.422	4.86763e-07
705.1	3.00872e-07
713.778	3.61899e-07
722.457	4.28853e-07
731.135	6.97916e-07
739.813	8.98216e-07
748.491	1.63829e-06
757.169	3.88535e-06
765.847	8.61137e-06
774.526	1.78431e-05
783.204	2.41115e-05
791.882	2.59744e-05
800.56	1.73266e-05
809.238	1.18893e-05
817.916	9.26573e-06
826.594	1.36274e-05
835.273	2.66026e-05
843.951	3.96064e-05
852.629	4.15439e-05
861.307	3.20172e-05
869.985	1.47734e-05
878.663	6.9128e-06
887.342	4.27598e-06
896.02	5.46193e-06
904.698	1.82025e-05
913.376	3.15529e-05
922.054	3.9222e-05
930.732	4.56148e-05
939.41	3.97532e-05
948.089	2.60975e-05
956.767	6.10969e-06
965.445	5.05438e-06
974.123	6.95223e-06
982.801	1.19215e-05
991.479	2.19968e-05
1000.16	2.5445e-05
1008.84	2.56447e-05
1017.51	2.32912e-05
1026.19	4.16166e-05
1034.87	0.000120609
1043.55	0.00032482
1052.23	0.000525069
1060.9	0.000532258
1069.58	0.000300452
1078.26	0.000144328
1086.94	0.000103893
1095.62	0.000123248
1104.3	0.00013845
1112.97	0.000108218
1121.65	5.05623e-05
1130.33	3.1478e-05
1139.01	1.67379e-05
1147.69	1.50293e-05
1156.36	1.68348e-05
1165.04	1.87391e-05
1173.72	1.92473e-05
1182.4	2.09394e-05
1191.08	2.91636e-05
1199.76	6.19464e-05
1208.43	0.000139699
1217.11	0.000269552
1225.79	0.000697676
1234.47	0.0015352
1243.15	0.00184178
1251.82	0.00149351
1260.5	0.000669227
1269.18	0.00026074
1277.86	0.000156436
1286.54	6.76895e-05
1295.21	7.05128e-05
1303.89	9.80777e-05
1312.57	8.84559e-05
1321.25	5.53763e-05
1329.93	2.19608e-05
1338.61	1.55989e-05
1347.28	2.79365e-05
1355.96	9.17871e-05
1364.64	0.000213196
1373.32	0.000354057
1382	0.000362416
1390.67	0.000194707
1399.35	9.29175e-05
1408.03	7.19079e-05
1416.71	5.25287e-05
1425.39	5.31994e-05
1434.07	6.15778e-05
1442.74	7.00268e-05
1451.42	7.99223e-05
1460.1	8.32674e-05
1468.78	8.1103e-05
1477.46	7.53685e-05
1486.13	5.38965e-05
1494.81	4.25581e-05
1503.49	2.68772e-05
1512.17	1.80534e-05
1520.85	1.46057e-05
1529.52	1.36568e-05
1538.2	1.24974e-05
1546.88	1.37156e-05
1555.56	1.40418e-05
1564.24	1.38065e-05
1572.92	1.02442e-05
1581.59	7.00761e-06
1590.27	5.27185e-06
1598.95	5.02681e-06
1607.63	5.6598e-06
1616.31	5.39071e-06
1624.98	7.68631e-06
1633.66	8.13933e-06
1642.34	8.88613e-06
1651.02	9.66173e-06
1659.7	1.15421e-05
1668.38	1.28584e-05
1677.05	1.50915e-05
1685.73	1.76071e-05
1694.41	2.06665e-05
1703.09	2.26577e-05
1711.77	2.72016e-05
1720.44	3.14615e-05
1729.12	5.84502e-05
1737.8	0.000148929
1746.48	0.000419438
1755.16	0.00102796
1763.84	0.00100568
1772.51	0.00117016
1781.19	0.000455124
1789.87	0.000138302
1798.55	3.56796e-05
1807.23	1.71761e-05
1815.9	1.49752e-05
1824.58	1.57839e-05
1833.26	1.66629e-05
1841.94	1.54313e-05
1850.62	1.30611e-05
1859.29	1.08164e-05
1867.97	9.70285e-06
1876.65	9.74325e-06
1885.33	1.13323e-05
1894.01	1.2144e-05
1902.69	1.24817e-05
1911.36	9.90779e-06
1920.04	6.03719e-06
1928.72	4.23163e-06
1937.4	3.58321e-06
1946.08	3.55623e-06
1954.75	3.75766e-06
1963.43	3.76957e-06
1972.11	3.66736e-06
1980.79	3.32846e-06
1989.47	3.31341e-06
1998.15	4.17661e-06
2006.82	5.18452e-06
2015.5	6.06092e-06
2024.18	5.80105e-06
2032.86	4.69076e-06
2041.54	2.99792e-06
2050.21	2.79463e-06
2058.89	3.62221e-06
2067.57	5.75348e-06
2076.25	1.01579e-05
2084.93	1.34418e-05
2093.6	1.37634e-05
2102.28	8.95702e-06
2110.96	5.496e-06
2119.64	2.56386e-06
2128.32	1.92531e-06
2137	1.95109e-06
2145.67	3.01432e-06
2154.35	3.42517e-06
2163.03	3.33639e-06
2171.71	2.93357e-06
2180.39	2.79278e-06
2189.06	2.29112e-06
2197.74	1.33501e-06
2206.42	1.28649e-06
2215.1	1.79249e-06
2223.78	2.2509e-06
2232.46	2.59034e-06
2241.13	2.29693e-06
2249.81	1.90925e-06
2258.49	1.42327e-06
2267.17	1.1525e-06
2275.85	1.44103e-06
2284.52	1.94483e-06
2293.2	2.61097e-06
2301.88	3.09888e-06
2310.56	3.12064e-06
2319.24	2.67817e-06
2327.92	2.11581e-06
2336.59	1.75945e-06
2345.27	1.5417e-06
2353.95	1.22952e-06
2362.63	1.45097e-06
2371.31	1.69019e-06
2379.98	1.72869e-06
2388.66	1.67001e-06
2397.34	1.75578e-06
2406.02	1.89346e-06
2414.7	1.94054e-06
2423.37	2.03426e-06
2432.05	1.8108e-06
2440.73	1.53244e-06
2449.41	1.73014e-06
2458.09	2.85018e-06
2466.77	4.29121e-06
2475.44	4.86662e-06
2484.12	4.34417e-06
2492.8	3.14386e-06
2501.48	1.9937e-06
2510.16	8.95423e-07
2518.83	3.32353e-07
2527.51	2.58658e-07
2536.19	4.33746e-07
2544.87	6.20965e-07
2553.55	6.1051e-07
2562.23	4.34211e-07
2570.9	3.32822e-07
2579.58	3.21505e-07
2588.26	6.19437e-07
2596.94	1.37889e-06
2605.62	2.1387e-06
2614.29	2.28659e-06
2622.97	1.71149e-06
2631.65	1.11135e-06
2640.33	7.87311e-07
2649.01	4.72867e-07
2657.68	6.57198e-07
2666.36	9.94571e-07
2675.04	1.52784e-06
2683.72	1.86048e-06
2692.4	2.10404e-06
2701.08	1.68643e-06
2709.75	1.64984e-06
2718.43	1.60252e-06
2727.11	1.94331e-06
2735.79	2.42471e-06
2744.47	2.61437e-06
2753.14	3.17951e-06
2761.82	3.52534e-06
2770.5	3.4417e-06
2779.18	3.52554e-06
2787.86	3.51908e-06
2796.54	3.21141e-06
2805.21	3.45835e-06
2813.89	4.7399e-06
2822.57	5.66733e-06
2831.25	6.68062e-06
2839.93	7.82305e-06
2848.6	9.7762e-06
2857.28	1.21357e-05
2865.96	1.3956e-05
2874.64	2.31549e-05
2883.32	3.49545e-05
2892	4.41996e-05
2900.67	4.91837e-05
2909.35	5.76389e-05
2918.03	5.77664e-05
2926.71	6.06926e-05
2935.39	7.85336e-05
2944.06	0.000106345
2952.74	0.00011867
2961.42	0.00012068
2970.1	0.00013563
2978.78	0.000210189
2987.45	0.000252685
2996.13	0.000313211
3004.81	0.000173488
3013.49	0.000112956
3022.17	5.71662e-05
3030.85	3.41779e-05
3039.52	2.65412e-05
3048.2	2.22009e-05
3056.88	2.06923e-05
3065.56	1.77135e-05
3074.24	1.39764e-05
3082.91	1.03741e-05
3091.59	8.034e-06
3100.27	6.85916e-06
3108.95	5.67125e-06
3117.63	4.48391e-06
3126.31	4.20505e-06
3134.98	4.02236e-06
3143.66	3.18204e-06
3152.34	2.8547e-06
3161.02	2.28509e-06
3169.7	2.34415e-06
3178.37	2.61631e-06
3187.05	2.93374e-06
3195.73	2.5951e-06
3204.41	2.26799e-06
3213.09	1.80598e-06
3221.77	1.43091e-06
3230.44	1.10073e-06
3239.12	9.80889e-07
3247.8	5.36168e-07
3256.48	2.66636e-07
3265.16	9.60379e-08
3273.83	6.55059e-08
3282.51	7.98352e-08
3291.19	2.16682e-07
3299.87	2.53067e-07
3308.55	1.30517e-07
3317.22	1.36661e-07
3325.9	6.90491e-08
3334.58	7.63792e-08
3343.26	-9.16507e-08
3351.94	1.53977e-07
3360.62	2.78936e-07
3369.29	2.44547e-07
3377.97	1.14954e-09
3386.65	2.74872e-08
3395.33	-1.39972e-07
3404.01	-5.75682e-08
3412.68	1.24311e-07
3421.36	2.3749e-07
3430.04	3.46846e-07
3438.72	3.06717e-07
3447.4	6.33123e-08
3456.08	3.0042e-07
3464.75	-6.01692e-09
3473.43	6.40617e-08
3482.11	8.23656e-07
3490.79	3.67241e-06
3499.47	9.37336e-06
3508.14	1.08673e-05
3516.82	1.2191e-05
3525.5	4.30286e-06
3534.18	1.66149e-07
3542.86	-1.33606e-06
3551.53	-1.36743e-06
3560.21	-1.53975e-06
3568.89	-1.32737e-06
3577.57	-8.42842e-07
3586.25	-9.40233e-07
3594.93	-2.80045e-07
3603.6	-1.32165e-07
3612.28	-8.44322e-07
3620.96	-4.01719e-07
3629.64	-3.05899e-06
3638.32	-6.09008e-07
3646.99	-1.05182e-06
3655.67	-5.51483e-07
3664.35	-4.27747e-07
3673.03	-4.16313e-07
3681.71	-4.11799e-07
3690.39	-6.59038e-07
3699.06	-3.50877e-07
3707.74	-5.07386e-07
3716.42	-3.29559e-07
3725.1	-7.52533e-07
3733.78	-4.88244e-07
3742.45	-2.99835e-07
3751.13	-5.02067e-07
3759.81	-1.10101e-06
3768.49	6.27157e-08
3777.17	7.36582e-08
3785.85	7.11154e-08
3794.52	1.39182e-08
3803.2	-3.55762e-07
3811.88	-2.77782e-08
3820.56	-1.32346e-06
3829.24	2.19141e-08
3837.91	-4.77012e-06
3846.59	1.88802e-09
3855.27	-4.33589e-08
3863.95	-1.05463e-07
3872.63	5.71789e-08
3881.3	-1.9213e-07
3889.98	2.77382e-08
3898.66	1.89056e-08
3907.34	1.06009e-07
3916.02	3.16667e-07
3924.7	1.80897e-07
3933.37	4.2021e-07
3942.05	4.94599e-07
3950.73	8.18745e-07
3959.41	5.94329e-07
3968.09	8.65378e-07
