Infrared Spectrum: Ethyl Ester Acetic Acid
Formula: C H3 C O2 C H2 C H3
CAS: 141-78-6
State: gas
Melting point: -83.58 C
Boiling point: 77.06 C
Class: IUPAC A
Instrument: IFS66V (Bruker)
Instrument parameters: KBr Beam splitter; MCT Detector; Multipass cell
Sampling: 1 L/min Flow
Resolution: 0.1250
Temperature: 23 C
Pressure: 101.3 kPa
Origin: NIST, Anayltical Chemistry Division, 301-975-3108
cm-1	(micromol/mol)-1m-1 (base 10)
574.988	-1.004e-06
583.546	3.18807e-06
592.103	9.85174e-06
600.661	1.98395e-05
609.219	3.01607e-05
617.776	2.90468e-05
626.334	5.10711e-05
634.891	4.19339e-05
643.449	3.09458e-05
652.007	5.74929e-06
660.564	1.58875e-06
669.122	4.92853e-07
677.68	3.73766e-07
686.237	5.40308e-07
694.795	-1.40714e-07
703.352	-1.48968e-08
711.91	2.3673e-07
720.468	4.36754e-07
729.025	6.92735e-07
737.583	8.40656e-07
746.141	1.26567e-06
754.698	2.86405e-06
763.256	6.96127e-06
771.813	1.47674e-05
780.371	2.45233e-05
788.929	2.66965e-05
797.486	2.04782e-05
806.044	1.29766e-05
814.602	9.19464e-06
823.159	1.09161e-05
831.717	2.00831e-05
840.274	3.65608e-05
848.832	4.09579e-05
857.39	3.94071e-05
865.947	2.18449e-05
874.505	9.86662e-06
883.063	5.13695e-06
891.62	4.39098e-06
900.178	9.34076e-06
908.735	2.60604e-05
917.293	3.35767e-05
925.851	4.13761e-05
934.408	4.14269e-05
942.966	3.26523e-05
951.524	1.30065e-05
960.081	5.22991e-06
968.639	5.4737e-06
977.196	8.22598e-06
985.754	1.4785e-05
994.312	2.44545e-05
1002.87	2.56871e-05
1011.43	2.41993e-05
1019.98	2.59598e-05
1028.54	5.39486e-05
1037.1	0.000159715
1045.66	0.000386263
1054.22	0.000536827
1062.77	0.000508513
1071.33	0.000246692
1079.89	0.000131781
1088.45	0.000104187
1097	0.000128083
1105.56	0.00012134
1114.12	0.000100213
1122.68	4.68069e-05
1131.23	2.89842e-05
1139.79	1.63697e-05
1148.35	1.51061e-05
1156.91	1.71758e-05
1165.46	1.84842e-05
1174.02	1.92113e-05
1182.58	2.0998e-05
1191.14	2.92586e-05
1199.69	6.14745e-05
1208.25	0.000137659
1216.81	0.000263379
1225.37	0.000661142
1233.93	0.00150063
1242.48	0.00187904
1251.04	0.00160455
1259.6	0.000747308
1268.16	0.000277976
1276.71	0.00017946
1285.27	7.32191e-05
1293.83	6.68568e-05
1302.39	9.26029e-05
1310.94	9.53874e-05
1319.5	6.53826e-05
1328.06	2.58918e-05
1336.62	1.58084e-05
1345.17	2.1676e-05
1353.73	7.22046e-05
1362.29	0.000171784
1370.85	0.000350714
1379.4	0.000336848
1387.96	0.000270188
1396.52	0.000114397
1405.08	8.03804e-05
1413.64	5.64793e-05
1422.19	5.23131e-05
1430.75	5.84027e-05
1439.31	6.63921e-05
1447.87	7.26585e-05
1456.42	7.81594e-05
1464.98	7.914e-05
1473.54	7.186e-05
1482.1	6.73845e-05
1490.65	4.71775e-05
1499.21	3.34739e-05
1507.77	2.18839e-05
1516.33	1.63824e-05
1524.88	1.42043e-05
1533.44	1.26186e-05
1542	9.91866e-06
1550.56	1.38313e-05
1559.11	1.41748e-05
1567.67	1.20757e-05
1576.23	1.25396e-06
1584.79	5.82189e-06
1593.35	5.16171e-06
1601.9	5.14993e-06
1610.46	5.95862e-06
1619.02	7.08864e-06
1627.58	7.69741e-06
1636.13	7.83771e-06
1644.69	9.10129e-06
1653.25	5.40683e-07
1661.81	1.20085e-05
1670.36	1.35296e-05
1678.92	1.56218e-05
1687.48	1.85956e-05
1696.04	1.4208e-05
1704.59	2.22983e-05
1713.15	2.81664e-05
1721.71	3.27539e-05
1730.27	6.36947e-05
1738.83	0.000169164
1747.38	0.000464322
1755.94	0.00108666
1764.5	0.000999402
1773.06	0.00112388
1781.61	0.000432668
1790.17	0.000131752
1798.73	3.48258e-05
1807.29	1.71588e-05
1815.84	1.4978e-05
1824.4	1.58321e-05
1832.96	1.66807e-05
1841.52	1.5595e-05
1850.07	1.32316e-05
1858.63	1.08815e-05
1867.19	1.01641e-05
1875.75	9.68402e-06
1884.3	1.12017e-05
1892.86	1.20366e-05
1901.42	1.26622e-05
1909.98	1.03017e-05
1918.54	6.5979e-06
1927.09	4.42634e-06
1935.65	3.66346e-06
1944.21	3.62508e-06
1952.77	3.74782e-06
1961.32	3.83311e-06
1969.88	3.69182e-06
1978.44	3.51423e-06
1987	3.27363e-06
1995.55	3.91347e-06
2004.11	4.96348e-06
2012.67	6.02443e-06
2021.23	5.9102e-06
2029.78	5.27316e-06
2038.34	3.39673e-06
2046.9	2.71117e-06
2055.46	3.12639e-06
2064.01	4.64297e-06
2072.57	8.15812e-06
2081.13	1.21527e-05
2089.69	1.4103e-05
2098.25	1.1177e-05
2106.8	7.13653e-06
2115.36	3.87003e-06
2123.92	2.24222e-06
2132.48	1.81925e-06
2141.03	2.42715e-06
2149.59	3.34973e-06
2158.15	3.47457e-06
2166.71	3.1985e-06
2175.26	2.82489e-06
2183.82	2.57666e-06
2192.38	2.02844e-06
2200.94	1.29244e-06
2209.49	1.5481e-06
2218.05	2.01223e-06
2226.61	2.56559e-06
2235.17	2.62403e-06
2243.72	2.25444e-06
2252.28	1.71546e-06
2260.84	1.25233e-06
2269.4	1.19949e-06
2277.96	1.52337e-06
2286.51	2.0655e-06
2295.07	2.67657e-06
2303.63	3.20106e-06
2312.19	3.01118e-06
2320.74	2.63495e-06
2329.3	2.18169e-06
2337.86	1.62973e-06
2346.42	1.40232e-06
2354.97	1.19044e-06
2363.53	1.58151e-06
2372.09	1.85534e-06
2380.65	1.78161e-06
2389.2	1.72661e-06
2397.76	1.72987e-06
2406.32	1.92607e-06
2414.88	1.96913e-06
2423.44	2.02289e-06
2431.99	1.88104e-06
2440.55	1.53036e-06
2449.11	1.73339e-06
2457.67	2.74994e-06
2466.22	4.11445e-06
2474.78	4.9825e-06
2483.34	4.39575e-06
2491.9	3.21805e-06
2500.45	1.99816e-06
2509.01	9.09581e-07
2517.57	3.44947e-07
2526.13	1.42638e-07
2534.68	3.63704e-07
2543.24	4.79193e-07
2551.8	6.09408e-07
2560.36	4.33047e-07
2568.91	4.06033e-07
2577.47	3.86887e-07
2586.03	5.83041e-07
2594.59	1.1e-06
2603.15	1.7954e-06
2611.7	2.42708e-06
2620.26	1.95246e-06
2628.82	1.29285e-06
2637.38	8.50365e-07
2645.93	5.38416e-07
2654.49	6.56477e-07
2663.05	9.48385e-07
2671.61	1.37683e-06
2680.16	1.55741e-06
2688.72	1.98658e-06
2697.28	1.91071e-06
2705.84	1.8805e-06
2714.39	1.52414e-06
2722.95	1.80878e-06
2731.51	2.14735e-06
2740.07	2.37946e-06
2748.62	3.07541e-06
2757.18	3.4329e-06
2765.74	3.52971e-06
2774.3	3.45477e-06
2782.86	3.55275e-06
2791.41	3.65601e-06
2799.97	3.21139e-06
2808.53	3.84258e-06
2817.09	5.13252e-06
2825.64	6.14225e-06
2834.2	6.95867e-06
2842.76	8.53002e-06
2851.32	1.05453e-05
2859.87	1.25568e-05
2868.43	1.55192e-05
2876.99	2.8039e-05
2885.55	3.70836e-05
2894.1	4.60488e-05
2902.66	5.06444e-05
2911.22	5.95791e-05
2919.78	5.68384e-05
2928.34	6.10564e-05
2936.89	8.5185e-05
2945.45	0.0001083
2954.01	0.000118636
2962.57	0.000121645
2971.12	0.00013954
2979.68	0.000219411
2988.24	0.000255799
2996.8	0.000287564
3005.35	0.000168194
3013.91	0.000110032
3022.47	5.58487e-05
3031.03	3.38807e-05
3039.58	2.65664e-05
3048.14	2.21847e-05
3056.7	2.06851e-05
3065.26	1.77675e-05
3073.81	1.42953e-05
3082.37	1.06523e-05
3090.93	8.37909e-06
3099.49	7.25894e-06
3108.05	5.69338e-06
3116.6	4.71467e-06
3125.16	4.20983e-06
3133.72	4.13832e-06
3142.28	3.5271e-06
3150.83	2.96832e-06
3159.39	2.26645e-06
3167.95	2.40904e-06
3176.51	2.54936e-06
3185.06	2.48753e-06
3193.62	2.73787e-06
3202.18	2.12608e-06
3210.74	2.09737e-06
3219.29	1.65187e-06
3227.85	1.49104e-06
3236.41	1.03487e-06
3244.97	8.08105e-07
3253.52	4.59625e-07
3262.08	1.48484e-07
3270.64	2.04601e-07
3279.2	2.10832e-07
3287.76	2.48116e-07
3296.31	1.25693e-07
3304.87	1.3541e-07
3313.43	2.44075e-07
3321.99	-8.92752e-08
3330.54	-1.86255e-08
3339.1	-2.88165e-07
3347.66	2.33911e-08
3356.22	2.73966e-07
3364.77	-9.64417e-08
3373.33	2.72377e-07
3381.89	-5.09074e-08
3390.45	9.21418e-08
3399	-6.65099e-08
3407.56	3.40498e-09
3416.12	1.60605e-07
3424.68	5.07208e-07
3433.23	1.19873e-07
3441.79	-1.2434e-08
3450.35	3.89201e-07
3458.91	4.3037e-07
3467.47	1.40492e-08
3476.02	2.69706e-07
3484.58	1.47987e-06
3493.14	4.789e-06
3501.7	1.06511e-05
3510.25	1.06592e-05
3518.81	1.04766e-05
3527.37	3.15947e-06
3535.93	-2.16096e-07
3544.48	-1.34718e-06
3553.04	-1.43257e-06
3561.6	-1.43929e-06
3570.16	-1.34202e-06
3578.71	-9.77077e-07
3587.27	-5.43658e-07
3595.83	-2.88372e-07
3604.39	-2.69757e-07
3612.95	-4.64602e-07
3621.5	-5.33865e-07
3630.06	-6.42872e-07
3638.62	-2.72122e-07
3647.18	-1.46519e-06
3655.73	-5.73918e-07
3664.29	-2.78543e-07
3672.85	-4.45987e-07
3681.41	-6.39485e-07
3689.96	-4.7458e-07
3698.52	-2.6457e-07
3707.08	-4.82769e-07
3715.64	-4.59654e-07
3724.19	-3.44376e-07
3732.75	-4.24022e-07
3741.31	-1.04221e-06
3749.87	-8.72148e-07
3758.42	-1.73341e-08
3766.98	2.06791e-07
3775.54	4.0867e-08
3784.1	-1.96863e-07
3792.66	3.45802e-07
3801.21	-2.15433e-06
3809.77	-1.60092e-07
3818.33	-4.79571e-08
3826.89	-5.40559e-07
3835.44	-4.79062e-08
3844	-2.80373e-07
3852.56	-4.60582e-07
3861.12	2.41888e-07
3869.67	-3.43154e-07
3878.23	1.29113e-07
3886.79	2.50212e-07
3895.35	3.13455e-07
3903.9	-2.40364e-07
3912.46	1.18891e-07
3921.02	1.20619e-07
3929.58	1.74964e-07
3938.13	4.40167e-07
3946.69	5.16015e-07
3955.25	5.14767e-07
3963.81	5.93947e-07
3972.37	9.19861e-07
