Infrared Spectrum: Ethyl Ester Acetic Acid
Formula: C H3 C O2 C H2 C H3
CAS: 141-78-6
State: gas
Melting point: -83.58 C
Boiling point: 77.06 C
Class: IUPAC A
Instrument: IFS66V (Bruker)
Instrument parameters: KBr Beam splitter; MCT Detector; Multipass cell
Sampling: 1 L/min Flow
Resolution: 0.9640
Temperature: 23 C
Pressure: 101.3 kPa
Origin: NIST, Anayltical Chemistry Division, 301-975-3108
cm-1	(micromol/mol)-1m-1 (base 10)
575.169	-4.25914e-07
583.847	3.71799e-06
592.525	1.16205e-05
601.203	2.05168e-05
609.882	2.97213e-05
618.56	3.01e-05
627.238	5.21267e-05
635.916	4.3132e-05
644.594	2.72786e-05
653.272	4.26312e-06
661.951	1.39815e-06
670.629	8.71333e-07
679.307	3.63067e-07
687.985	2.83883e-07
696.663	2.61321e-07
705.341	2.29793e-07
714.019	4.73394e-07
722.698	5.262e-07
731.376	7.28768e-07
740.054	8.89657e-07
748.732	1.6099e-06
757.41	3.86698e-06
766.088	8.87851e-06
774.767	1.81232e-05
783.445	2.39403e-05
792.123	2.57325e-05
800.801	1.69287e-05
809.479	1.19039e-05
818.157	9.23271e-06
826.835	1.40052e-05
835.514	2.68811e-05
844.192	3.94496e-05
852.87	4.1604e-05
861.548	3.14794e-05
870.226	1.456e-05
878.904	6.74227e-06
887.583	4.18162e-06
896.261	5.56784e-06
904.939	1.87737e-05
913.617	3.22314e-05
922.295	3.94949e-05
930.973	4.56498e-05
939.651	3.96003e-05
948.33	2.49826e-05
957.008	5.97745e-06
965.686	5.12667e-06
974.364	7.10419e-06
983.042	1.21104e-05
991.72	2.22535e-05
1000.4	2.54178e-05
1009.08	2.55026e-05
1017.75	2.33663e-05
1026.43	4.26035e-05
1035.11	0.000124282
1043.79	0.000332227
1052.47	0.000527264
1061.15	0.000529413
1069.82	0.000292129
1078.5	0.000142387
1087.18	0.000103684
1095.86	0.000124051
1104.54	0.000140387
1113.21	0.00010661
1121.89	4.94599e-05
1130.57	3.08975e-05
1139.25	1.66625e-05
1147.93	1.50637e-05
1156.61	1.68972e-05
1165.28	1.87134e-05
1173.96	1.91735e-05
1182.64	2.10363e-05
1191.32	2.96081e-05
1200	6.34202e-05
1208.67	0.000142432
1217.35	0.000274834
1226.03	0.000718972
1234.71	0.00155029
1243.39	0.00184606
1252.07	0.00146062
1260.74	0.000648572
1269.42	0.000258617
1278.1	0.000151945
1286.78	6.69048e-05
1295.46	7.11685e-05
1304.13	9.89296e-05
1312.81	8.77114e-05
1321.49	5.39344e-05
1330.17	2.15814e-05
1338.85	1.56248e-05
1347.52	2.8886e-05
1356.2	9.37649e-05
1364.88	0.000219669
1373.56	0.000353876
1382.24	0.000364577
1390.92	0.000188983
1399.59	9.25729e-05
1408.27	7.09925e-05
1416.95	5.23817e-05
1425.63	5.33726e-05
1434.31	6.17301e-05
1442.98	7.01638e-05
1451.66	8.081e-05
1460.34	8.3494e-05
1469.02	8.12166e-05
1477.7	7.51433e-05
1486.38	5.33282e-05
1495.05	4.16861e-05
1503.73	2.65735e-05
1512.41	1.7869e-05
1521.09	1.20922e-05
1529.77	1.36568e-05
1538.44	1.31621e-05
1547.12	1.3661e-05
1555.8	1.44199e-05
1564.48	1.32816e-05
1573.16	9.99064e-06
1581.83	6.90257e-06
1590.51	5.18788e-06
1599.19	5.001e-06
1607.87	5.61777e-06
1616.55	2.32447e-06
1625.23	8.00203e-06
1633.9	8.28475e-06
1642.58	8.78227e-06
1651.26	8.98358e-06
1659.94	1.17396e-05
1668.62	1.34366e-05
1677.29	1.51017e-05
1685.97	1.72321e-05
1694.65	2.01749e-05
1703.33	2.27401e-05
1712.01	2.74391e-05
1720.69	3.14704e-05
1729.36	5.94396e-05
1738.04	0.000153803
1746.72	0.000430942
1755.4	0.00104667
1764.08	0.00100345
1772.75	0.00114748
1781.43	0.00044251
1790.11	0.000133181
1798.79	3.46081e-05
1807.47	1.69154e-05
1816.15	1.49626e-05
1824.82	1.55164e-05
1833.5	1.66602e-05
1842.18	1.52454e-05
1850.86	1.2979e-05
1859.54	1.07384e-05
1868.21	9.85537e-06
1876.89	9.84045e-06
1885.57	1.13431e-05
1894.25	1.21801e-05
1902.93	1.24374e-05
1911.6	9.81688e-06
1920.28	5.87923e-06
1928.96	4.24159e-06
1937.64	3.59246e-06
1946.32	3.51431e-06
1955	3.7329e-06
1963.67	3.79582e-06
1972.35	3.6517e-06
1981.03	3.31864e-06
1989.71	3.32775e-06
1998.39	4.19692e-06
2007.06	5.21757e-06
2015.74	6.11268e-06
2024.42	5.73229e-06
2033.1	4.678e-06
2041.78	2.99406e-06
2050.46	2.8085e-06
2059.13	3.66404e-06
2067.81	5.82168e-06
2076.49	1.03186e-05
2085.17	1.34406e-05
2093.85	1.36439e-05
2102.52	8.86446e-06
2111.2	5.2931e-06
2119.88	2.60006e-06
2128.56	1.93796e-06
2137.24	1.95324e-06
2145.91	3.01842e-06
2154.59	3.37211e-06
2163.27	3.32398e-06
2171.95	2.95907e-06
2180.63	2.83109e-06
2189.31	2.30386e-06
2197.98	1.31586e-06
2206.66	1.33097e-06
2215.34	1.80193e-06
2224.02	2.24948e-06
2232.7	2.59665e-06
2241.37	2.30478e-06
2250.05	1.9132e-06
2258.73	1.37496e-06
2267.41	1.16681e-06
2276.09	1.45473e-06
2284.77	1.96275e-06
2293.44	2.63352e-06
2302.12	3.11208e-06
2310.8	3.16422e-06
2319.48	2.72732e-06
2328.16	2.05742e-06
2336.83	1.72707e-06
2345.51	1.4888e-06
2354.19	1.16839e-06
2362.87	1.45074e-06
2371.55	1.68734e-06
2380.23	1.72139e-06
2388.9	1.6694e-06
2397.58	1.75321e-06
2406.26	1.89579e-06
2414.94	1.99647e-06
2423.62	2.04608e-06
2432.29	1.81905e-06
2440.97	1.55952e-06
2449.65	1.76623e-06
2458.33	2.87409e-06
2467.01	4.3303e-06
2475.68	4.88946e-06
2484.36	4.32338e-06
2493.04	3.12948e-06
2501.72	1.96924e-06
2510.4	9.13346e-07
2519.08	3.15641e-07
2527.75	2.19177e-07
2536.43	4.34775e-07
2545.11	5.67522e-07
2553.79	6.11852e-07
2562.47	4.87498e-07
2571.14	3.50229e-07
2579.82	3.35733e-07
2588.5	6.96355e-07
2597.18	1.39563e-06
2605.86	2.14264e-06
2614.54	2.27118e-06
2623.21	1.67476e-06
2631.89	1.08411e-06
2640.57	7.274e-07
2649.25	4.94392e-07
2657.93	6.59948e-07
2666.6	1.0248e-06
2675.28	1.52944e-06
2683.96	1.85614e-06
2692.64	2.12817e-06
2701.32	1.70082e-06
2709.99	1.65898e-06
2718.67	1.57504e-06
2727.35	2.00505e-06
2736.03	2.4659e-06
2744.71	2.65183e-06
2753.39	3.24196e-06
2762.06	3.50524e-06
2770.74	3.51896e-06
2779.42	3.56499e-06
2788.1	3.55363e-06
2796.78	3.17164e-06
2805.45	3.50457e-06
2814.13	4.7892e-06
2822.81	5.69063e-06
2831.49	6.77591e-06
2840.17	7.82287e-06
2848.85	9.95831e-06
2857.52	1.21032e-05
2866.2	1.40339e-05
2874.88	2.36466e-05
2883.56	3.50887e-05
2892.24	4.44996e-05
2900.91	4.93047e-05
2909.59	5.79641e-05
2918.27	5.75468e-05
2926.95	6.07196e-05
2935.63	7.96639e-05
2944.31	0.000106808
2952.98	0.000118696
2961.66	0.000120522
2970.34	0.000136371
2979.02	0.00021262
2987.7	0.000253835
2996.37	0.000301028
3005.05	0.000171062
3013.73	0.000111201
3022.41	5.61176e-05
3031.09	3.38251e-05
3039.76	2.63762e-05
3048.44	2.21431e-05
3057.12	2.07292e-05
3065.8	1.75943e-05
3074.48	1.39265e-05
3083.16	1.02915e-05
3091.83	8.08013e-06
3100.51	6.90182e-06
3109.19	5.56185e-06
3117.87	4.48418e-06
3126.55	4.14592e-06
3135.22	3.98744e-06
3143.9	3.17774e-06
3152.58	2.70952e-06
3161.26	2.17487e-06
3169.94	2.35789e-06
3178.62	2.70617e-06
3187.29	2.93555e-06
3195.97	2.61133e-06
3204.65	2.23516e-06
3213.33	1.90065e-06
3222.01	1.51071e-06
3230.68	1.13703e-06
3239.36	1.05401e-06
3248.04	5.53961e-07
3256.72	2.59124e-07
3265.4	1.33336e-07
3274.07	-1.84109e-08
3282.75	1.23132e-07
3291.43	1.97776e-07
3300.11	2.53224e-07
3308.79	5.99691e-08
3317.47	2.02367e-07
3326.14	6.29376e-08
3334.82	2.3602e-08
3343.5	-1.64512e-07
3352.18	1.90814e-07
3360.86	2.69546e-07
3369.53	2.63213e-07
3378.21	-1.104e-07
3386.89	5.11438e-08
3395.57	-4.16055e-08
3404.25	3.63052e-09
3412.93	1.28924e-07
3421.6	3.21702e-07
3430.28	3.80896e-07
3438.96	2.88165e-07
3447.64	9.90973e-08
3456.32	1.70809e-07
3464.99	4.82991e-08
3473.67	3.8226e-08
3482.35	8.67604e-07
3491.03	3.76931e-06
3499.71	9.50528e-06
3508.39	1.0756e-05
3517.06	1.20286e-05
3525.74	4.05994e-06
3534.42	1.22543e-07
3543.1	-1.34885e-06
3551.78	-1.51352e-06
3560.45	-1.42617e-06
3569.13	-1.32716e-06
3577.81	-8.14645e-07
3586.49	-1.4943e-06
3595.17	-6.13311e-07
3603.84	-6.24246e-09
3612.52	-1.46834e-06
3621.2	-4.57191e-07
3629.88	-1.96949e-06
3638.56	-4.35212e-07
3647.24	-1.51793e-06
3655.91	-9.92094e-07
3664.59	-4.69844e-07
3673.27	-3.30822e-08
3681.95	-2.64086e-07
3690.63	-6.06414e-07
3699.3	-3.52015e-07
3707.98	-5.27546e-07
3716.66	-3.30851e-07
3725.34	-6.72324e-07
3734.02	-3.05481e-07
3742.7	-3.28915e-07
3751.37	-1.01284e-07
3760.05	-1.02774e-06
3768.73	-2.08526e-07
3777.41	3.92337e-08
3786.09	1.21866e-08
3794.76	6.59388e-08
3803.44	-2.76225e-07
3812.12	-2.51805e-07
3820.8	-1.75215e-06
3829.48	2.27835e-08
3838.16	-2.94752e-06
3846.83	-1.18098e-07
3855.51	-4.94741e-10
3864.19	-2.48465e-07
3872.87	9.43354e-08
3881.55	-1.19273e-07
3890.22	-6.29339e-08
3898.9	-1.46996e-07
3907.58	6.42435e-08
3916.26	2.35729e-08
3924.94	4.72841e-08
3933.61	3.96909e-07
3942.29	3.2272e-07
3950.97	9.77819e-07
3959.65	5.80178e-07
3968.33	9.16973e-07
