Infrared Spectrum: 2-PROPENOIC ACID, BUTYL ESTER
Formula: C7 H12 O2
CAS: 141-32-2
State: SOLUTION (5% IN CCl4 FOR 3800-1300, 5% IN CS2 FOR 1300-600, AND 5% IN CCl4 FOR 600-240 CM^-^1) VERSUS SOLVENT
Class: COBLENTZ III
Instrument: PERKIN-ELMER 521 (GRATING)
Instrument parameters: FILTERS AT 3150, 2500, 2000, 1150, 700, 410; GRATING CHANGES AT 2000, 630 CM^-^1
Sampling: TRANSMISSION
Path length: 0.010, 0.010, AND 0.020 CM (CsBr CELL)
Resolution: 4
Origin: DOW CORNING CORP.
1/CM	TRANSMITTANCE
233.6	0.805
242.56	0.805
251.52	0.811
260.48	0.807
269.44	0.802
278.4	0.793
287.36	0.79
296.32	0.795
305.28	0.788
314.24	0.779
323.2	0.793
332.16	0.786
341.12	0.769
350.08	0.755
359.04	0.75
368	0.763
376.96	0.795
385.92	0.812
394.88	0.826
403.84	0.828
412.8	0.825
421.76	0.816
430.72	0.788
439.68	0.798
448.64	0.807
457.6	0.805
466.56	0.814
475.52	0.818
484.48	0.818
493.44	0.807
502.4	0.788
511.36	0.798
520.32	0.811
529.28	0.812
538.24	0.814
547.2	0.818
556.16	0.83
565.12	0.835
574.08	0.84
583.04	0.842
592	0.84
600.96	0.825
609.92	0.832
618.88	0.853
627.84	0.847
636.8	0.853
645.76	0.847
654.72	0.828
663.68	0.795
672.64	0.816
681.6	0.865
690.56	0.872
699.52	0.877
708.48	0.872
717.44	0.875
726.4	0.858
735.36	0.807
744.32	0.844
753.28	0.853
762.24	0.863
771.2	0.86
780.16	0.858
789.12	0.823
798.08	0.729
807.04	0.3603
816	0.6688
824.96	0.786
833.92	0.797
842.88	0.807
851.84	0.811
860.8	0.812
869.76	0.818
878.72	0.84
887.68	0.849
896.64	0.832
905.6	0.811
914.56	0.823
923.52	0.837
932.48	0.819
941.44	0.729
950.4	0.659
959.36	0.4454
968.32	0.4838
977.28	0.4561
986.24	0.3646
995.2	0.706
1004.16	0.73
1013.12	0.739
1022.08	0.722
1031.04	0.725
1040	0.618
1048.96	0.559
1057.92	0.4
1066.88	0.381
1075.84	0.5778
1084.8	0.753
1093.76	0.791
1102.72	0.809
1111.68	0.769
1120.64	0.767
1129.6	0.767
1138.56	0.75
1147.52	0.678
1156.48	0.641
1165.44	0.5271
1174.4	0.3091
1183.36	0.04
1192.32	0.019
1201.28	0.2318
1210.24	0.4629
1219.2	0.641
1228.16	0.653
1237.12	0.629
1246.08	0.604
1255.04	0.4313
1264	0.2721
1272.96	0.145
1281.92	0.3697
1290.88	0.3652
1299.84	0.2648
1308.8	0.611
1317.76	0.7389
1326.72	0.762
1335.68	0.8
1344.64	0.816
1353.6	0.816
1362.56	0.814
1371.52	0.786
1380.48	0.641
1389.44	0.671
1398.4	0.62
1407.36	0.1182
1416.32	0.5618
1425.28	0.76
1434.24	0.737
1443.2	0.744
1452.16	0.604
1461.12	0.545
1470.08	0.5728
1479.04	0.7079
1488	0.814
1496.96	0.835
1505.92	0.851
1514.88	0.856
1523.84	0.858
1532.8	0.868
1541.76	0.875
1550.72	0.877
1559.68	0.872
1568.64	0.865
1577.6	0.86
1586.56	0.854
1595.52	0.839
1604.48	0.821
1613.44	0.756
1622.4	0.6171
1631.36	0.681
1640.32	0.536
1649.28	0.7979
1658.24	0.821
1667.2	0.814
1676.16	0.798
1685.12	0.746
1694.08	0.729
1703.04	0.6661
1712	0.5191
1720.96	0.1321
1729.92	0.003
1738.88	0.043
1747.84	0.4819
1756.8	0.695
1765.76	0.762
1774.72	0.8
1783.68	0.818
1792.64	0.828
1801.6	0.842
1810.56	0.849
1819.52	0.854
1828.48	0.858
1837.44	0.86
1846.4	0.858
1855.36	0.861
1864.32	0.863
1873.28	0.863
1882.24	0.861
1891.2	0.858
1900.16	0.858
1909.12	0.858
1918.08	0.853
1927.04	0.832
1936	0.837
1944.96	0.849
1953.92	0.854
1962.88	0.858
1971.84	0.86
1980.8	0.863
1989.76	0.863
1998.72	0.875
2007.68	0.868
2016.64	0.865
2025.6	0.865
2034.56	0.865
2043.52	0.861
2052.48	0.86
2061.44	0.863
2070.4	0.861
2079.36	0.861
2088.32	0.861
2097.28	0.863
2106.24	0.863
2115.2	0.865
2124.16	0.865
2133.12	0.865
2142.08	0.863
2151.04	0.865
2160	0.865
2168.96	0.863
2177.92	0.856
2186.88	0.863
2195.84	0.861
2204.8	0.865
2213.76	0.866
2222.72	0.867
2231.68	0.867
2240.64	0.868
2249.6	0.867
2258.56	0.863
2267.52	0.866
2276.48	0.867
2285.44	0.861
2294.4	0.861
2303.36	0.862
2312.32	0.861
2321.28	0.861
2330.24	0.861
2339.2	0.861
2348.16	0.86
2357.12	0.857
2366.08	0.856
2375.04	0.856
2384	0.856
2392.96	0.856
2401.92	0.858
2410.88	0.859
2419.84	0.858
2428.8	0.858
2437.76	0.86
2446.72	0.858
2455.68	0.858
2464.64	0.857
2473.6	0.854
2482.56	0.854
2491.52	0.856
2500.48	0.854
2509.44	0.854
2518.4	0.856
2527.36	0.856
2536.32	0.854
2545.28	0.854
2554.24	0.854
2563.2	0.856
2572.16	0.854
2581.12	0.854
2590.08	0.851
2599.04	0.851
2608	0.8535
2616.96	0.853
2625.92	0.854
2634.88	0.854
2643.84	0.853
2652.8	0.854
2661.76	0.853
2670.72	0.853
2679.68	0.853
2688.64	0.853
2697.6	0.851
2706.56	0.851
2715.52	0.85
2724.48	0.849
2733.44	0.8465
2742.4	0.846
2751.36	0.847
2760.32	0.846
2769.28	0.845
2778.24	0.844
2787.2	0.842
2796.16	0.837
2805.12	0.831
2814.08	0.826
2823.04	0.8195
2832	0.8041
2840.96	0.7742
2849.92	0.7111
2858.88	0.6851
2867.84	0.5525
2876.8	0.4446
2885.76	0.5685
2894.72	0.6037
2903.68	0.559
2912.64	0.5321
2921.6	0.501
2930.56	0.4001
2939.52	0.3457
2948.48	0.3805
2957.44	0.2693
2966.4	0.15
2975.36	0.2859
2984.32	0.5321
2993.28	0.6476
3002.24	0.741
3011.2	0.783
3020.16	0.8009
3029.12	0.807
3038.08	0.7916
3047.04	0.8088
3056	0.829
3064.96	0.832
3073.92	0.833
3082.88	0.842
3091.84	0.843
3100.8	0.833
3109.76	0.821
3118.72	0.849
3127.68	0.852
3136.64	0.856
3145.6	0.854
3154.56	0.854
3163.52	0.853
3172.48	0.853
3181.44	0.854
3190.4	0.856
3199.36	0.854
3208.32	0.856
3217.28	0.861
3226.24	0.861
3235.2	0.863
3244.16	0.865
3253.12	0.866
3262.08	0.867
3271.04	0.867
3280	0.868
3288.96	0.8675
3297.92	0.868
3306.88	0.868
3315.84	0.868
3324.8	0.868
3333.76	0.865
3342.72	0.866
3351.68	0.867
3360.64	0.865
3369.6	0.867
3378.56	0.868
3387.52	0.87
3396.48	0.87
3405.44	0.868
3414.4	0.864
3423.36	0.856
3432.32	0.849
3441.28	0.847
3450.24	0.851
3459.2	0.863
3468.16	0.867
3477.12	0.87
3486.08	0.872
3495.04	0.872
3504	0.874
3512.96	0.872
3521.92	0.873
3530.88	0.874
3539.84	0.873
3548.8	0.872
3557.76	0.872
3566.72	0.874
3575.68	0.874
3584.64	0.8839
3593.6	0.875
3602.56	0.879
3611.52	0.877
3620.48	0.875
3629.44	0.879
3638.4	0.875
3647.36	0.879
3656.32	0.875
3665.28	0.877
3674.24	0.882
3683.2	0.877
3692.16	0.875
3701.12	0.8815
3710.08	0.884
3719.04	0.879
3728	0.884
3736.96	0.884
3745.92	0.889
3754.88	0.884
3763.84	0.881
3772.8	0.877
3781.76	0.882
3790.72	0.882
3799.68	0.884
