Infrared Spectrum: Ethyl Ester Acetic Acid
Formula: C H3 C O2 C H2 C H3
CAS: 141-78-6
State: gas
Melting point: -83.58 C
Boiling point: 77.06 C
Class: IUPAC A
Instrument: IFS66V (Bruker)
Instrument parameters: KBr Beam splitter; MCT Detector; Multipass cell
Sampling: 1 L/min Flow
Resolution: 0.2410
Temperature: 23 C
Pressure: 101.3 kPa
Origin: NIST, Anayltical Chemistry Division, 301-975-3108
cm-1	(micromol/mol)-1m-1 (base 10)
575.048	-2.20356e-07
583.606	3.58171e-06
592.163	9.94384e-06
600.721	1.96454e-05
609.279	3.03697e-05
617.836	2.92911e-05
626.394	5.13633e-05
634.951	4.17684e-05
643.509	3.08429e-05
652.067	5.76895e-06
660.624	1.59132e-06
669.182	7.15959e-07
677.74	3.80157e-07
686.297	5.25346e-07
694.855	-1.28414e-08
703.412	3.33965e-07
711.97	2.38909e-07
720.528	5.3285e-07
729.085	6.67926e-07
737.643	7.45844e-07
746.201	1.33704e-06
754.758	2.96422e-06
763.316	7.03313e-06
771.873	1.46279e-05
780.431	2.45843e-05
788.989	2.67551e-05
797.546	2.04224e-05
806.104	1.28257e-05
814.662	9.13343e-06
823.219	1.09166e-05
831.777	2.0023e-05
840.334	3.6616e-05
848.892	4.12819e-05
857.45	3.92978e-05
866.007	2.17242e-05
874.565	9.8726e-06
883.123	5.05045e-06
891.68	4.45717e-06
900.238	9.43914e-06
908.795	2.61929e-05
917.353	3.3694e-05
925.911	4.13622e-05
934.468	4.12919e-05
943.026	3.26393e-05
951.584	1.2787e-05
960.141	5.24571e-06
968.699	5.49836e-06
977.256	8.26049e-06
985.814	1.49042e-05
994.372	2.44937e-05
1002.93	2.56844e-05
1011.49	2.419e-05
1020.04	2.60643e-05
1028.6	5.43811e-05
1037.16	0.000160948
1045.72	0.000387798
1054.28	0.000537342
1062.83	0.000507521
1071.39	0.000245011
1079.95	0.000131319
1088.51	0.000104233
1097.06	0.000128107
1105.62	0.00012043
1114.18	9.96958e-05
1122.74	4.6695e-05
1131.29	2.86807e-05
1139.85	1.62825e-05
1148.41	1.51664e-05
1156.97	1.71858e-05
1165.52	1.85323e-05
1174.08	1.91832e-05
1182.64	2.1047e-05
1191.2	2.9401e-05
1199.75	6.18882e-05
1208.31	0.000138326
1216.87	0.000264363
1225.43	0.000666466
1233.99	0.00150363
1242.54	0.00187015
1251.1	0.00159596
1259.66	0.000741806
1268.22	0.000276238
1276.77	0.000178107
1285.33	7.29514e-05
1293.89	6.70663e-05
1302.45	9.29257e-05
1311	9.51862e-05
1319.56	6.51093e-05
1328.12	2.57628e-05
1336.68	1.58151e-05
1345.23	2.17921e-05
1353.79	7.27312e-05
1362.35	0.000172749
1370.91	0.000351167
1379.46	0.000337333
1388.02	0.000268404
1396.58	0.000113734
1405.14	8.06227e-05
1413.7	5.62333e-05
1422.25	5.2379e-05
1430.81	5.84869e-05
1439.37	6.65174e-05
1447.93	7.25165e-05
1456.48	7.72495e-05
1465.04	7.99853e-05
1473.6	7.37797e-05
1482.16	6.7219e-05
1490.71	4.65171e-05
1499.27	3.34474e-05
1507.83	2.1839e-05
1516.39	1.65195e-05
1524.94	1.4306e-05
1533.5	1.26292e-05
1542.06	9.32945e-06
1550.62	1.38373e-05
1559.18	1.41885e-05
1567.73	1.20367e-05
1576.29	3.7625e-06
1584.85	5.85874e-06
1593.41	5.13864e-06
1601.96	5.1886e-06
1610.52	5.89853e-06
1619.08	7.02898e-06
1627.64	7.44929e-06
1636.19	7.98894e-06
1644.75	9.1482e-06
1653.31	1.73377e-06
1661.87	1.19969e-05
1670.42	1.35675e-05
1678.98	1.55908e-05
1687.54	1.85587e-05
1696.1	1.63212e-05
1704.65	2.257e-05
1713.21	2.82503e-05
1721.77	3.28656e-05
1730.33	6.4123e-05
1738.89	0.000170392
1747.44	0.000467644
1756	0.00109098
1764.56	0.000997411
1773.12	0.00111851
1781.67	0.000429693
1790.23	0.000130451
1798.79	3.45436e-05
1807.35	1.71184e-05
1815.9	1.49561e-05
1824.46	1.58012e-05
1833.02	1.66728e-05
1841.58	1.55836e-05
1850.13	1.31937e-05
1858.69	1.09045e-05
1867.25	1.01101e-05
1875.81	9.67067e-06
1884.36	1.12029e-05
1892.92	1.20496e-05
1901.48	1.26499e-05
1910.04	1.03795e-05
1918.6	6.6158e-06
1927.15	4.46173e-06
1935.71	3.66477e-06
1944.27	3.55533e-06
1952.83	3.67959e-06
1961.38	3.81414e-06
1969.94	3.62984e-06
1978.5	3.50136e-06
1987.06	3.3114e-06
1995.61	3.80371e-06
2004.17	4.95911e-06
2012.73	5.94774e-06
2021.29	5.92435e-06
2029.84	5.27197e-06
2038.4	3.41238e-06
2046.96	2.72225e-06
2055.52	3.18424e-06
2064.08	4.64846e-06
2072.63	8.15461e-06
2081.19	1.2135e-05
2089.75	1.41097e-05
2098.31	1.11595e-05
2106.86	7.08675e-06
2115.42	3.78402e-06
2123.98	2.20195e-06
2132.54	1.79642e-06
2141.09	2.42526e-06
2149.65	3.33962e-06
2158.21	3.30546e-06
2166.77	3.17513e-06
2175.32	2.83889e-06
2183.88	2.55789e-06
2192.44	1.98526e-06
2201	1.32637e-06
2209.55	1.56717e-06
2218.11	1.99828e-06
2226.67	2.54352e-06
2235.23	2.58458e-06
2243.79	2.16934e-06
2252.34	1.71231e-06
2260.9	1.27506e-06
2269.46	1.24523e-06
2278.02	1.46108e-06
2286.57	2.08013e-06
2295.13	2.70725e-06
2303.69	3.24089e-06
2312.25	2.99855e-06
2320.8	2.66006e-06
2329.36	2.08296e-06
2337.92	1.64776e-06
2346.48	1.40617e-06
2355.03	1.14588e-06
2363.59	1.53907e-06
2372.15	1.80899e-06
2380.71	1.75868e-06
2389.26	1.76633e-06
2397.82	1.7014e-06
2406.38	1.8613e-06
2414.94	2.02246e-06
2423.5	2.03157e-06
2432.05	1.79289e-06
2440.61	1.52345e-06
2449.17	1.74152e-06
2457.73	2.72133e-06
2466.28	4.09059e-06
2474.84	4.91373e-06
2483.4	4.41393e-06
2491.96	3.21764e-06
2500.51	1.95867e-06
2509.07	9.41965e-07
2517.63	3.34616e-07
2526.19	1.55741e-07
2534.74	3.12814e-07
2543.3	5.15578e-07
2551.86	6.32592e-07
2560.42	4.02603e-07
2568.98	3.32218e-07
2577.53	3.55348e-07
2586.09	5.45375e-07
2594.65	1.12363e-06
2603.21	1.80681e-06
2611.76	2.38597e-06
2620.32	1.91526e-06
2628.88	1.3144e-06
2637.44	8.68725e-07
2645.99	5.34153e-07
2654.55	5.90673e-07
2663.11	9.26322e-07
2671.67	1.43725e-06
2680.22	1.68934e-06
2688.78	2.0433e-06
2697.34	1.87509e-06
2705.9	1.83631e-06
2714.45	1.51038e-06
2723.01	1.79977e-06
2731.57	2.08122e-06
2740.13	2.3777e-06
2748.69	3.0529e-06
2757.24	3.30615e-06
2765.8	3.41741e-06
2774.36	3.52026e-06
2782.92	3.53566e-06
2791.47	3.58953e-06
2800.03	3.15721e-06
2808.59	3.83928e-06
2817.15	5.23378e-06
2825.7	6.1352e-06
2834.26	6.91916e-06
2842.82	8.5939e-06
2851.38	1.06132e-05
2859.93	1.26389e-05
2868.49	1.54483e-05
2877.05	2.81439e-05
2885.61	3.71034e-05
2894.16	4.60242e-05
2902.72	5.08045e-05
2911.28	5.95226e-05
2919.84	5.68508e-05
2928.4	6.12091e-05
2936.95	8.53326e-05
2945.51	0.000108415
2954.07	0.000118695
2962.63	0.00012136
2971.18	0.000139823
2979.74	0.000220135
2988.3	0.000256105
2996.86	0.000285903
3005.41	0.000167881
3013.97	0.000109438
3022.53	5.55349e-05
3031.09	3.38673e-05
3039.64	2.64298e-05
3048.2	2.21787e-05
3056.76	2.06826e-05
3065.32	1.78017e-05
3073.88	1.42002e-05
3082.43	1.06709e-05
3090.99	8.31929e-06
3099.55	7.23506e-06
3108.11	5.67676e-06
3116.66	4.7513e-06
3125.22	4.15427e-06
3133.78	4.1607e-06
3142.34	3.42614e-06
3150.89	2.82794e-06
3159.45	2.272e-06
3168.01	2.31291e-06
3176.57	2.49949e-06
3185.12	2.67439e-06
3193.68	2.6726e-06
3202.24	2.3188e-06
3210.8	2.00525e-06
3219.35	1.5987e-06
3227.91	1.33887e-06
3236.47	9.84974e-07
3245.03	7.33224e-07
3253.59	5.05225e-07
3262.14	2.02513e-07
3270.7	1.43948e-07
3279.26	7.40511e-08
3287.82	2.15089e-07
3296.37	1.52962e-07
3304.93	9.61689e-08
3313.49	1.48531e-07
3322.05	-3.20126e-10
3330.6	2.3864e-09
3339.16	-3.16787e-07
3347.72	-8.80966e-08
3356.28	3.31269e-07
3364.83	2.0666e-07
3373.39	1.94237e-07
3381.95	-5.71535e-08
3390.51	1.00331e-07
3399.06	-1.79656e-07
3407.62	-3.96193e-08
3416.18	2.34984e-07
3424.74	3.85228e-07
3433.3	1.78598e-07
3441.85	1.24227e-07
3450.41	3.50236e-07
3458.97	3.82362e-07
3467.53	-1.45377e-07
3476.08	2.47025e-07
3484.64	1.44499e-06
3493.2	4.81674e-06
3501.76	1.0739e-05
3510.31	1.05333e-05
3518.87	1.05754e-05
3527.43	3.22105e-06
3535.99	-2.70823e-07
3544.54	-1.39582e-06
3553.1	-1.50243e-06
3561.66	-1.30486e-06
3570.22	-1.25886e-06
3578.78	-9.59553e-07
3587.33	-5.52433e-07
3595.89	-2.73606e-07
3604.45	-2.12578e-07
3613.01	-5.17728e-07
3621.56	-4.71492e-07
3630.12	-5.63608e-07
3638.68	-3.11563e-07
3647.24	-1.25618e-06
3655.79	-5.27659e-07
3664.35	-3.32157e-07
3672.91	-4.63976e-07
3681.47	-5.40523e-07
3690.02	-4.98422e-07
3698.58	-3.80998e-07
3707.14	-4.5578e-07
3715.7	-2.83763e-07
3724.25	-3.0484e-07
3732.81	-4.51407e-07
3741.37	-9.3398e-07
3749.93	-7.67179e-07
3758.49	-1.40172e-07
3767.04	1.51303e-07
3775.6	6.60152e-08
3784.16	-1.98089e-07
3792.72	1.63268e-07
3801.27	-3.61824e-06
3809.83	-1.16544e-07
3818.39	4.24167e-09
3826.95	-4.17405e-07
3835.5	3.03029e-09
3844.06	-1.67524e-07
3852.62	-4.02326e-07
3861.18	9.9301e-08
3869.73	-3.43183e-07
3878.29	4.17474e-08
3886.85	1.34526e-07
3895.41	2.08482e-07
3903.96	-5.05541e-07
3912.52	1.35697e-07
3921.08	8.80166e-08
3929.64	2.17064e-07
3938.2	4.30788e-07
3946.75	4.71888e-07
3955.31	5.26492e-07
3963.87	6.42912e-07
3972.43	8.80748e-07
