Infrared Spectrum: 4-THIAZOLIDINONE, 5-BENZYLIDENE-2-IMINO-
Formula: C10 H8 N2 O S
CAS: 14230-00-3
State: SOLID (KBr PELLET)
Melting point: 280 C
Class: COBLENTZ
Instrument: Not specified, most likely a prism, grating, or hybrid spectrometer.
Sampling: TRANSMISSION
Resolution: 4
Origin: TENNESSEE EASTMAN COMPANY, RESEARCH LABORATORIES
MICROMETERS	TRANSMITTANCE
2	0.883
2.04105	0.886
2.0821	0.891
2.12315	0.898
2.16421	0.902
2.20526	0.905
2.24631	0.91
2.28736	0.914
2.32841	0.919
2.36946	0.922
2.41051	0.926
2.45157	0.927
2.49262	0.931
2.53367	0.931
2.57472	0.932
2.61577	0.931
2.65682	0.932
2.69787	0.932
2.73893	0.9
2.77998	0.798
2.82103	0.75
2.86208	0.692
2.90313	0.668
2.94418	0.659
2.98523	0.659
3.02629	0.618
3.06734	0.4
3.10839	0.218
3.14944	0.197
3.19049	0.333
3.23154	0.371
3.27259	0.295
3.31365	0.274
3.3547	0.341
3.39575	0.474
3.4368	0.565
3.47785	0.644
3.5189	0.634
3.55995	0.67
3.60101	0.718
3.64206	0.766
3.68311	0.812
3.72416	0.828
3.76521	0.841
3.80626	0.857
3.84731	0.891
3.88837	0.912
3.92942	0.919
3.97047	0.922
4.01152	0.932
4.05257	0.946
4.09362	0.953
4.13467	0.955
4.17573	0.958
4.21678	0.963
4.25783	0.963
4.29888	0.963
4.33993	0.96
4.38098	0.963
4.42203	0.972
4.46309	0.984
4.50414	0.989
4.54519	0.991
4.58624	0.991
4.62729	0.991
4.66834	0.993
4.70939	0.993
4.75045	0.993
4.7915	0.993
4.83255	0.994
4.8736	0.996
4.91465	0.996
4.9557	0.996
4.99675	1.001
5.03781	1
5.07886	1.001
5.11991	1.001
5.16096	0.991
5.20201	0.989
5.24306	0.989
5.28411	0.991
5.32517	0.989
5.36622	0.986
5.40727	0.986
5.44832	0.987
5.48937	0.986
5.53042	0.986
5.57147	0.969
5.61253	0.965
5.65358	0.958
5.69463	0.957
5.73568	0.941
5.77673	0.917
5.81778	0.852
5.85883	0.768
5.89989	0.525
5.94094	0.209
5.98199	0.134
6.02304	0.259
6.06409	0.424
6.10514	0.489
6.14619	0.518
6.18725	0.39
6.2283	0.443
6.26935	0.486
6.3104	0.481
6.35145	0.439
6.3925	0.384
6.43355	0.323
6.47461	0.247
6.51566	0.199
6.55671	0.135
6.59776	0.104
6.63881	0.111
6.67986	0.202
6.72091	0.367
6.76197	0.467
6.80302	0.51
6.84407	0.539
6.88512	0.414
6.92617	0.563
6.96722	0.58
7.00827	0.591
7.04933	0.621
7.09038	0.592
7.13143	0.402
7.17248	0.249
7.21353	0.336
7.25458	0.323
7.29563	0.292
7.33668	0.451
7.37774	0.582
7.41879	0.652
7.45984	0.646
7.50089	0.737
7.54194	0.718
7.58299	0.664
7.62404	0.675
7.6651	0.618
7.70615	0.261
7.7472	0.135
7.78825	0.099
7.8293	0.099
7.87035	0.245
7.9114	0.402
7.95246	0.493
7.99351	0.515
8.03456	0.556
8.07561	0.663
8.11666	0.721
8.15771	0.726
8.19876	0.731
8.23982	0.618
8.28087	0.489
8.32192	0.675
8.36297	0.735
8.40402	0.735
8.44507	0.756
8.48612	0.769
8.52718	0.769
8.56823	0.73
8.60928	0.634
8.65033	0.39
8.69138	0.293
8.73243	0.427
8.77348	0.615
8.81454	0.69
8.85559	0.731
8.89664	0.756
8.93769	0.769
8.97874	0.776
9.01979	0.778
9.06084	0.778
9.1019	0.773
9.14295	0.793
9.184	0.804
9.22505	0.807
9.2661	0.804
9.30715	0.805
9.3482	0.81
9.38926	0.814
9.43031	0.823
9.47136	0.826
9.51241	0.828
9.55346	0.828
9.59451	0.829
9.63556	0.828
9.67662	0.805
9.71767	0.807
9.75872	0.812
9.79977	0.812
9.84082	0.793
9.88187	0.733
9.92292	0.701
9.96398	0.725
10.005	0.783
10.0461	0.804
10.0871	0.812
10.1282	0.816
10.1692	0.821
10.2103	0.824
10.2513	0.826
10.2924	0.829
10.3334	0.838
10.3745	0.836
10.4155	0.835
10.4566	0.836
10.4976	0.836
10.5387	0.838
10.5797	0.836
10.6208	0.84
10.6619	0.841
10.7029	0.841
10.744	0.841
10.785	0.841
10.8261	0.833
10.8671	0.798
10.9082	0.761
10.9492	0.761
10.9903	0.757
11.0313	0.79
11.0724	0.817
11.1134	0.824
11.1545	0.831
11.1955	0.833
11.2366	0.824
11.2776	0.821
11.3187	0.823
11.3597	0.826
11.4008	0.828
11.4418	0.828
11.4829	0.828
11.5239	0.829
11.565	0.826
11.606	0.805
11.6471	0.771
11.6881	0.754
11.7292	0.754
11.7702	0.754
11.8113	0.75
11.8523	0.743
11.8934	0.731
11.9344	0.728
11.9755	0.73
12.0165	0.733
12.0576	0.742
12.0987	0.745
12.1397	0.756
12.1808	0.769
12.2218	0.785
12.2629	0.79
12.3039	0.792
12.345	0.793
12.386	0.798
12.4271	0.802
12.4681	0.802
12.5092	0.8
12.5502	0.8
12.5913	0.795
12.6323	0.774
12.6734	0.759
12.7144	0.742
12.7555	0.704
12.7965	0.644
12.8376	0.558
12.8786	0.422
12.9197	0.333
12.9607	0.288
13.0018	0.28
13.0428	0.3
13.0839	0.41
13.1249	0.542
13.166	0.68
13.207	0.728
13.2481	0.745
13.2891	0.745
13.3302	0.747
13.3712	0.749
13.4123	0.743
13.4533	0.74
13.4944	0.74
13.5354	0.742
13.5765	0.74
13.6176	0.733
13.6586	0.718
13.6997	0.702
13.7407	0.678
13.7818	0.652
13.8228	0.63
13.8639	0.611
13.9049	0.608
13.946	0.608
13.987	0.613
14.0281	0.616
14.0691	0.627
14.1102	0.635
14.1512	0.639
14.1923	0.644
14.2333	0.649
14.2744	0.64
14.3154	0.608
14.3565	0.573
14.3975	0.548
14.4386	0.546
14.4796	0.568
14.5207	0.587
14.5617	0.589
14.6028	0.568
14.6438	0.512
14.6849	0.457
14.7259	0.438
14.767	0.46
14.808	0.529
14.8491	0.601
14.8901	0.661
14.9312	0.699
14.9722	0.721
15.0133	0.745
15.0544	0.761
15.0954	0.769
15.1365	0.774
15.1775	0.776
15.2186	0.78
15.2596	0.78
15.3007	0.778
15.3417	0.778
15.3828	0.774
15.4238	0.759
15.4649	0.749
15.5059	0.74
15.547	0.719
15.588	0.713
15.6291	0.707
15.6701	0.695
15.7112	0.683
15.7522	0.668
15.7933	0.652
15.8343	0.649
15.8754	0.651
15.9164	0.649
