Infrared Spectrum: DODECANE, 1-BROMO-
Formula: C12 H25 Br
CAS: 143-15-7
State: SOLUTION (10% IN CCl4 FOR 3800-1333, AND 10% IN CS2 FOR 1333-400 CM^-^1)
Class: COBLENTZ III
Instrument: DOW KBr FOREPRISM-GRATING
Instrument parameters: BLAZED AT 3.5, 12.0, 20.0 MICRON, CHANGED AT 5.0, 7.5, 14.9 MICRON
Sampling: TRANSMISSION
Path length: 0.010, 0.010 CM
Resolution: 4
Origin: DOW CHEMICAL COMPANY
1/CM	TRANSMITTANCE
381.759	0.561
390.445	0.568
399.131	0.604
407.818	0.76
416.504	0.87
425.19	0.904
433.876	0.93
442.563	0.953
451.249	0.974
459.935	0.98
468.621	0.985
477.307	0.99
485.994	0.99
494.68	0.994
503.366	0.997
512.052	0.997
520.738	1
529.425	0.997
538.111	1
546.797	0.989
555.483	0.953
564.17	0.802
572.856	0.933
581.542	0.987
590.228	1
598.914	0.995
607.601	1
616.287	0.982
624.973	0.974
633.659	0.925
642.345	0.768
651.032	0.802
659.718	0.923
668.404	0.95
677.09	0.956
685.777	0.953
694.463	0.944
703.149	0.915
711.835	0.855
720.521	0.713
729.208	0.811
737.894	0.856
746.58	0.881
755.266	0.895
763.952	0.911
772.639	0.912
781.325	0.914
790.011	0.92
798.697	0.919
807.384	0.915
816.07	0.925
824.756	0.922
833.442	0.904
842.128	0.854
850.815	0.782
859.501	0.786
868.187	0.811
876.873	0.843
885.559	0.874
894.246	0.911
902.932	0.923
911.618	0.927
920.304	0.931
928.991	0.931
937.677	0.93
946.363	0.935
955.049	0.93
963.735	0.926
972.422	0.925
981.108	0.923
989.794	0.923
998.48	0.922
1007.17	0.931
1015.85	0.927
1024.54	0.92
1033.23	0.912
1041.91	0.907
1050.6	0.911
1059.28	0.91
1067.97	0.905
1076.66	0.904
1085.34	0.914
1094.03	0.918
1102.71	0.922
1111.4	0.918
1120.09	0.919
1128.77	0.926
1137.46	0.916
1146.15	0.908
1154.83	0.911
1163.52	0.904
1172.2	0.901
1180.89	0.892
1189.58	0.871
1198.26	0.839
1206.95	0.802
1215.64	0.783
1224.32	0.753
1233.01	0.719
1241.69	0.693
1250.38	0.671
1259.07	0.689
1267.75	0.738
1276.44	0.741
1285.13	0.758
1293.81	0.757
1302.5	0.826
1311.18	0.895
1319.87	0.934
1328.56	0.94
1337.24	0.905
1345.93	0.901
1354.62	0.882
1363.3	0.874
1371.99	0.858
1380.67	0.9
1389.36	0.946
1398.05	0.959
1406.73	0.949
1415.42	0.938
1424.1	0.885
1432.79	0.767
1441.48	0.697
1450.16	0.599
1458.85	0.456
1467.54	0.363
1476.22	0.852
1484.91	0.877
1493.59	0.866
1502.28	0.836
1510.97	0.797
1519.65	0.756
1528.34	0.708
1537.03	0.611
1545.71	0.535
1554.4	0.564
1563.08	0.659
1571.77	0.713
1580.46	0.73
1589.14	0.773
1597.83	0.854
1606.52	0.926
1615.2	0.957
1623.89	0.975
1632.57	0.976
1641.26	0.987
1649.95	0.99
1658.63	0.989
1667.32	0.993
1676	0.99
1684.69	0.991
1693.38	0.986
1702.06	0.991
1710.75	0.994
1719.44	0.993
1728.12	0.995
1736.81	0.994
1745.49	0.998
1754.18	0.995
1762.87	0.995
1771.55	0.997
1780.24	0.995
1788.93	0.993
1797.61	0.99
1806.3	0.99
1814.98	0.989
1823.67	0.989
1832.36	0.987
1841.04	0.986
1849.73	0.986
1858.42	0.989
1867.1	0.987
1875.79	0.989
1884.47	0.99
1893.16	0.987
1901.85	0.987
1910.53	0.989
1919.22	0.993
1927.91	0.989
1936.59	0.989
1945.28	0.989
1953.96	0.993
1962.65	0.987
1971.34	0.979
1980.02	0.98
1988.71	0.978
1997.39	0.978
2006.08	0.972
2014.77	0.9715
2023.45	0.9715
2032.14	0.9984
2040.83	0.9675
2049.51	0.9705
2058.2	0.971
2066.88	0.968
2075.57	0.9745
2084.26	0.9755
2092.94	0.974
2101.63	0.976
2110.32	0.974
2119	0.977
2127.69	0.974
2136.37	0.971
2145.06	0.97
2153.75	0.97
2162.43	0.969
2171.12	0.968
2179.81	0.968
2188.49	0.968
2197.18	0.971
2205.86	0.9715
2214.55	0.971
2223.24	0.968
2231.92	0.967
2240.61	0.968
2249.3	0.965
2257.98	0.964
2266.67	0.962
2275.35	0.957
2284.04	0.954
2292.73	0.952
2301.41	0.953
2310.1	0.955
2318.78	0.954
2327.47	0.9539
2336.16	0.956
2344.84	0.9579
2353.53	0.963
2362.22	0.963
2370.9	0.9675
2379.59	0.9724
2388.27	0.974
2396.96	0.974
2405.65	0.9755
2414.33	0.976
2423.02	0.9771
2431.71	0.9755
2440.39	0.979
2449.08	0.9785
2457.76	0.979
2466.45	0.979
2475.14	0.98
2483.82	0.9795
2492.51	0.979
2501.2	0.978
2509.88	0.978
2518.57	0.976
2527.25	0.976
2535.94	0.975
2544.63	0.974
2553.31	0.971
2562	0.9675
2570.69	0.965
2579.37	0.9635
2588.06	0.959
2596.74	0.956
2605.43	0.9541
2614.12	0.9491
2622.8	0.9446
2631.49	0.9426
2640.17	0.9391
2648.86	0.937
2657.55	0.933
2666.23	0.9265
2674.92	0.925
2683.61	0.926
2692.29	0.9304
2700.98	0.934
2709.66	0.9306
2718.35	0.9281
2727.04	0.922
2735.72	0.926
2744.41	0.929
2753.1	0.927
2761.78	0.9226
2770.47	0.9171
2779.15	0.9027
2787.84	0.8916
2796.53	0.8766
2805.21	0.8559
2813.9	0.8225
2822.59	0.7542
2831.27	0.6744
2839.96	0.4847
2848.64	0.2022
2857.33	0.0438
2866.02	0.2423
2874.7	0.2869
2883.39	0.3867
2892.08	0.2907
2900.76	0.1903
2909.45	0.097
2918.13	0.0259
2926.82	0.016
2935.51	0.0219
2944.19	0.0865
2952.88	0.1279
2961.56	0.1167
2970.25	0.2758
2978.94	0.6146
2987.62	0.7287
2996.31	0.772
3005	0.7738
3013.68	0.8177
3022.37	0.8578
3031.05	0.8861
3039.74	0.9007
3048.43	0.914
3057.11	0.9203
3065.8	0.9304
3074.49	0.935
3083.17	0.9388
3091.86	0.9444
3100.54	0.9468
3109.23	0.953
3117.92	0.955
3126.6	0.955
3135.29	0.955
3143.98	0.9564
3152.66	0.957
3161.35	0.957
3170.03	0.959
3178.72	0.957
3187.41	0.957
3196.09	0.957
3204.78	0.96
3213.46	0.961
3222.15	0.963
3230.84	0.9638
3239.52	0.965
3248.21	0.964
3256.9	0.964
3265.58	0.964
3274.27	0.967
3282.95	0.965
3291.64	0.965
3300.33	0.9658
3309.01	0.967
3317.7	0.968
3326.39	0.968
3335.07	0.967
3343.76	0.965
3352.44	0.9662
3361.13	0.964
3369.82	0.9646
3378.5	0.965
3387.19	0.964
3395.88	0.964
3404.56	0.9662
3413.25	0.9654
3421.93	0.963
3430.62	0.963
3439.31	0.963
3447.99	0.963
3456.68	0.961
3465.37	0.9604
3474.05	0.963
3482.74	0.964
3491.42	0.96
3500.11	0.963
3508.8	0.961
3517.48	0.961
3526.17	0.961
3534.85	0.96
3543.54	0.96
3552.23	0.959
3560.91	0.96
3569.6	0.9606
3578.29	0.956
3586.97	0.955
3595.66	0.953
3604.34	0.9526
3613.03	0.9456
3621.72	0.9488
3630.4	0.9484
3639.09	0.949
3647.78	0.946
3656.46	0.9468
3665.15	0.948
3673.83	0.9486
3682.52	0.9484
3691.21	0.9538
3699.89	0.953
3708.58	0.9524
3717.27	0.9526
3725.95	0.9524
3734.64	0.955
3743.32	0.953
3752.01	0.953
3760.7	0.953
3769.38	0.952
3778.07	0.952
3786.76	0.949
3795.44	0.9473
