Infrared Spectrum: 8-Hydroxyquinoline
Formula: C9 H7 N O
CAS: 148-24-3
State: SOLID (SPLIT MULL)
Melting point: 73 C
Class: COBLENTZ II
Instrument: PERKIN-ELMER 521 (GRATING)
Instrument parameters: FILTERS AT 3150, 2500, 2000, 1150, 700, 410. GRATING CHANGES: 2000, 630
Resolution: 2
Origin: DOW CORNING CORP.
1/CM	TRANSMITTANCE
242	0.7589
251	0.7694
260	0.7758
269	0.7912
278	0.8198
287	0.853
296	0.8797
305	0.8994
314	0.9295
323	0.9504
332	0.9505
341	0.9557
350	0.9618
359	0.9647
368	0.9652
377	0.9657
386	0.9664
395	0.9559
404	0.9093
413	0.806
422	0.9827
431	0.9858
440	0.9746
449	0.9261
458	0.5598
467	0.7026
476	0.9418
485	0.9077
494	0.9209
503	0.8991
512	0.8684
521	0.8003
530	0.7177
539	0.5311
548	0.6082
557	0.5243
566	0.3497
575	0.2651
584	0.3122
593	0.4532
602	0.6901
611	0.8358
620	0.8134
629	0.8302
638	0.4051
647	0.7357
656	0.7597
665	0.7851
674	0.7897
683	0.7854
692	0.7854
701	0.7384
710	0.139
719	0.7849
728	0.7984
737	0.7376
746	0.2694
755	0.3627
764	0.8127
773	0.7004
782	0.3524
791	0.0858
800	0.701
809	0.6057
818	0.2324
827	0.38
836	0.8429
845	0.8655
854	0.8692
863	0.8671
872	0.7939
881	0.8533
890	0.7465
899	0.912
908	0.9137
917	0.9091
926	0.9037
935	0.8945
944	0.8746
953	0.8537
962	0.8779
971	0.7885
980	0.8865
989	0.9006
998	0.8983
1007	0.8908
1016	0.8747
1025	0.8443
1034	0.7887
1043	0.7386
1052	0.6013
1061	0.7953
1070	0.7874
1079	0.7386
1088	0.3129
1097	0.3118
1106	0.505
1115	0.556
1124	0.5619
1133	0.575
1142	0.5654
1151	0.5233
1160	0.2689
1169	0.6456
1178	0.5659
1187	0.2943
1196	0.0901
1205	0.0872
1214	0.3117
1223	0.0348
1232	0.4531
1241	0.5275
1250	0.5983
1259	0.0931
1268	0.1403
1277	0.0091
1286	0.2852
1295	0.5203
1304	0.715
1313	0.8049
1322	0.812
1331	0.8035
1340	0.7605
1349	0.5477
1358	0.5047
1367	0.3917
1376	0.0011
1385	0.2052
1394	0.4327
1403	0.214
1412	0.1188
1421	0.5297
1430	0.5097
1439	0.5402
1448	0.5989
1457	0.4312
1466	0.1676
1475	0.1613
1484	0.17
1493	0.1804
1502	0
1511	0.0908
1520	0.4634
1529	0.7301
1538	0.7388
1547	0.7296
1556	0.7138
1565	0.6443
1574	0.4629
1583	0.2249
1592	0.6089
1601	0.6457
1610	0.7975
1619	0.7665
1628	0.6961
1637	0.7169
1646	0.8497
1655	0.8889
1664	0.8928
1673	0.9037
1682	0.8997
1691	0.8671
1700	0.8423
1709	0.8867
1718	0.9044
1727	0.8976
1736	0.8838
1745	0.8482
1754	0.8518
1763	0.8812
1772	0.9133
1781	0.9269
1790	0.9365
1799	0.9361
1808	0.9376
1817	0.9314
1826	0.9009
1835	0.8713
1844	0.9184
1853	0.9408
1862	0.9375
1871	0.9331
1880	0.8952
1889	0.8728
1898	0.9016
1907	0.875
1916	0.7778
1925	0.8658
1934	0.8928
1943	0.8919
1952	0.8661
1961	0.9193
1970	0.9323
1979	0.9417
1988	0.945
1997	0.9513
2006	0.9655
2015	0.9668
2024	0.9671
2033	0.9662
2042	0.9648
2051	0.9633
2060	0.9612
2069	0.958
2078	0.9552
2087	0.9569
2096	0.9639
2105	0.9645
2114	0.9645
2123	0.9642
2132	0.9619
2141	0.9503
2150	0.9353
2159	0.9485
2168	0.9463
2177	0.9416
2186	0.951
2195	0.9556
2204	0.9542
2213	0.9518
2222	0.9497
2231	0.9478
2240	0.9465
2249	0.9434
2258	0.9405
2267	0.9384
2276	0.9389
2285	0.9396
2294	0.9404
2303	0.9405
2312	0.94
2321	0.9379
2330	0.9355
2339	0.9335
2348	0.9351
2357	0.9365
2366	0.938
2375	0.9427
2384	0.9425
2393	0.9457
2402	0.9484
2411	0.9461
2420	0.9406
2429	0.9346
2438	0.9309
2447	0.9293
2456	0.927
2465	0.9259
2474	0.9278
2483	0.9242
2492	0.9197
2501	0.9139
2510	0.907
2519	0.9034
2528	0.9025
2537	0.9038
2546	0.9101
2555	0.9195
2564	0.9202
2573	0.9175
2582	0.9133
2591	0.9074
2600	0.9
2609	0.8981
2618	0.8985
2627	0.894
2636	0.8967
2645	0.9022
2654	0.9095
2663	0.9132
2672	0.913
2681	0.9125
2690	0.9115
2699	0.9104
2708	0.9092
2717	0.9076
2726	0.9058
2735	0.9048
2744	0.9041
2753	0.9035
2762	0.904
2771	0.9001
2780	0.8953
2789	0.8907
2798	0.8866
2807	0.8825
2816	0.8794
2825	0.8755
2834	0.8711
2843	0.8687
2852	0.8666
2861	0.8621
2870	0.8559
2879	0.8529
2888	0.8516
2897	0.8482
2906	0.8428
2915	0.8353
2924	0.8244
2933	0.8116
2942	0.7974
2951	0.7807
2960	0.7651
2969	0.7672
2978	0.7744
2987	0.7752
2996	0.7693
3005	0.7353
3014	0.6878
3023	0.628
3032	0.5483
3041	0.5797
3050	0.4404
3059	0.3562
3068	0.4745
3077	0.5387
3086	0.661
3095	0.6928
3104	0.7042
3113	0.7271
3122	0.7383
3131	0.7384
3140	0.7351
3149	0.7302
3158	0.7239
3167	0.7219
3176	0.7206
3185	0.7182
3194	0.7139
3203	0.7056
3212	0.6967
3221	0.6916
3230	0.6864
3239	0.6798
3248	0.671
3257	0.6629
3266	0.6552
3275	0.6463
3284	0.6361
3293	0.6236
3302	0.6103
3311	0.5966
3320	0.5828
3329	0.5681
3338	0.5548
3347	0.5422
3356	0.5278
3365	0.5078
3374	0.472
3383	0.4145
3392	0.3614
3401	0.3037
3410	0.2052
3419	0.1927
3428	0.2178
3437	0.2929
3446	0.3664
3455	0.4365
3464	0.5249
3473	0.6335
3482	0.7015
3491	0.8057
3500	0.8586
3509	0.8897
3518	0.9125
3527	0.9265
3536	0.9373
3545	0.9449
3554	0.9506
3563	0.954
3572	0.9561
3581	0.9571
3590	0.958
3599	0.959
3608	0.9595
3617	0.9597
3626	0.9581
3635	0.9543
3644	0.9487
3653	0.9416
3662	0.9351
3671	0.9299
3680	0.9255
3689	0.9282
3698	0.9406
3707	0.9538
3716	0.9624
3725	0.9657
3734	0.9652
3743	0.9716
3752	0.9736
3761	0.9737
3770	0.974
3779	0.9743
3788	0.9743
3797	0.9739
3806	0.9725
