Infrared Spectrum: 4-Octene, (E)
Formula: C8 H16
CAS: 14850-23-8
State: LIQUID (NEAT)
Class: COBLENTZ III
Instrument: BECKMAN IR-12 (GRATING)
Instrument parameters: GRATING
Sampling: TRANSMISSION
Path length: 0.0094 CM
Resolution: 2
Origin: COLGATE-PALMOLIVE COMPANY (KELLENBACH)
1/CM	TRANSMITTANCE
200	0.622
210	0.615
220	0.7186
230	0.8033
240	0.9192
250	0.9179
260	0.9022
270	0.9045
280	0.9134
290	0.8918
300	0.8683
310	0.9208
320	0.9659
330	0.9925
340	0.9894
350	0.9573
360	0.9422
370	0.8918
380	0.8576
390	0.8688
400	0.8879
410	0.8991
420	0.9029
430	0.9014
440	0.8929
450	0.8898
460	0.8867
470	0.8899
480	0.892
490	0.866
500	0.8913
510	0.8945
520	0.8592
530	0.8786
540	0.9048
550	0.9069
560	0.9057
570	0.9027
580	0.9055
590	0.903
600	0.8955
610	0.8912
620	0.8877
630	0.8874
640	0.8907
650	0.8878
660	0.8717
670	0.8556
680	0.849
690	0.8347
700	0.7897
710	0.7422
720	0.7147
730	0.5906
740	0.3293
750	0.4207
760	0.3666
770	0.4245
780	0.4188
790	0.4876
800	0.6467
810	0.7085
820	0.7247
830	0.7174
840	0.6952
850	0.6232
860	0.546
870	0.5448
880	0.4182
890	0.3696
900	0.4124
910	0.5987
920	0.614
930	0.5792
940	0.5052
950	0.2304
960	0.0122
970	0
980	0.0432
990	0.2262
1000	0.4092
1010	0.4425
1020	0.5109
1030	0.5483
1040	0.4485
1050	0.2609
1060	0.1144
1070	0.2761
1080	0.4596
1090	0.375
1100	0.2635
1110	0.5263
1120	0.6084
1130	0.6277
1140	0.6068
1150	0.5881
1160	0.6363
1170	0.6496
1180	0.6502
1190	0.6402
1200	0.5914
1210	0.525
1220	0.5797
1230	0.5546
1240	0.5731
1250	0.5326
1260	0.3479
1270	0.3551
1280	0.4621
1290	0.4185
1300	0.39
1310	0.4036
1320	0.4305
1330	0.3829
1340	0.1662
1350	0.3112
1360	0.3712
1370	0.2543
1380	0.0765
1390	0.3398
1400	0.3966
1410	0.3707
1420	0.2964
1430	0.0381
1440	0.0143
1450	0.0141
1460	0.0001
1470	0.0411
1480	0.2244
1490	0.3875
1500	0.4643
1510	0.5151
1520	0.5438
1530	0.5681
1540	0.5876
1550	0.6019
1560	0.6141
1570	0.6211
1580	0.6282
1590	0.6353
1600	0.642
1610	0.6462
1620	0.6502
1630	0.6507
1640	0.6486
1650	0.6488
1660	0.6299
1670	0.5936
1680	0.6176
1690	0.621
1700	0.6209
1710	0.6197
1720	0.6036
1730	0.6038
1740	0.5763
1750	0.5811
1760	0.6152
1770	0.6422
1780	0.6577
1790	0.6658
1800	0.6711
1810	0.6644
1820	0.6558
1830	0.6438
1840	0.6317
1850	0.6264
1860	0.6344
1870	0.6612
1880	0.6824
1890	0.6877
1900	0.6874
1910	0.6925
1920	0.6991
1930	0.6984
1940	0.6959
1950	0.693
1960	0.6968
1970	0.6966
1980	0.6972
1990	0.7001
2000	0.7057
2010	0.7203
2020	0.7134
2030	0.7048
2040	0.707
2050	0.7047
2060	0.7024
2070	0.7088
2080	0.7157
2090	0.7183
2100	0.7184
2110	0.7178
2120	0.7173
2130	0.7167
2140	0.7145
2150	0.7123
2160	0.7082
2170	0.7037
2180	0.7011
2190	0.7021
2200	0.7018
2210	0.7006
2220	0.6993
2230	0.6987
2240	0.7
2250	0.7021
2260	0.7043
2270	0.7066
2280	0.7082
2290	0.7081
2300	0.7064
2310	0.7016
2320	0.6934
2330	0.688
2340	0.6859
2350	0.6838
2360	0.6829
2370	0.683
2380	0.6856
2390	0.6799
2400	0.6735
2410	0.6747
2420	0.6808
2430	0.6837
2440	0.6857
2450	0.6954
2460	0.7079
2470	0.7064
2480	0.7007
2490	0.6936
2500	0.6859
2510	0.6767
2520	0.6672
2530	0.6554
2540	0.6439
2550	0.6401
2560	0.6406
2570	0.6429
2580	0.6359
2590	0.6241
2600	0.6144
2610	0.611
2620	0.613
2630	0.6131
2640	0.5947
2650	0.5803
2660	0.5155
2670	0.4938
2680	0.5209
2690	0.5512
2700	0.5442
2710	0.5317
2720	0.5035
2730	0.4336
2740	0.4451
2750	0.4862
2760	0.5044
2770	0.446
2780	0.3864
2790	0.3248
2800	0.2686
2810	0.2054
2820	0.1246
2830	0.0422
2840	0
2850	0
2860	0
2870	0
2880	0
2890	0
2900	0
2910	0
2920	0
2930	0
2940	0
2950	0
2960	0.0001
2970	0.0001
2980	0.0001
2990	0.0009
3000	0.0135
3010	0.0191
3020	0.024
3030	0.0368
3040	0.1772
3050	0.3177
3060	0.3843
3070	0.4353
3080	0.4614
3090	0.4932
3100	0.5093
3110	0.5237
3120	0.5357
3130	0.5478
3140	0.5545
3150	0.5563
3160	0.5565
3170	0.5564
3180	0.5561
3190	0.556
3200	0.5687
3210	0.5935
3220	0.6069
3230	0.617
3240	0.6246
3250	0.6275
3260	0.629
3270	0.6347
3280	0.6418
3290	0.6447
3300	0.6477
3310	0.6506
3320	0.6535
3330	0.6557
3340	0.6574
3350	0.6581
3360	0.658
3370	0.6571
3380	0.6552
3390	0.6532
3400	0.6509
3410	0.6486
3420	0.6487
3430	0.6496
3440	0.6511
3450	0.6527
3460	0.6539
3470	0.654
3480	0.6518
3490	0.6523
3500	0.6553
3510	0.6566
3520	0.6544
3530	0.6534
3540	0.6536
3550	0.6563
3560	0.6583
3570	0.658
3580	0.6558
3590	0.6535
3600	0.6514
3610	0.6495
3620	0.6475
3630	0.645
3640	0.6426
3650	0.6403
3660	0.6383
3670	0.6363
3680	0.6342
3690	0.6322
3700	0.6315
3710	0.6324
3720	0.6308
3730	0.6293
3740	0.6327
3750	0.6235
3760	0.6155
3770	0.6158
3780	0.6171
3790	0.6187
3800	0.6203
3810	0.6224
3820	0.6247
3830	0.6264
3840	0.6276
3850	0.6275
3860	0.6271
3870	0.6251
3880	0.623
3890	0.6193
3900	0.6154
3910	0.6097
3920	0.604
3930	0.5978
3940	0.5916
3950	0.5853
3960	0.579
3970	0.5733
3980	0.5699
3990	0.5691
4000	0.5695
