Infrared Spectrum: 1-Fluoro-2-nitrobenzene
Formula: C6 H4 F N O2
CAS: 1493-27-2
State: SOLUTION (2% CCl4 FOR 3800-1340, 2% CS2 FOR 1340-430 CM^-^1)
Class: COBLENTZ III
Instrument: DOW KBr FOREPRISM-GRATING
Instrument parameters: BLAZED AT 3.5, 12.0, 20.0 MICRON AND CHANGED AT 5.0, 7.5, 14.9 MICRON
Sampling: TRANSMISSION
Path length: 0.011 CM, 0.011 CM
Resolution: 2
Origin: DOW CHEMICAL COMPANY
1/CM	TRANSMITTANCE
3814	0.9335
3805	0.9338
3796	0.933
3787	0.9322
3778	0.9307
3769	0.9298
3760	0.9296
3751	0.9281
3742	0.9274
3733	0.9265
3724	0.9271
3715	0.9263
3706	0.929
3697	0.9305
3688	0.929
3679	0.9268
3670	0.9281
3661	0.926
3652	0.9254
3643	0.9245
3634	0.9236
3625	0.9245
3616	0.9237
3607	0.9228
3598	0.9211
3589	0.9208
3580	0.9193
3571	0.9161
3562	0.9146
3553	0.9132
3544	0.9121
3535	0.9113
3526	0.9076
3517	0.9056
3508	0.9037
3499	0.9019
3490	0.9004
3481	0.8987
3472	0.8972
3463	0.8955
3454	0.8937
3445	0.8919
3436	0.8903
3427	0.889
3418	0.8877
3409	0.8867
3400	0.8856
3391	0.8845
3382	0.8833
3373	0.8849
3364	0.8872
3355	0.8901
3346	0.8928
3337	0.8966
3328	0.897
3319	0.8991
3310	0.9029
3301	0.9032
3292	0.9054
3283	0.9093
3274	0.9115
3265	0.9134
3256	0.913
3247	0.9159
3238	0.9172
3229	0.9183
3220	0.9195
3211	0.9208
3202	0.9204
3193	0.9236
3184	0.9236
3175	0.9255
3166	0.9274
3157	0.9301
3148	0.9304
3139	0.9334
3130	0.9345
3121	0.9343
3112	0.9265
3103	0.9281
3094	0.9337
3085	0.9237
3076	0.923
3067	0.9219
3058	0.9243
3049	0.9284
3040	0.9419
3031	0.9377
3022	0.9363
3013	0.9386
3004	0.9405
2995	0.9393
2986	0.9417
2977	0.9417
2968	0.944
2959	0.945
2950	0.9439
2941	0.9416
2932	0.9384
2923	0.9359
2914	0.9334
2905	0.9332
2896	0.933
2887	0.9257
2878	0.9129
2869	0.9124
2860	0.9191
2851	0.9234
2842	0.9299
2833	0.9313
2824	0.9331
2815	0.9341
2806	0.9366
2797	0.9369
2788	0.9351
2779	0.9373
2770	0.938
2761	0.9385
2752	0.9391
2743	0.9388
2734	0.9383
2725	0.9381
2716	0.9379
2707	0.9377
2698	0.9374
2689	0.9364
2680	0.9354
2671	0.9353
2662	0.9357
2653	0.9381
2644	0.9371
2635	0.9376
2626	0.94
2617	0.9404
2608	0.9409
2599	0.9413
2590	0.9414
2581	0.9412
2572	0.9411
2563	0.9411
2554	0.9416
2545	0.942
2536	0.9425
2527	0.9428
2518	0.9432
2509	0.9435
2500	0.9435
2491	0.9412
2482	0.9394
2473	0.9418
2464	0.9424
2455	0.9412
2446	0.9433
2437	0.9436
2428	0.9443
2419	0.9448
2410	0.945
2401	0.9465
2392	0.9459
2383	0.9456
2374	0.9454
2365	0.9451
2356	0.9449
2347	0.9446
2338	0.9444
2329	0.9465
2320	0.9484
2311	0.9467
2302	0.9449
2293	0.9448
2284	0.9434
2275	0.9429
2266	0.943
2257	0.9403
2248	0.9392
2239	0.9396
2230	0.9402
2221	0.9406
2212	0.9429
2203	0.9442
2194	0.9452
2185	0.944
2176	0.9465
2167	0.9454
2158	0.9458
2149	0.9461
2140	0.9464
2131	0.9467
2122	0.9453
2113	0.947
2104	0.9471
2095	0.9471
2086	0.947
2077	0.9469
2068	0.9468
2059	0.9466
2050	0.9482
2041	0.9459
2032	0.9455
2023	0.9459
2014	0.9408
2005	0.9352
1996	0.9358
1987	0.9478
1978	0.9444
1969	0.943
1960	0.9321
1951	0.9407
1942	0.9392
1933	0.9343
1924	0.9278
1915	0.9347
1906	0.9396
1897	0.9386
1888	0.9352
1879	0.9371
1870	0.9403
1861	0.9386
1852	0.9337
1843	0.9307
1834	0.9308
1825	0.9329
1816	0.9289
1807	0.924
1798	0.9285
1789	0.9374
1780	0.9412
1771	0.9401
1762	0.9407
1753	0.9428
1744	0.9374
1735	0.9381
1726	0.9382
1717	0.9379
1708	0.9379
1699	0.9378
1690	0.9359
1681	0.9297
1672	0.9251
1663	0.921
1654	0.9219
1645	0.9093
1636	0.9033
1627	0.8935
1618	0.8418
1609	0.2365
1600	0.5208
1591	0.7711
1582	0.7877
1573	0.7648
1564	0.7699
1555	0.7583
1546	0.3609
1537	0.032
1528	0.5956
1519	0.7507
1510	0.7879
1501	0.8001
1492	0.7581
1483	0.6831
1474	0.8465
1465	0.8882
1456	0.8927
1447	0.9037
1438	0.9151
1429	0.927
1420	0.9352
1411	0.9445
1402	0.9489
1393	0.9513
1384	0.9592
1375	0.8673
1366	0.7645
1357	0.449
1348	0.1675
1339	0.6939
1330	0.7736
1321	0.8369
1312	0.8356
1303	0.8286
1294	0.8642
1285	0.8719
1276	0.8807
1267	0.6123
1258	0.8341
1249	0.8581
1240	0.5228
1231	0.8533
1222	0.9007
1213	0.912
1204	0.9172
1195	0.9203
1186	0.9257
1177	0.9245
1168	0.9207
1159	0.8975
1150	0.9067
1141	0.8531
1132	0.8806
1123	0.9039
1114	0.916
1105	0.9164
1096	0.8743
1087	0.8268
1078	0.8714
1069	0.8918
1060	0.8996
1051	0.8894
1042	0.904
1033	0.8993
1024	0.8825
1015	0.9079
1006	0.9149
997	0.9147
988	0.9177
979	0.9177
970	0.9176
961	0.9175
952	0.9069
943	0.878
934	0.9096
925	0.9128
916	0.9166
907	0.9216
898	0.9232
889	0.9234
880	0.9256
871	0.8434
862	0.3257
853	0.808
844	0.8573
835	0.8846
826	0.8925
817	0.893
808	0.7448
799	0.8827
790	0.8895
781	0.8633
772	0.5415
763	0.8344
754	0.8633
745	0.5475
736	0.628
727	0.8296
718	0.8668
709	0.8847
700	0.8936
691	0.8889
682	0.8441
673	0.9051
664	0.9002
655	0.7052
646	0.8498
637	0.8889
628	0.8989
619	0.9068
610	0.9093
601	0.9105
592	0.9136
583	0.9141
574	0.9085
565	0.9007
556	0.9019
547	0.8976
538	0.84
529	0.8936
520	0.896
511	0.8709
502	0.875
493	0.8783
484	0.8798
475	0.8799
466	0.8783
457	0.8763
448	0.8755
439	0.8752
