Infrared Spectrum: CIS-1,2-DICHLOROETHYLENE
Formula: C2 H2 Cl2
CAS: 156-59-2
Class: COBLENTZ
Instrument: Not specified, most likely a prism, grating, or hybrid spectrometer.
Sampling: TRANSMISSION
Path length: 0.0025 CM
Resolution: 4
Origin: W.T. BOLLETER
MICROMETERS	TRANSMITTANCE
14.524	0.062
14.5939	0.062
14.6637	0.062
14.7336	0.062
14.8035	0.064
14.8733	0.065
14.9432	0.074
15.0131	0.085
15.0829	0.097
15.1528	0.133
15.2227	0.149
15.2926	0.192
15.3624	0.231
15.4323	0.277
15.5022	0.318
15.572	0.359
15.6419	0.4
15.7118	0.427
15.7816	0.455
15.8515	0.482
15.9214	0.5
15.9912	0.517
16.0611	0.528
16.131	0.539
16.2008	0.546
16.2707	0.551
16.3406	0.564
16.4105	0.578
16.4803	0.587
16.5502	0.59
16.6201	0.583
16.6899	0.574
16.7598	0.567
16.8297	0.571
16.8995	0.569
16.9694	0.56
17.0393	0.542
17.1091	0.508
17.179	0.476
17.2489	0.414
17.3187	0.334
17.3886	0.249
17.4585	0.16
17.5283	0.099
17.5982	0.08
17.6681	0.071
17.738	0.071
17.8078	0.083
17.8777	0.12
17.9476	0.195
18.0174	0.302
18.0873	0.4
18.1572	0.485
18.227	0.564
18.2969	0.617
18.3668	0.653
18.4366	0.683
18.5065	0.704
18.5764	0.718
18.6462	0.729
18.7161	0.74
18.786	0.745
18.8559	0.75
18.9257	0.759
18.9956	0.775
19.0655	0.784
19.1353	0.8
19.2052	0.811
19.2751	0.816
19.3449	0.82
19.4148	0.823
19.4847	0.827
19.5545	0.829
19.6244	0.83
19.6943	0.832
19.7641	0.83
19.834	0.83
19.9039	0.827
19.9737	0.827
20.0436	0.825
20.1135	0.822
20.1834	0.816
20.2532	0.814
20.3231	0.811
20.393	0.807
20.4628	0.807
20.5327	0.806
20.6026	0.806
20.6724	0.802
20.7423	0.802
20.8122	0.8
20.882	0.8
20.9519	0.8
21.0218	0.798
21.0916	0.797
21.1615	0.795
21.2314	0.791
21.3012	0.79
21.3711	0.786
21.441	0.784
21.5109	0.782
21.5807	0.782
21.6506	0.782
21.7205	0.782
21.7903	0.782
21.8602	0.781
21.9301	0.779
21.9999	0.774
22.0698	0.772
22.1397	0.77
22.2095	0.772
22.2794	0.774
22.3493	0.774
22.4191	0.777
22.489	0.781
22.5589	0.781
22.6288	0.782
22.6986	0.784
22.7685	0.782
22.8384	0.784
22.9082	0.786
22.9781	0.786
23.048	0.788
23.1178	0.791
23.1877	0.793
23.2576	0.795
23.3274	0.797
23.3973	0.798
23.4672	0.798
23.537	0.8
23.6069	0.8
23.6768	0.8
23.7466	0.8
23.8165	0.8
23.8864	0.8
23.9563	0.8
24.0261	0.8
24.096	0.8
24.1659	0.8
24.2357	0.8
24.3056	0.8
24.3755	0.8
24.4453	0.802
24.5152	0.802
24.5851	0.804
24.6549	0.807
24.7248	0.811
24.7947	0.814
24.8645	0.816
24.9344	0.82
25.0043	0.823
25.0742	0.825
25.144	0.827
25.2139	0.827
25.2838	0.827
25.3536	0.827
25.4235	0.827
25.4934	0.825
25.5632	0.825
25.6331	0.827
25.703	0.829
25.7728	0.83
25.8427	0.834
25.9126	0.832
25.9824	0.834
26.0523	0.838
26.1222	0.838
26.192	0.838
26.2619	0.839
26.3318	0.839
26.4017	0.843
26.4715	0.843
26.5414	0.841
26.6113	0.843
26.6811	0.843
26.751	0.845
26.8209	0.845
26.8907	0.845
26.9606	0.846
27.0305	0.85
27.1003	0.852
27.1702	0.854
27.2401	0.854
27.3099	0.855
27.3798	0.857
27.4497	0.859
27.5196	0.861
27.5894	0.862
27.6593	0.864
27.7292	0.864
27.799	0.864
27.8689	0.862
27.9388	0.862
28.0086	0.861
28.0785	0.859
28.1484	0.854
28.2182	0.85
28.2881	0.848
28.358	0.846
28.4278	0.848
28.4977	0.85
28.5676	0.852
28.6374	0.852
28.7073	0.855
28.7772	0.855
28.8471	0.861
28.9169	0.866
28.9868	0.868
29.0567	0.87
29.1265	0.871
29.1964	0.873
29.2663	0.873
29.3361	0.873
29.406	0.873
29.4759	0.873
29.5457	0.873
29.6156	0.871
29.6855	0.871
29.7553	0.873
29.8252	0.873
29.8951	0.871
29.965	0.873
30.0348	0.871
30.1047	0.87
30.1746	0.87
30.2444	0.868
30.3143	0.868
30.3842	0.866
30.454	0.868
30.5239	0.866
30.5938	0.864
30.6636	0.864
30.7335	0.866
30.8034	0.866
30.8732	0.866
30.9431	0.864
31.013	0.857
31.0828	0.855
31.1527	0.855
31.2226	0.855
31.2925	0.857
31.3623	0.855
31.4322	0.845
31.5021	0.839
31.5719	0.841
31.6418	0.841
31.7117	0.839
31.7815	0.839
31.8514	0.836
31.9213	0.838
31.9911	0.838
32.061	0.836
32.1309	0.834
32.2007	0.832
32.2706	0.83
32.3405	0.829
32.4103	0.827
32.4802	0.823
32.5501	0.82
32.62	0.818
32.6898	0.814
32.7597	0.813
32.8296	0.811
32.8994	0.809
32.9693	0.806
33.0392	0.802
33.109	0.8
33.1789	0.795
33.2488	0.793
33.3186	0.791
33.3885	0.79
33.4584	0.788
33.5282	0.784
33.5981	0.781
33.668	0.777
33.7379	0.775
33.8077	0.772
33.8776	0.766
33.9475	0.763
34.0173	0.761
34.0872	0.758
34.1571	0.756
34.2269	0.752
34.2968	0.745
34.3667	0.741
34.4365	0.738
34.5064	0.733
34.5763	0.727
34.6461	0.725
34.716	0.718
34.7859	0.715
34.8557	0.706
34.9256	0.702
34.9955	0.695
35.0654	0.692
35.1352	0.685
35.2051	0.683
35.275	0.679
35.3448	0.677
35.4147	0.67
35.4846	0.654
35.5544	0.645
35.6243	0.644
35.6942	0.642
35.764	0.638
35.8339	0.633
35.9038	0.629
35.9736	0.624
36.0435	0.62
36.1134	0.617
36.1833	0.613
36.2531	0.608
36.323	0.604
36.3929	0.597
36.4627	0.592
36.5326	0.588
36.6025	0.585
36.6723	0.58
36.7422	0.578
36.8121	0.572
36.8819	0.567
36.9518	0.565
37.0217	0.562
37.0915	0.551
37.1614	0.548
37.2313	0.548
37.3011	0.546
37.371	0.544
37.4409	0.542
37.5108	0.535
37.5806	0.533
37.6505	0.532
37.7204	0.53
37.7902	0.524
37.8601	0.523
37.93	0.516
