Infrared Spectrum: 3,6-DIMETHYL-PHENANTHRENE
Formula: C16 H14
CAS: 1576-67-6
State: SOLID (1% IN KBr)
Class: COBLENTZ
Instrument: Not specified, most likely a prism, grating, or hybrid spectrometer.
Sampling: TRANSMISSION
Resolution: 4
Origin: CENTRE D'ETUDES NUCLEAIRES DE GRENOBLE
MICROMETERS	TRANSMITTANCE
1.986	0.03
2.02604	0.031
2.06608	0.031
2.10612	0.035
2.14616	0.038
2.1862	0.04
2.22624	0.045
2.26627	0.048
2.30631	0.053
2.34635	0.06
2.38639	0.065
2.42643	0.071
2.46647	0.076
2.50651	0.081
2.54655	0.086
2.58659	0.09
2.62663	0.095
2.66667	0.096
2.70671	0.105
2.74674	0.11
2.78678	0.113
2.82682	0.117
2.86686	0.123
2.9069	0.128
2.94694	0.13
2.98698	0.133
3.02702	0.148
3.06706	0.165
3.1071	0.185
3.14714	0.195
3.18718	0.207
3.22721	0.219
3.26725	0.229
3.30729	0.212
3.34733	0.157
3.38737	0.162
3.42741	0.178
3.46745	0.157
3.50749	0.167
3.54753	0.207
3.58757	0.22
3.62761	0.279
3.66765	0.295
3.70768	0.301
3.74772	0.312
3.78776	0.334
3.8278	0.344
3.86784	0.352
3.90788	0.359
3.94792	0.367
3.98796	0.374
4.028	0.381
4.06804	0.386
4.10808	0.392
4.14812	0.397
4.18815	0.403
4.22819	0.406
4.26823	0.406
4.30827	0.361
4.34831	0.369
4.38835	0.382
4.42839	0.423
4.46843	0.449
4.50847	0.454
4.54851	0.468
4.58855	0.471
4.62859	0.474
4.66862	0.481
4.70866	0.486
4.7487	0.491
4.78874	0.5
4.82878	0.505
4.86882	0.51
4.90886	0.516
4.9489	0.52
4.98894	0.523
5.02898	0.531
5.06902	0.538
5.10906	0.545
5.1491	0.555
5.18913	0.555
5.22917	0.535
5.26921	0.521
5.30925	0.525
5.34929	0.565
5.38933	0.57
5.42937	0.573
5.46941	0.575
5.50945	0.578
5.54949	0.586
5.58953	0.575
5.62957	0.571
5.6696	0.583
5.70964	0.585
5.74968	0.565
5.78972	0.548
5.82976	0.58
5.8698	0.605
5.90984	0.608
5.94988	0.58
5.98992	0.608
6.02996	0.6
6.07	0.596
6.11004	0.598
6.15007	0.59
6.19011	0.551
6.23015	0.426
6.27019	0.284
6.31023	0.456
6.35027	0.598
6.39031	0.622
6.43035	0.613
6.47039	0.603
6.51043	0.625
6.55047	0.623
6.59051	0.632
6.63054	0.573
6.67058	0.304
6.71062	0.469
6.75066	0.57
6.7907	0.585
6.83074	0.593
6.87078	0.533
6.91082	0.458
6.95086	0.24
6.9909	0.324
7.03094	0.453
7.07098	0.535
7.11101	0.576
7.15105	0.607
7.19109	0.61
7.23113	0.615
7.27117	0.612
7.31121	0.568
7.35125	0.622
7.39129	0.65
7.43133	0.647
7.47137	0.642
7.51141	0.68
7.55145	0.705
7.59148	0.722
7.63152	0.732
7.67156	0.735
7.7116	0.744
7.75164	0.739
7.79168	0.642
7.83172	0.72
7.87176	0.74
7.9118	0.754
7.95184	0.75
7.99188	0.75
8.03192	0.752
8.07196	0.698
8.11199	0.687
8.15203	0.745
8.19207	0.754
8.23211	0.76
8.27215	0.765
8.31219	0.769
8.35223	0.767
8.39227	0.76
8.43231	0.74
8.47235	0.571
8.51239	0.693
8.55243	0.742
8.59246	0.759
8.6325	0.765
8.67254	0.75
8.71258	0.602
8.75262	0.722
8.79266	0.757
8.8327	0.765
8.87274	0.772
8.91278	0.774
8.95282	0.77
8.99286	0.772
9.0329	0.775
9.07293	0.772
9.11297	0.765
9.15301	0.76
9.19305	0.767
9.23309	0.779
9.27313	0.789
9.31317	0.794
9.35321	0.794
9.39325	0.799
9.43329	0.799
9.47333	0.792
9.51337	0.772
9.5534	0.744
9.59344	0.692
9.63348	0.65
9.67352	0.533
9.71356	0.541
9.7536	0.688
9.79364	0.734
9.83368	0.759
9.87372	0.769
9.91376	0.792
9.9538	0.795
9.99384	0.807
10.0339	0.817
10.0739	0.809
10.114	0.797
10.154	0.802
10.194	0.814
10.2341	0.819
10.2741	0.769
10.3141	0.605
10.3542	0.754
10.3942	0.787
10.4343	0.677
10.4743	0.673
10.5143	0.759
10.5544	0.831
10.5944	0.849
10.6345	0.856
10.6745	0.856
10.7145	0.857
10.7546	0.849
10.7946	0.785
10.8347	0.809
10.8747	0.842
10.9147	0.856
10.9548	0.862
10.9948	0.874
11.0349	0.877
11.0749	0.879
11.1149	0.876
11.155	0.879
11.195	0.879
11.2351	0.859
11.2751	0.812
11.3151	0.7
11.3552	0.625
11.3952	0.687
11.4352	0.754
11.4753	0.727
11.5153	0.735
11.5554	0.767
11.5954	0.782
11.6354	0.787
11.6755	0.754
11.7155	0.693
11.7556	0.528
11.7956	0.155
11.8356	0.055
11.8757	0.04
11.9157	0.006
11.9558	0.003
11.9958	0.195
12.0358	0.439
12.0759	0.58
12.1159	0.665
12.156	0.715
12.196	0.747
12.236	0.757
12.2761	0.772
12.3161	0.777
12.3561	0.787
12.3962	0.806
12.4362	0.819
12.4763	0.827
12.5163	0.831
12.5563	0.834
12.5964	0.842
12.6364	0.851
12.6765	0.846
12.7165	0.75
12.7565	0.515
12.7966	0.625
12.8366	0.799
12.8767	0.811
12.9167	0.846
12.9567	0.857
12.9968	0.866
13.0368	0.872
13.0769	0.886
13.1169	0.886
13.1569	0.876
13.197	0.882
13.237	0.881
13.277	0.881
13.3171	0.894
13.3571	0.897
13.3972	0.886
13.4372	0.894
13.4772	0.903
13.5173	0.897
13.5573	0.906
13.5974	0.911
13.6374	0.908
13.6774	0.906
13.7175	0.923
13.7575	0.919
13.7976	0.911
13.8376	0.919
13.8776	0.924
13.9177	0.924
13.9577	0.916
13.9978	0.919
14.0378	0.897
14.0778	0.807
14.1179	0.785
14.1579	0.856
14.1979	0.882
14.238	0.892
14.278	0.919
14.3181	0.908
14.3581	0.897
14.3981	0.897
14.4382	0.904
14.4782	0.908
14.5183	0.904
14.5583	0.908
14.5983	0.918
14.6384	0.906
14.6784	0.897
14.7185	0.884
14.7585	0.871
14.7985	0.871
14.8386	0.876
14.8786	0.897
14.9187	0.908
14.9587	0.904
14.9987	0.881
15.0388	0.876
15.0788	0.889
15.1189	0.906
15.1589	0.899
15.1989	0.889
15.239	0.908
15.279	0.904
15.319	0.879
15.3591	0.894
15.3991	0.897
15.4392	0.909
15.4792	0.909
15.5192	0.887
15.5593	0.911
15.5993	0.904
15.6394	0.906
15.6794	0.908
15.7194	0.897
15.7595	0.892
15.7995	0.779
15.8396	0.72
15.8796	0.662
15.9196	0.683
