Infrared Spectrum: 2,7-DIMETHYL-PHENANTHRENE
Formula: C16 H14
CAS: 1576-69-8
State: SOLID (1% IN KBr)
Class: COBLENTZ
Instrument: Not specified, most likely a prism, grating, or hybrid spectrometer.
Sampling: TRANSMISSION
Resolution: 4
Origin: CENTRE D'ETUDES NUCLEAIRES DE GRENOBLE
MICROMETERS	TRANSMITTANCE
1.978	0.106
2.01806	0.111
2.05812	0.122
2.09819	0.131
2.13825	0.132
2.17831	0.132
2.21837	0.141
2.25844	0.156
2.2985	0.176
2.33856	0.184
2.37862	0.191
2.41868	0.204
2.45875	0.214
2.49881	0.222
2.53887	0.247
2.57893	0.27
2.61899	0.267
2.65906	0.257
2.69912	0.292
2.73918	0.287
2.77924	0.297
2.81931	0.297
2.85937	0.308
2.89943	0.33
2.93949	0.327
2.97955	0.347
3.01962	0.37
3.05968	0.378
3.09974	0.403
3.1398	0.415
3.17987	0.401
3.21993	0.431
3.25999	0.453
3.30005	0.445
3.34011	0.363
3.38018	0.332
3.42024	0.358
3.4603	0.327
3.50036	0.275
3.54042	0.398
3.58049	0.397
3.62055	0.483
3.66061	0.496
3.70067	0.536
3.74074	0.493
3.7808	0.531
3.82086	0.569
3.86092	0.566
3.90098	0.594
3.94105	0.584
3.98111	0.586
4.02117	0.596
4.06123	0.607
4.1013	0.639
4.14136	0.627
4.18142	0.617
4.22148	0.627
4.26154	0.641
4.30161	0.588
4.34167	0.561
4.38173	0.596
4.42179	0.637
4.46186	0.677
4.50192	0.682
4.54198	0.689
4.58204	0.691
4.6221	0.699
4.66217	0.709
4.70223	0.717
4.74229	0.725
4.78235	0.724
4.82241	0.745
4.86248	0.74
4.90254	0.732
4.9426	0.744
4.98266	0.739
5.02273	0.752
5.06279	0.754
5.10285	0.757
5.14291	0.76
5.18297	0.764
5.22304	0.767
5.2631	0.719
5.30316	0.725
5.34322	0.762
5.38329	0.79
5.42335	0.795
5.46341	0.747
5.50347	0.775
5.54353	0.78
5.5836	0.799
5.62366	0.802
5.66372	0.769
5.70378	0.737
5.74384	0.689
5.78391	0.755
5.82397	0.769
5.86403	0.79
5.90409	0.785
5.94416	0.78
5.98422	0.779
6.02428	0.75
6.06434	0.767
6.1044	0.785
6.14447	0.774
6.18453	0.75
6.22459	0.486
6.26465	0.536
6.30472	0.664
6.34478	0.762
6.38484	0.803
6.4249	0.764
6.46496	0.78
6.50503	0.784
6.54509	0.77
6.58515	0.734
6.62521	0.74
6.66527	0.767
6.70534	0.755
6.7454	0.734
6.78546	0.659
6.82552	0.451
6.86559	0.418
6.90565	0.563
6.94571	0.473
6.98577	0.498
7.02583	0.536
7.0659	0.619
7.10596	0.681
7.14602	0.732
7.18608	0.742
7.22615	0.737
7.26621	0.765
7.30627	0.75
7.34633	0.719
7.38639	0.765
7.42646	0.802
7.46652	0.805
7.50658	0.734
7.54664	0.795
7.5867	0.827
7.62677	0.853
7.66683	0.858
7.70689	0.852
7.74695	0.842
7.78702	0.862
7.82708	0.877
7.86714	0.88
7.9072	0.885
7.94726	0.887
7.98733	0.878
8.02739	0.601
8.06745	0.48
8.10751	0.642
8.14758	0.795
8.18764	0.84
8.2277	0.865
8.26776	0.872
8.30782	0.878
8.34789	0.85
8.38795	0.8
8.42801	0.868
8.46807	0.878
8.50813	0.888
8.5482	0.883
8.58826	0.845
8.62832	0.803
8.66838	0.729
8.70845	0.835
8.74851	0.875
8.78857	0.89
8.82863	0.897
8.86869	0.9
8.90876	0.901
8.94882	0.901
8.98888	0.903
9.02894	0.905
9.06901	0.903
9.10907	0.897
9.14913	0.898
9.18919	0.905
9.22925	0.905
9.26932	0.905
9.30938	0.905
9.34944	0.905
9.3895	0.903
9.42957	0.901
9.46963	0.898
9.50969	0.895
9.54975	0.882
9.58981	0.847
9.62988	0.803
9.66994	0.694
9.71	0.744
9.75006	0.795
9.79012	0.825
9.83019	0.852
9.87025	0.865
9.91031	0.867
9.95037	0.84
9.99044	0.81
10.0305	0.82
10.0706	0.837
10.1106	0.895
10.1507	0.921
10.1907	0.93
10.2308	0.935
10.2709	0.936
10.3109	0.936
10.351	0.935
10.3911	0.911
10.4311	0.885
10.4712	0.883
10.5112	0.893
10.5513	0.91
10.5914	0.943
10.6314	0.946
10.6715	0.95
10.7116	0.958
10.7516	0.951
10.7917	0.926
10.8317	0.921
10.8718	0.933
10.9119	0.943
10.9519	0.958
10.992	0.958
11.0321	0.956
11.0721	0.953
11.1122	0.943
11.1522	0.926
11.1923	0.868
11.2324	0.461
11.2724	0.191
11.3125	0.543
11.3525	0.734
11.3926	0.815
11.4327	0.458
11.4727	0.498
11.5128	0.75
11.5529	0.878
11.5929	0.928
11.633	0.936
11.673	0.951
11.7131	0.96
11.7532	0.961
11.7932	0.968
11.8333	0.973
11.8734	0.973
11.9134	0.965
11.9535	0.958
11.9935	0.91
12.0336	0.813
12.0737	0.794
12.1137	0.799
12.1538	0.817
12.1939	0.704
12.2339	0.26
12.274	0.048
12.314	0.091
12.3541	0.328
12.3942	0.539
12.4342	0.676
12.4743	0.755
12.5144	0.777
12.5544	0.478
12.5945	0.448
12.6345	0.697
12.6746	0.825
12.7147	0.888
12.7547	0.916
12.7948	0.931
12.8349	0.938
12.8749	0.951
12.915	0.956
12.955	0.956
12.9951	0.945
13.0352	0.943
13.0752	0.96
13.1153	0.971
13.1553	0.966
13.1954	0.97
13.2355	0.966
13.2755	0.958
13.3156	0.955
13.3557	0.946
13.3957	0.926
13.4358	0.95
13.4758	0.955
13.5159	0.961
13.556	0.975
13.596	0.975
13.6361	0.971
13.6762	0.985
13.7162	0.991
13.7563	0.995
13.7963	1
13.8364	1.001
13.8765	1.001
13.9165	1.001
13.9566	1.003
13.9967	1.001
14.0367	0.996
14.0768	0.983
14.1168	0.865
14.1569	0.297
14.197	0.303
14.237	0.566
14.2771	0.724
14.3172	0.837
14.3572	0.901
14.3973	0.906
14.4373	0.91
14.4774	0.923
14.5175	0.9
14.5575	0.755
14.5976	0.74
14.6376	0.827
14.6777	0.903
14.7178	0.93
14.7578	0.951
14.7979	0.956
14.838	0.953
14.878	0.938
14.9181	0.93
14.9581	0.926
14.9982	0.93
15.0383	0.931
15.0783	0.926
15.1184	0.931
15.1585	0.955
15.1985	0.966
15.2386	0.97
15.2786	0.968
15.3187	0.968
15.3588	0.961
15.3988	0.963
15.4389	0.956
15.479	0.956
15.519	0.956
15.5591	0.956
15.5991	0.955
15.6392	0.96
15.6793	0.956
15.7193	0.956
15.7594	0.956
15.7995	0.953
15.8395	0.953
15.8796	0.955
15.9196	0.951
15.9597	0.946
