Infrared Spectrum: CYCLOBUTANECARBONITRILE, 3-METHYLENE-
Formula: C6 H7 N
CAS: 15760-35-7
State: LIQUID (NEAT)
Class: COBLENTZ III
Instrument: CARY 90 (GRATING)
Instrument parameters: GRATING CHANGES AT 3000, 2000, 1200 CM^-^1
Sampling: TRANSMISSION
Path length: 0.0025 CM
Resolution: 4
Origin: WESTERN REGIONAL RES. USDA
1/CM	TRANSMITTANCE
444.341	0.556
453.617	0.565
462.894	0.581
472.17	0.588
481.447	0.574
490.723	0.542
500	0.501
509.276	0.485
518.553	0.626
527.829	0.642
537.106	0.656
546.382	0.667
555.658	0.677
564.935	0.682
574.211	0.687
583.488	0.687
592.764	0.685
602.041	0.649
611.317	0.657
620.594	0.674
629.87	0.675
639.147	0.668
648.423	0.675
657.699	0.682
666.976	0.693
676.252	0.706
685.529	0.71
694.805	0.718
704.082	0.729
713.358	0.735
722.635	0.745
731.911	0.752
741.188	0.752
750.464	0.736
759.74	0.743
769.017	0.765
778.293	0.77
787.57	0.774
796.846	0.785
806.123	0.789
815.399	0.774
824.676	0.734
833.952	0.61
843.229	0.701
852.505	0.662
861.782	0.516
871.058	0.168
880.334	0.024
889.611	0.016
898.887	0.102
908.164	0.295
917.44	0.526
926.717	0.648
935.993	0.694
945.27	0.706
954.546	0.727
963.823	0.75
973.099	0.759
982.375	0.792
991.652	0.801
1000.93	0.804
1010.2	0.782
1019.48	0.808
1028.76	0.781
1038.03	0.774
1047.31	0.687
1056.59	0.743
1065.86	0.826
1075.14	0.838
1084.42	0.842
1093.69	0.837
1102.97	0.835
1112.25	0.826
1121.52	0.809
1130.8	0.78
1140.08	0.723
1149.35	0.624
1158.63	0.522
1167.9	0.66
1177.18	0.645
1186.46	0.559
1195.73	0.685
1205.01	0.765
1214.29	0.738
1223.56	0.67
1232.84	0.804
1242.12	0.826
1251.39	0.815
1260.67	0.814
1269.95	0.818
1279.22	0.823
1288.5	0.826
1297.77	0.831
1307.05	0.809
1316.33	0.75
1325.6	0.763
1334.88	0.815
1344.16	0.823
1353.43	0.822
1362.71	0.808
1371.99	0.765
1381.26	0.713
1390.54	0.6139
1399.82	0.3289
1409.09	0.275
1418.37	0.279
1427.65	0.469
1436.92	0.549
1446.2	0.6641
1455.47	0.765
1464.75	0.824
1474.03	0.844
1483.3	0.859
1492.58	0.867
1501.86	0.871
1511.13	0.862
1520.41	0.853
1529.69	0.855
1538.96	0.864
1548.24	0.872
1557.52	0.887
1566.79	0.901
1576.07	0.898
1585.35	0.9
1594.62	0.9
1603.9	0.9
1613.17	0.9
1622.45	0.893
1631.73	0.882
1641	0.849
1650.28	0.8
1659.56	0.731
1668.83	0.6439
1678.11	0.2649
1687.39	0.085
1696.66	0.5511
1705.94	0.814
1715.22	0.861
1724.49	0.873
1733.77	0.879
1743.04	0.871
1752.32	0.85
1761.6	0.825
1770.87	0.789
1780.15	0.768
1789.43	0.797
1798.7	0.826
1807.98	0.849
1817.26	0.859
1826.53	0.871
1835.81	0.887
1845.09	0.896
1854.36	0.905
1863.64	0.9
1872.92	0.902
1882.19	0.905
1891.47	0.907
1900.74	0.907
1910.02	0.905
1919.3	0.903
1928.57	0.9
1937.85	0.894
1947.13	0.888
1956.4	0.887
1965.68	0.893
1974.96	0.901
1984.23	0.91
1993.51	0.915
2002.79	0.919
2012.06	0.9225
2021.34	0.9245
2030.61	0.927
2039.89	0.93
2049.17	0.9305
2058.44	0.931
2067.72	0.932
2077	0.933
2086.27	0.933
2095.55	0.9316
2104.83	0.93
2114.1	0.929
2123.38	0.927
2132.66	0.926
2141.93	0.924
2151.21	0.922
2160.49	0.919
2169.76	0.9156
2179.04	0.9063
2188.31	0.8863
2197.59	0.8724
2206.87	0.8571
2216.14	0.792
2225.42	0.605
2234.7	0.1326
2243.97	0.13
2253.25	0.7379
2262.53	0.8309
2271.8	0.846
2281.08	0.853
2290.36	0.8518
2299.63	0.849
2308.91	0.8458
2318.19	0.8428
2327.46	0.839
2336.74	0.838
2346.01	0.8368
2355.29	0.8328
2364.57	0.8258
2373.84	0.822
2383.12	0.8352
2392.4	0.8392
2401.67	0.8399
2410.95	0.8359
2420.23	0.831
2429.5	0.83
2438.78	0.8321
2448.06	0.838
2457.33	0.8299
2466.61	0.8281
2475.88	0.835
2485.16	0.837
2494.44	0.837
2503.71	0.837
2512.99	0.839
2522.27	0.843
2531.54	0.842
2540.82	0.838
2550.1	0.844
2559.37	0.847
2568.65	0.85
2577.93	0.85
2587.2	0.849
2596.48	0.847
2605.76	0.8431
2615.03	0.835
2624.31	0.8251
2633.58	0.8348
2642.86	0.8419
2652.14	0.842
2661.41	0.8371
2670.69	0.8509
2679.97	0.8577
2689.24	0.8649
2698.52	0.8689
2707.8	0.8681
2717.07	0.867
2726.35	0.8574
2735.63	0.85
2744.9	0.8461
2754.18	0.8442
2763.45	0.842
2772.73	0.839
2782.01	0.837
2791.28	0.833
2800.56	0.8226
2809.84	0.7963
2819.11	0.7599
2828.39	0.7135
2837.67	0.6522
2846.94	0.6828
2856.22	0.7343
2865.5	0.7485
2874.77	0.747
2884.05	0.7378
2893.33	0.7124
2902.6	0.6893
2911.88	0.5886
2921.15	0.4148
2930.43	0.1995
2939.71	0.2139
2948.98	0.3568
2958.26	0.411
2967.54	0.3329
2976.81	0.2618
2986.09	0.2596
2995.37	0.3204
3004.64	0.5098
3013.92	0.635
3023.2	0.6896
3032.47	0.7128
3041.75	0.7292
3051.03	0.7223
3060.3	0.7071
3069.58	0.6647
3078.85	0.5221
3088.13	0.5157
3097.41	0.7102
3106.68	0.7586
3115.96	0.7846
3125.24	0.8035
3134.51	0.8105
3143.79	0.8165
3153.07	0.822
3162.34	0.8285
3171.62	0.835
3180.9	0.8409
3190.17	0.845
3199.45	0.8494
3208.72	0.852
3218	0.853
3227.28	0.851
3236.55	0.8466
3245.83	0.843
3255.11	0.8386
3264.38	0.8342
3273.66	0.8306
3282.94	0.8119
3292.21	0.7834
3301.49	0.7898
3310.77	0.8098
3320.04	0.8347
3329.32	0.8583
3338.6	0.8723
3347.87	0.8753
3357.15	0.8793
3366.42	0.883
3375.7	0.8879
3384.98	0.8953
3394.25	0.9023
3403.53	0.9073
3412.81	0.91
3422.08	0.911
3431.36	0.91
3440.64	0.909
3449.91	0.91
3459.19	0.914
3468.47	0.915
3477.74	0.9162
3487.02	0.918
3496.29	0.9188
3505.57	0.9158
3514.85	0.9065
3524.12	0.8995
3533.4	0.8907
3542.68	0.8827
3551.95	0.8669
3561.23	0.8827
3570.51	0.8984
3579.78	0.9071
3589.06	0.911
3598.34	0.9141
3607.61	0.915
3616.89	0.914
3626.17	0.914
3635.44	0.912
3644.72	0.911
3653.99	0.9089
3663.27	0.904
3672.55	0.903
3681.82	0.908
3691.1	0.911
3700.38	0.914
3709.65	0.912
3718.93	0.91
3728.21	0.907
3737.48	0.904
3746.76	0.902
3756.04	0.901
3765.31	0.898
3774.59	0.897
3783.87	0.895
3793.14	0.893
3802.42	0.894
3811.69	0.895
3820.97	0.896
3830.25	0.898
3839.52	0.9
3848.8	0.902
3858.08	0.9049
3867.35	0.908
3876.63	0.9109
3885.91	0.912
3895.18	0.915
3904.46	0.9188
3913.74	0.923
3923.01	0.926
3932.29	0.9318
3941.56	0.9368
3950.84	0.9362
3960.12	0.934
3969.39	0.933
3978.67	0.9302
3987.95	0.929
3997.22	0.927
4006.5	0.927
