Infrared Spectrum: BENZENE, 1-BROMO-4-ETHYL-
Formula: C8 H9 Br
CAS: 1585-07-5
State: SOLUTION (10% IN CCl4 FOR 3800-1333 AND 10% IN CS2 FOR 1333-450 CM^-^1)
Class: COBLENTZ III
Instrument: DOW KBr FOREPRISM-GRATING
Instrument parameters: BLAZED AT 3.5, 12.0, 20.0 MICRON, CHANGED AT 5.0, 7.5, 14.9 MICRON
Sampling: TRANSMISSION
Path length: 0.011, 0.011 CM
Resolution: 4
Origin: DOW CHEMICAL COMPANY
1/CM	TRANSMITTANCE
451.333	0.944
460.024	0.944
468.714	0.943
477.405	0.929
486.095	0.904
494.786	0.862
503.477	0.797
512.167	0.554
520.858	0.806
529.549	1.006
538.239	1.028
546.93	1.029
555.62	0.974
564.311	1.04
573.002	1.035
581.692	1.031
590.383	1
599.074	0.647
607.764	1.016
616.455	1.05
625.145	1.043
633.836	1.031
642.527	1.017
651.217	0.998
659.908	1.001
668.599	1.024
677.289	1.025
685.98	1.022
694.67	1.017
703.361	0.998
712.052	0.962
720.742	1
729.433	1.014
738.124	1.014
746.814	1.004
755.505	0.981
764.195	0.931
772.886	0.779
781.577	0.835
790.267	0.906
798.958	0.913
807.649	0.836
816.339	0.555
825.03	0.036
833.72	0.659
842.411	0.848
851.102	0.829
859.792	0.813
868.483	0.859
877.174	0.898
885.864	0.947
894.555	0.986
903.245	1.004
911.936	1.008
920.627	1.017
929.317	1.012
938.008	0.998
946.699	0.998
955.389	0.975
964.08	0.924
972.77	0.921
981.461	0.967
990.152	0.975
998.842	0.941
1007.53	0.817
1016.22	0.2212
1024.91	0.964
1033.6	0.967
1042.3	0.94
1050.99	0.872
1059.68	0.844
1068.37	0.74
1077.06	0.1411
1085.75	0.91
1094.44	0.931
1103.13	0.935
1111.82	0.889
1120.51	0.933
1129.2	0.993
1137.89	1.013
1146.58	1.016
1155.27	1.017
1163.96	1.005
1172.65	0.983
1181.35	0.902
1190.04	0.963
1198.73	0.963
1207.42	0.959
1216.11	1.001
1224.8	0.985
1233.49	0.977
1242.18	1.004
1250.87	1
1259.56	0.989
1268.25	0.978
1276.94	0.975
1285.63	0.97
1294.32	0.932
1303.01	0.929
1311.7	0.917
1320.4	0.889
1329.09	0.878
1337.78	0.894
1346.47	0.917
1355.16	0.931
1363.85	0.935
1372.54	0.889
1381.23	0.893
1389.92	0.901
1398.61	0.816
1407.3	0.656
1415.99	0.85
1424.68	0.891
1433.37	0.871
1442.06	0.808
1450.75	0.737
1459.45	0.643
1468.14	0.724
1476.83	0.74
1485.52	0.424
1494.21	0.2411
1502.9	0.752
1511.59	0.748
1520.28	0.714
1528.97	0.672
1537.66	0.589
1546.35	0.505
1555.04	0.512
1563.73	0.586
1572.42	0.652
1581.11	0.681
1589.8	0.683
1598.5	0.774
1607.19	0.895
1615.88	0.939
1624.57	0.954
1633.26	0.947
1641.95	0.909
1650.64	0.929
1659.33	0.967
1668.02	0.972
1676.71	0.979
1685.4	0.977
1694.09	0.968
1702.78	0.985
1711.47	0.989
1720.16	0.991
1728.85	0.989
1737.55	0.985
1746.24	0.982
1754.93	0.979
1763.62	0.983
1772.31	0.97
1781	0.962
1789.69	0.985
1798.38	0.989
1807.07	0.995
1815.76	0.994
1824.45	0.994
1833.14	0.99
1841.83	0.994
1850.52	0.993
1859.21	0.99
1867.9	0.989
1876.6	0.978
1885.29	0.937
1893.98	0.855
1902.67	0.967
1911.36	0.99
1920.05	0.997
1928.74	0.998
1937.43	0.997
1946.12	0.997
1954.81	0.997
1963.5	0.998
1972.19	0.998
1980.88	1
1989.57	0.997
1998.26	0.962
2006.95	1
2015.65	0.995
2024.34	0.9822
2033.03	0.998
2041.72	1
2050.41	1.0049
2059.1	0.998
2067.79	1
2076.48	1.0041
2085.17	1.006
2093.86	1.006
2102.55	1.004
2111.24	1.0041
2119.93	1.006
2128.62	1.0059
2137.31	1.005
2146	1.002
2154.7	1.002
2163.39	1.002
2172.08	1.001
2180.77	1.001
2189.46	1.002
2198.15	1.004
2206.84	1.002
2215.53	1.001
2224.22	1
2232.91	0.997
2241.6	0.9938
2250.29	0.9908
2258.98	0.9868
2267.67	0.9818
2276.36	0.975
2285.05	0.9678
2293.75	0.962
2302.44	0.9552
2311.13	0.9702
2319.82	0.9743
2328.51	0.9672
2337.2	0.9868
2345.89	0.9814
2354.58	0.971
2363.27	0.9836
2371.96	0.9779
2380.65	0.9933
2389.34	0.995
2398.03	0.993
2406.72	0.9907
2415.41	0.987
2424.1	0.989
2432.8	0.991
2441.49	0.995
2450.18	0.997
2458.87	0.997
2467.56	0.995
2476.25	0.994
2484.94	0.993
2493.63	0.991
2502.32	0.9904
2511.01	0.9906
2519.7	0.989
2528.39	0.986
2537.08	0.987
2545.77	0.985
2554.46	0.983
2563.15	0.985
2571.85	0.983
2580.54	0.9816
2589.23	0.981
2597.92	0.981
2606.61	0.978
2615.3	0.981
2623.99	0.978
2632.68	0.9785
2641.37	0.98
2650.06	0.9815
2658.75	0.978
2667.44	0.9785
2676.13	0.985
2684.82	0.985
2693.51	0.982
2702.2	0.983
2710.9	0.983
2719.59	0.9799
2728.28	0.974
2736.97	0.9711
2745.66	0.978
2754.35	0.975
2763.04	0.9704
2771.73	0.97
2780.42	0.9664
2789.11	0.966
2797.8	0.966
2806.49	0.963
2815.18	0.955
2823.87	0.9507
2832.56	0.9354
2841.25	0.9114
2849.95	0.8871
2858.64	0.8094
2867.33	0.7203
2876.02	0.6307
2884.71	0.6994
2893.4	0.7612
2902.09	0.7234
2910.78	0.7646
2919.47	0.731
2928.16	0.6056
2936.85	0.4623
2945.54	0.6335
2954.23	0.6946
2962.92	0.5488
2971.61	0.1855
2980.3	0.3115
2989	0.6505
2997.69	0.8004
3006.38	0.8741
3015.07	0.8812
3023.76	0.8159
3032.45	0.8088
3041.14	0.8042
3049.83	0.8474
3058.52	0.9081
3067.21	0.9117
3075.9	0.909
3084.59	0.8793
3093.28	0.9238
3101.97	0.9428
3110.66	0.963
3119.35	0.972
3128.05	0.974
3136.74	0.974
3145.43	0.9711
3154.12	0.97
3162.81	0.967
3171.5	0.97
3180.19	0.9768
3188.88	0.978
3197.57	0.978
3206.26	0.981
3214.95	0.9849
3223.64	0.9851
3232.33	0.985
3241.02	0.987
3249.71	0.987
3258.4	0.987
3267.1	0.993
3275.79	1
3284.48	0.994
3293.17	0.995
3301.86	0.998
3310.55	0.998
3319.24	0.998
3327.93	0.9951
3336.62	0.995
3345.31	0.991
3354	0.99
3362.69	0.991
3371.38	0.9898
3380.07	0.987
3388.76	0.989
3397.45	0.99
3406.15	0.987
3414.84	0.99
3423.53	0.991
3432.22	0.99
3440.91	0.9888
3449.6	0.9872
3458.29	0.9899
3466.98	0.9891
3475.67	0.989
3484.36	0.99
3493.05	0.989
3501.74	0.989
3510.43	0.9846
3519.12	0.9778
3527.81	0.967
3536.5	0.958
3545.2	0.955
3553.89	0.9632
3562.58	0.9772
3571.27	0.9934
3579.96	0.998
3588.65	0.9972
3597.34	0.994
3606.03	0.9925
3614.72	0.9925
3623.41	0.989
3632.1	0.9962
3640.79	0.9907
3649.48	0.9971
3658.17	0.989
3666.86	0.991
3675.55	0.9903
3684.25	0.989
3692.94	0.993
3701.63	0.9933
3710.32	0.9894
3719.01	0.9973
3727.7	0.996
3736.39	0.9936
3745.08	0.9968
3753.77	0.995
3762.46	0.993
3771.15	0.9974
3779.84	1
3788.53	1
