Infrared Spectrum: Calcium stearate
Formula: C 36 H 70 Ca O 4
CAS: 1592-23-0
State: solid
Instrument: Bruker Tensor 37 FTIR
Resolution: 0.96450084
Origin: Pacific Northwest National Laboratory Under IARPA Contract
1/cm	Reflectance
7498.03	0.834675
7480.67	0.842497
7463.31	0.833041
7445.95	0.831045
7428.59	0.828771
7411.23	0.818772
7393.87	0.811133
7376.51	0.806477
7359.15	0.794379
7341.79	0.779342
7324.43	0.784874
7307.07	0.782849
7289.71	0.777871
7272.35	0.778957
7254.99	0.774212
7237.63	0.773231
7220.27	0.7747
7202.91	0.781139
7185.55	0.782363
7168.19	0.788409
7150.83	0.795605
7133.47	0.797538
7116.11	0.803404
7098.75	0.807202
7081.39	0.808582
7064.03	0.81216
7046.67	0.81461
7029.31	0.813324
7011.96	0.808975
6994.6	0.806943
6977.24	0.81308
6959.88	0.818547
6942.52	0.819765
6925.16	0.818643
6907.8	0.822133
6890.44	0.823282
6873.08	0.824579
6855.72	0.822969
6838.36	0.820343
6821	0.819073
6803.64	0.820744
6786.28	0.820201
6768.92	0.817163
6751.56	0.811629
6734.2	0.80234
6716.84	0.785645
6699.48	0.751117
6682.12	0.724718
6664.76	0.689716
6647.4	0.653901
6630.04	0.63626
6612.68	0.701115
6595.32	0.701047
6577.96	0.677626
6560.6	0.72363
6543.24	0.737272
6525.88	0.73044
6508.52	0.732687
6491.16	0.731857
6473.8	0.737615
6456.44	0.743657
6439.08	0.75176
6421.72	0.759423
6404.36	0.755835
6387	0.745962
6369.64	0.726778
6352.28	0.70427
6334.92	0.690907
6317.56	0.686026
6300.2	0.686953
6282.84	0.693344
6265.48	0.701733
6248.12	0.708822
6230.76	0.712503
6213.4	0.723248
6196.04	0.7281
6178.68	0.729788
6161.32	0.737658
6143.97	0.741787
6126.61	0.744998
6109.25	0.749168
6091.89	0.751692
6074.53	0.753044
6057.17	0.750303
6039.81	0.742712
6022.45	0.728781
6005.09	0.719549
5987.73	0.708083
5970.37	0.679967
5953.01	0.610063
5935.65	0.553312
5918.29	0.430405
5900.93	0.51511
5883.57	0.509516
5866.21	0.496274
5848.85	0.464259
5831.49	0.455441
5814.13	0.456341
5796.77	0.452288
5779.41	0.502675
5762.05	0.519141
5744.69	0.56556
5727.33	0.571573
5709.97	0.56051
5692.61	0.566969
5675.25	0.581822
5657.89	0.57726
5640.53	0.591301
5623.17	0.583498
5605.81	0.553836
5588.45	0.487575
5571.09	0.363919
5553.73	0.255955
5536.37	0.183062
5519.01	0.173659
5501.65	0.179102
5484.29	0.175209
5466.93	0.16581
5449.57	0.160077
5432.21	0.162513
5414.85	0.180473
5397.49	0.208805
5380.13	0.229475
5362.77	0.246612
5345.41	0.271121
5328.05	0.30215
5310.69	0.329297
5293.33	0.322818
5275.97	0.299123
5258.62	0.253683
5241.26	0.145984
5223.9	0.0430836
5206.54	0.028614
5189.18	0.0589564
5171.82	0.040389
5154.46	0.218625
5137.1	0.325712
5119.74	0.356646
5102.38	0.401167
5085.02	0.386902
5067.66	0.378119
5050.3	0.438811
5032.94	0.479989
5015.58	0.497188
4998.22	0.523205
4980.86	0.570209
4963.5	0.556575
4946.14	0.555889
4928.78	0.511777
4911.42	0.496074
4894.06	0.533917
4876.7	0.549612
4859.34	0.558107
4841.98	0.54507
4824.62	0.516343
4807.26	0.51415
4789.9	0.516821
4772.54	0.517639
4755.18	0.520836
4737.82	0.561836
4720.46	0.552869
4703.1	0.524061
4685.74	0.542612
4668.38	0.539294
4651.02	0.503307
4633.66	0.466965
4616.3	0.400083
4598.94	0.335925
4581.58	0.23404
4564.22	0.063766
4546.86	0.0345224
4529.5	0.0320959
4512.14	0.0578194
4494.78	0.0691796
4477.42	0.0477472
4460.06	0.0448481
4442.7	0.147193
4425.34	0.166586
4407.98	0.153075
4390.63	0.175905
4373.27	0.210371
4355.91	0.231856
4338.55	0.304885
4321.19	0.334731
4303.83	0.115686
4286.47	0.292206
4269.11	0.282021
4251.75	0.294157
4234.39	0.282327
4217.03	0.196769
4199.67	0.298314
4182.31	0.25318
4164.95	0.268848
4147.59	0.212928
4130.23	0.10434
4112.87	0.0384208
4095.51	0.0750231
4078.15	0.0682495
4060.79	0.062655
4043.43	0.841338
4026.07	0.841262
4008.71	0.836656
3991.35	0.838011
3973.99	0.83002
3956.63	0.825052
3939.27	0.818483
3921.91	0.807246
3904.55	0.798778
3887.19	0.779198
3869.83	0.795479
3852.47	0.793833
3835.11	0.783496
3817.75	0.7852
3800.39	0.786463
3783.03	0.786878
3765.67	0.790683
3748.31	0.791324
3730.95	0.796901
3713.59	0.797323
3696.23	0.805882
3678.87	0.812154
3661.51	0.814253
3644.15	0.816787
3626.79	0.819794
3609.43	0.820801
3592.07	0.822769
3574.71	0.82172
3557.35	0.820562
3539.99	0.818756
3522.64	0.825857
3505.28	0.827036
3487.92	0.829254
3470.56	0.82986
3453.2	0.831767
3435.84	0.831058
3418.48	0.832092
3401.12	0.832143
3383.76	0.833585
3366.4	0.831212
3349.04	0.830987
3331.68	0.829747
3314.32	0.825508
3296.96	0.820812
3279.6	0.810073
3262.24	0.78536
3244.88	0.761498
3227.52	0.731329
3210.16	0.6945
3192.8	0.649381
3175.44	0.686721
3158.08	0.728268
3140.72	0.707369
3123.36	0.720546
3106	0.745837
3088.64	0.751048
3071.28	0.747987
3053.92	0.74664
3036.56	0.750502
3019.2	0.752385
3001.84	0.763322
2984.48	0.767643
2967.12	0.773899
2949.76	0.767592
2932.4	0.755032
2915.04	0.733242
2897.68	0.713588
2880.32	0.703238
2862.96	0.701043
2845.6	0.703961
2828.24	0.711943
2810.88	0.719147
2793.52	0.724436
2776.16	0.733213
2758.8	0.740885
2741.44	0.742678
2724.08	0.748163
2706.72	0.753961
2689.36	0.757259
2672	0.760441
2654.64	0.764783
2637.29	0.765036
2619.93	0.766359
2602.57	0.762397
2585.21	0.752557
2567.85	0.740009
2550.49	0.731218
2533.13	0.716831
2515.77	0.679089
2498.41	0.606444
2481.05	0.555046
2463.69	0.396554
2446.33	0.552498
2428.97	0.466859
2411.61	0.502032
2394.25	0.469397
2376.89	0.474632
2359.53	0.476555
2342.17	0.495902
2324.81	0.528888
2307.45	0.560245
2290.09	0.574096
2272.73	0.590075
2255.37	0.579093
2238.01	0.587191
2220.65	0.593366
2203.29	0.597424
2185.93	0.59717
2168.57	0.580412
2151.21	0.539338
2133.85	0.472123
2116.49	0.355349
2099.13	0.229508
2081.77	0.180836
2064.41	0.181489
2047.05	0.184625
2029.69	0.177242
2012.33	0.168357
1994.97	0.164125
1977.61	0.17086
1960.25	0.194641
1942.89	0.222164
1925.53	0.240661
1908.17	0.258854
1890.81	0.28612
1873.45	0.319512
1856.09	0.338494
1838.73	0.323072
1821.37	0.295096
1804.01	0.242606
1786.65	0.0875211
1769.3	0.0314134
1751.94	0.0417124
1734.58	0.0593595
1717.22	0.124503
1699.86	0.268314
1682.5	0.3585
1665.14	0.367486
1647.78	0.42681
1630.42	0.400264
1613.06	0.406995
1595.7	0.472896
1578.34	0.488882
1560.98	0.516708
1543.62	0.529735
1526.26	0.584634
1508.9	0.557783
1491.54	0.564296
1474.18	0.501902
1456.82	0.518738
1439.46	0.546286
1422.1	0.56496
1404.74	0.564262
1387.38	0.54952
1370.02	0.523943
1352.66	0.521077
1335.3	0.524807
1317.94	0.517617
1300.58	0.558211
1283.22	0.568379
1265.86	0.550512
1248.5	0.523141
1231.14	0.554624
1213.78	0.536429
1196.42	0.495511
1179.06	0.458047
1161.7	0.370483
1144.34	0.312857
1126.98	0.181145
1109.62	0.0549176
1092.26	0.0212428
1074.9	0.0247111
1057.54	0.0815236
1040.18	0.0306972
1022.82	0.059646
1005.46	0.0688764
988.104	0.15329
970.744	0.168841
953.384	0.1578
936.025	0.214769
918.665	0.230724
901.305	0.279673
883.945	0.331586
866.585	0.298206
849.226	0.217265
831.866	0.273289
814.506	0.270849
797.146	0.292135
779.786	0.20659
762.427	0.280367
745.067	0.224731
727.707	0.253921
710.347	0.241979
692.987	0.140667
675.628	0.104206
658.268	0.0604017
640.908	0.0629454
623.548	0.0726342
606.188	0.0736232
