Infrared Spectrum: tert-Butyl Methyl Ether
Formula: ( C H3)3 C O C H3
CAS: 1634-04-4
State: gas
Melting point: -109 C
Boiling point: 55.2 C
Class: IUPAC A
Instrument: IFS66V (Bruker)
Instrument parameters: KBr Beam splitter; MCT Detector; Multipass cell
Sampling: 1 L/min Flow
Resolution: 1.9290
Temperature: 23 C
Pressure: 101.3 kPa
Origin: NIST, Anayltical Chemistry Division, 301-975-3108
cm-1	(micromol/mol)-1m-1 (base 10)
574.687	5.6603e-08
583.365	-1.94549e-07
592.043	1.81425e-08
600.721	4.09944e-08
609.4	1.20813e-07
618.078	9.56129e-08
626.756	1.1544e-07
635.434	1.13288e-07
644.112	1.57971e-07
652.79	1.74933e-07
661.469	1.57967e-07
670.147	2.17364e-07
678.825	4.77004e-07
687.503	6.77137e-07
696.181	1.30459e-06
704.859	5.7443e-06
713.537	1.98291e-05
722.216	3.08176e-05
730.894	2.50485e-05
739.572	1.59137e-05
748.25	3.02775e-06
756.928	1.33026e-06
765.606	1.26092e-06
774.285	1.27539e-06
782.963	1.19169e-06
791.641	1.16207e-06
800.319	1.27682e-06
808.997	1.60914e-06
817.675	2.22387e-06
826.353	5.10467e-06
835.032	2.11181e-05
843.71	6.5181e-05
852.388	0.000104216
861.066	8.12975e-05
869.744	5.08077e-05
878.422	7.1473e-06
887.101	1.85679e-06
895.779	1.5038e-06
904.457	1.8062e-06
913.135	1.50986e-06
921.813	1.44243e-06
930.491	1.2555e-06
939.169	1.19467e-06
947.848	1.25065e-06
956.526	1.36509e-06
965.204	1.60567e-06
973.882	2.15182e-06
982.56	3.01934e-06
991.238	4.16396e-06
999.917	7.37533e-06
1008.59	1.84104e-05
1017.27	3.37922e-05
1025.95	3.40507e-05
1034.63	2.452e-05
1043.31	9.46142e-06
1051.99	9.63425e-06
1060.66	1.85903e-05
1069.34	5.45984e-05
1078.02	0.000188429
1086.7	0.000417563
1095.38	0.000565107
1104.05	0.000441868
1112.73	0.0001591
1121.41	3.65749e-05
1130.09	2.08136e-05
1138.77	1.90197e-05
1147.45	2.21934e-05
1156.12	2.9649e-05
1164.8	3.36391e-05
1173.48	4.12961e-05
1182.16	6.32424e-05
1190.84	0.000141097
1199.51	0.000321014
1208.19	0.000531007
1216.87	0.000500708
1225.55	0.000254499
1234.23	0.000163809
1242.9	0.000119281
1251.58	0.00010819
1260.26	9.51896e-05
1268.94	7.578e-05
1277.62	3.99246e-05
1286.3	1.64007e-05
1294.97	7.34705e-06
1303.65	4.53244e-06
1312.33	3.67997e-06
1321.01	3.43497e-06
1329.69	3.79805e-06
1338.36	6.93611e-06
1347.04	3.08921e-05
1355.72	0.000127848
1364.4	0.000214042
1373.08	0.000201536
1381.76	0.000175709
1390.43	0.000138469
1399.11	6.61882e-05
1407.79	1.78457e-05
1416.47	8.81136e-06
1425.15	1.01218e-05
1433.82	1.23038e-05
1442.5	1.9197e-05
1451.18	3.63559e-05
1459.86	6.26115e-05
1468.54	8.43323e-05
1477.22	9.21158e-05
1485.89	7.38449e-05
1494.57	3.67957e-05
1503.25	1.53326e-05
1511.93	6.38967e-06
1520.61	4.94961e-06
1529.28	4.35997e-06
1537.96	4.67255e-06
1546.64	4.6611e-06
1555.32	5.02659e-06
1564	6.01235e-06
1572.67	7.2107e-06
1581.35	7.32059e-06
1590.03	5.47329e-06
1598.71	2.23567e-06
1607.39	1.7618e-06
1616.07	2.22871e-06
1624.74	2.35528e-06
1633.42	2.49678e-06
1642.1	2.32435e-06
1650.78	1.8167e-06
1659.46	1.44555e-06
1668.13	1.3907e-06
1676.81	1.4661e-06
1685.49	2.33559e-06
1694.17	3.31997e-06
1702.85	4.52381e-06
1711.53	4.33267e-06
1720.2	3.19476e-06
1728.88	1.48698e-06
1737.56	1.36942e-06
1746.24	1.3749e-06
1754.92	1.25612e-06
1763.59	1.11878e-06
1772.27	1.23839e-06
1780.95	9.521e-07
1789.63	1.20609e-06
1798.31	2.05107e-06
1806.98	3.36972e-06
1815.66	4.28758e-06
1824.34	4.1157e-06
1833.02	2.60744e-06
1841.7	1.22557e-06
1850.38	9.88205e-07
1859.05	9.25892e-07
1867.73	1.01889e-06
1876.41	1.04021e-06
1885.09	1.12381e-06
1893.77	1.1764e-06
1902.44	1.2762e-06
1911.12	1.59128e-06
1919.8	2.60799e-06
1928.48	4.62446e-06
1937.16	7.07647e-06
1945.84	8.22712e-06
1954.51	6.72758e-06
1963.19	3.42145e-06
1971.87	1.02908e-06
1980.55	6.82465e-07
1989.23	6.09653e-07
1997.9	5.80717e-07
2006.58	6.04336e-07
2015.26	6.55362e-07
2023.94	7.90978e-07
2032.62	1.10795e-06
2041.3	1.97997e-06
2049.97	3.4032e-06
2058.65	4.58342e-06
2067.33	3.99028e-06
2076.01	2.22827e-06
2084.69	2.02648e-06
2093.36	2.62715e-06
2102.04	2.53579e-06
2110.72	2.32843e-06
2119.4	2.25945e-06
2128.08	1.77237e-06
2136.75	1.29671e-06
2145.43	1.55119e-06
2154.11	2.92109e-06
2162.79	5.82483e-06
2171.47	9.0855e-06
2180.15	1.05683e-05
2188.82	7.40724e-06
2197.5	2.66978e-06
2206.18	1.21965e-06
2214.86	1.04579e-06
2223.54	1.22366e-06
2232.21	1.21066e-06
2240.89	9.66291e-07
2249.57	1.09325e-06
2258.25	1.54217e-06
2266.93	2.24579e-06
2275.61	2.56657e-06
2284.28	2.45138e-06
2292.96	2.00448e-06
2301.64	1.57538e-06
2310.32	1.12201e-06
2319	8.01086e-07
2327.67	5.95832e-07
2336.35	7.62384e-07
2345.03	1.33316e-06
2353.71	1.82491e-06
2362.39	1.97727e-06
2371.06	1.96542e-06
2379.74	1.76572e-06
2388.42	1.62413e-06
2397.1	1.33634e-06
2405.78	1.26178e-06
2414.46	1.35151e-06
2423.13	1.24047e-06
2431.81	7.62586e-07
2440.49	5.1959e-07
2449.17	4.50121e-07
2457.85	5.6302e-07
2466.52	7.31701e-07
2475.2	8.80823e-07
2483.88	8.28131e-07
2492.56	6.40597e-07
2501.24	5.29483e-07
2509.92	4.37155e-07
2518.59	4.071e-07
2527.27	4.42745e-07
2535.95	5.83198e-07
2544.63	8.70802e-07
2553.31	1.15263e-06
2561.98	1.59473e-06
2570.66	2.26012e-06
2579.34	3.07371e-06
2588.02	3.94312e-06
2596.7	4.1804e-06
2605.38	4.43586e-06
2614.05	4.78478e-06
2622.73	5.0012e-06
2631.41	4.5792e-06
2640.09	4.26494e-06
2648.77	4.05309e-06
2657.44	3.89789e-06
2666.12	3.59828e-06
2674.8	3.30458e-06
2683.48	3.12376e-06
2692.16	2.99938e-06
2700.83	3.16887e-06
2709.51	4.00429e-06
2718.19	5.70468e-06
2726.87	7.01271e-06
2735.55	7.14378e-06
2744.23	6.57688e-06
2752.9	5.84595e-06
2761.58	5.84682e-06
2770.26	6.10221e-06
2778.94	6.74538e-06
2787.62	8.57583e-06
2796.29	1.16925e-05
2804.97	1.94431e-05
2813.65	4.75335e-05
2822.33	0.000103133
2831.01	0.000135025
2839.69	0.000127926
2848.36	8.89147e-05
2857.04	4.61665e-05
2865.72	5.86158e-05
2874.4	9.41902e-05
2883.08	0.00013708
2891.75	0.000188795
2900.43	0.00023823
2909.11	0.000267797
2917.79	0.000290638
2926.47	0.000275126
2935.14	0.000283965
2943.82	0.000306833
2952.5	0.000307946
2961.18	0.000329873
2969.86	0.000579979
2978.54	0.000867252
2987.21	0.00105704
2995.89	0.00053136
3004.57	0.000159115
3013.25	4.47506e-05
3021.93	2.49225e-05
3030.6	1.78813e-05
3039.28	1.41534e-05
3047.96	1.19212e-05
3056.64	1.07469e-05
3065.32	1.02855e-05
3074	9.77785e-06
3082.67	8.80989e-06
3091.35	7.45112e-06
3100.03	6.29757e-06
3108.71	5.62561e-06
3117.39	5.30874e-06
3126.06	5.29253e-06
3134.74	5.62215e-06
3143.42	6.21959e-06
3152.1	6.45857e-06
3160.78	6.17809e-06
3169.46	5.82052e-06
3178.13	5.80633e-06
3186.81	6.00878e-06
3195.49	6.13378e-06
3204.17	6.03684e-06
3212.85	6.02035e-06
3221.52	6.48299e-06
3230.2	7.00453e-06
3238.88	6.85649e-06
3247.56	5.78594e-06
3256.24	4.18173e-06
3264.91	2.80309e-06
3273.59	1.88929e-06
3282.27	1.44314e-06
3290.95	1.22257e-06
3299.63	1.25514e-06
3308.31	1.6613e-06
3316.98	2.19854e-06
3325.66	2.21566e-06
3334.34	2.10613e-06
3343.02	1.84414e-06
3351.7	1.61292e-06
3360.37	1.32743e-06
3369.05	1.13623e-06
3377.73	1.48364e-06
3386.41	2.14724e-06
3395.09	2.10242e-06
3403.77	1.62414e-06
3412.44	1.08596e-06
3421.12	1.05533e-06
3429.8	1.39115e-06
3438.48	1.58068e-06
3447.16	1.35701e-06
3455.83	9.40416e-07
3464.51	7.83577e-07
3473.19	9.00713e-07
3481.87	1.14533e-06
3490.55	9.70515e-07
3499.22	6.52757e-07
3507.9	3.37032e-07
3516.58	2.03233e-07
3525.26	1.28709e-07
3533.94	1.01186e-07
3542.62	1.02751e-07
3551.29	1.37466e-07
3559.97	9.09854e-08
3568.65	1.42766e-07
3577.33	6.43173e-08
3586.01	1.60267e-07
3594.68	1.03891e-07
3603.36	1.15127e-07
3612.04	2.15205e-07
3620.72	1.73201e-07
3629.4	4.09312e-07
3638.08	1.18983e-07
3646.75	2.41753e-07
3655.43	2.10198e-07
3664.11	1.60421e-07
3672.79	2.20444e-07
3681.47	2.36509e-07
3690.14	3.99799e-07
3698.82	4.13183e-07
3707.5	4.83927e-07
3716.18	4.36804e-07
3724.86	3.82713e-07
3733.54	3.94584e-07
3742.21	3.51272e-07
3750.89	4.66963e-07
3759.57	4.55051e-07
3768.25	4.12194e-07
3776.93	4.79427e-07
3785.6	5.54196e-07
3794.28	5.76146e-07
3802.96	7.04958e-07
3811.64	6.67073e-07
3820.32	9.35963e-07
3828.99	9.30194e-07
3837.67	1.34357e-06
3846.35	9.39652e-07
3855.03	1.23945e-06
3863.71	1.013e-06
3872.39	1.12376e-06
3881.06	1.49049e-06
3889.74	1.79147e-06
3898.42	2.09078e-06
3907.1	2.33407e-06
3915.78	2.72119e-06
3924.45	2.88429e-06
3933.13	2.54358e-06
3941.81	2.06632e-06
3950.49	1.83645e-06
3959.17	2.00044e-06
3967.85	2.16416e-06
