Infrared Spectrum: tert-Butyl Methyl Ether
Formula: ( C H3)3 C O C H3
CAS: 1634-04-4
State: gas
Melting point: -109 C
Boiling point: 55.2 C
Class: IUPAC A
Instrument: IFS66V (Bruker)
Instrument parameters: KBr Beam splitter; MCT Detector; Multipass cell
Sampling: 1 L/min Flow
Resolution: 1.9290
Temperature: 23 C
Pressure: 101.3 kPa
Origin: NIST, Anayltical Chemistry Division, 301-975-3108
cm-1	(micromol/mol)-1m-1 (base 10)
574.687	2.00488e-08
583.365	-2.23933e-07
592.043	-1.81079e-08
600.721	1.98451e-09
609.4	9.0065e-08
618.078	6.01318e-08
626.756	7.89546e-08
635.434	7.1626e-08
644.112	1.09235e-07
652.79	1.27576e-07
661.469	9.74318e-08
670.147	1.52005e-07
678.825	3.96114e-07
687.503	5.61568e-07
696.181	1.10522e-06
704.859	5.48606e-06
713.537	2.00618e-05
722.216	3.09938e-05
730.894	2.49671e-05
739.572	1.5947e-05
748.25	2.69459e-06
756.928	1.13616e-06
765.606	1.1204e-06
774.285	1.15437e-06
782.963	1.06378e-06
791.641	1.0202e-06
800.319	1.10035e-06
808.997	1.38494e-06
817.675	1.88175e-06
826.353	4.51247e-06
835.032	2.04364e-05
843.71	6.59411e-05
852.388	0.00010552
861.066	8.10216e-05
869.744	5.10332e-05
878.422	6.1469e-06
887.101	1.34848e-06
895.779	1.20656e-06
904.457	1.60072e-06
913.135	1.31932e-06
921.813	1.26753e-06
930.491	1.0873e-06
939.169	1.01639e-06
947.848	1.07493e-06
956.526	1.16947e-06
965.204	1.39378e-06
973.882	1.91021e-06
982.56	2.75429e-06
991.238	3.81596e-06
999.917	6.92451e-06
1008.59	1.81224e-05
1017.27	3.40521e-05
1025.95	3.41725e-05
1034.63	2.42756e-05
1043.31	8.33482e-06
1051.99	8.28288e-06
1060.66	1.65107e-05
1069.34	5.14523e-05
1078.02	0.000187034
1086.7	0.000423235
1095.38	0.000577056
1104.05	0.000448689
1112.73	0.000155467
1121.41	3.28421e-05
1130.09	1.87734e-05
1138.77	1.75876e-05
1147.45	2.1041e-05
1156.12	2.88083e-05
1164.8	3.24952e-05
1173.48	3.96662e-05
1182.16	6.08683e-05
1190.84	0.000138657
1199.51	0.000323766
1208.19	0.000543849
1216.87	0.00051054
1225.55	0.000251674
1234.23	0.000162718
1242.9	0.000117738
1251.58	0.000107833
1260.26	9.48101e-05
1268.94	7.57158e-05
1277.62	3.92729e-05
1286.3	1.54264e-05
1294.97	6.5066e-06
1303.65	3.83462e-06
1312.33	3.0278e-06
1321.01	2.74133e-06
1329.69	2.91458e-06
1338.36	5.54626e-06
1347.04	2.88181e-05
1355.72	0.000128847
1364.4	0.000214524
1373.08	0.000199444
1381.76	0.000177991
1390.43	0.000143742
1399.11	6.6998e-05
1407.79	1.63473e-05
1416.47	7.89241e-06
1425.15	9.50989e-06
1433.82	1.16961e-05
1442.5	1.85729e-05
1451.18	3.60646e-05
1459.86	6.27738e-05
1468.54	8.48824e-05
1477.22	9.33484e-05
1485.89	7.50019e-05
1494.57	3.65642e-05
1503.25	1.47731e-05
1511.93	5.91559e-06
1520.61	4.66766e-06
1529.28	4.13983e-06
1537.96	4.51797e-06
1546.64	4.52039e-06
1555.32	4.88586e-06
1564	5.92502e-06
1572.67	7.15873e-06
1581.35	7.32098e-06
1590.03	5.46989e-06
1598.71	2.09875e-06
1607.39	1.65774e-06
1616.07	2.17735e-06
1624.74	2.29856e-06
1633.42	2.44176e-06
1642.1	2.27941e-06
1650.78	1.73877e-06
1659.46	1.37629e-06
1668.13	1.33001e-06
1676.81	1.40668e-06
1685.49	2.3049e-06
1694.17	3.30071e-06
1702.85	4.51141e-06
1711.53	4.32169e-06
1720.2	3.16998e-06
1728.88	1.4128e-06
1737.56	1.30523e-06
1746.24	1.32974e-06
1754.92	1.21412e-06
1763.59	1.07788e-06
1772.27	1.2192e-06
1780.95	9.05385e-07
1789.63	1.14887e-06
1798.31	2.01398e-06
1806.98	3.36673e-06
1815.66	4.31364e-06
1824.34	4.15112e-06
1833.02	2.59016e-06
1841.7	1.16111e-06
1850.38	9.46979e-07
1859.05	8.87075e-07
1867.73	9.90815e-07
1876.41	1.0048e-06
1885.09	1.09246e-06
1893.77	1.14001e-06
1902.44	1.232e-06
1911.12	1.53504e-06
1919.8	2.56025e-06
1928.48	4.61024e-06
1937.16	7.12676e-06
1945.84	8.32294e-06
1954.51	6.78984e-06
1963.19	3.39134e-06
1971.87	9.47436e-07
1980.55	6.29645e-07
1989.23	5.68771e-07
1997.9	5.42885e-07
2006.58	5.68841e-07
2015.26	6.1843e-07
2023.94	7.53161e-07
2032.62	1.06361e-06
2041.3	1.9477e-06
2049.97	3.40883e-06
2058.65	4.63802e-06
2067.33	4.01655e-06
2076.01	2.16826e-06
2084.69	1.98031e-06
2093.36	2.62832e-06
2102.04	2.52722e-06
2110.72	2.30566e-06
2119.4	2.24823e-06
2128.08	1.7416e-06
2136.75	1.23657e-06
2145.43	1.48399e-06
2154.11	2.85925e-06
2162.79	5.83005e-06
2171.47	9.18317e-06
2180.15	1.07465e-05
2188.82	7.48942e-06
2197.5	2.57985e-06
2206.18	1.13996e-06
2214.86	9.93274e-07
2223.54	1.19028e-06
2232.21	1.18605e-06
2240.89	9.21461e-07
2249.57	1.05331e-06
2258.25	1.51231e-06
2266.93	2.24623e-06
2275.61	2.56965e-06
2284.28	2.45206e-06
2292.96	1.98756e-06
2301.64	1.55324e-06
2310.32	1.09024e-06
2319	7.62322e-07
2327.67	5.54178e-07
2336.35	7.21713e-07
2345.03	1.30525e-06
2353.71	1.81181e-06
2362.39	1.96497e-06
2371.06	1.95429e-06
2379.74	1.74215e-06
2388.42	1.60628e-06
2397.1	1.30324e-06
2405.78	1.23323e-06
2414.46	1.32671e-06
2423.13	1.22143e-06
2431.81	7.22173e-07
2440.49	4.80982e-07
2449.17	4.06553e-07
2457.85	5.27191e-07
2466.52	6.95118e-07
2475.2	8.54986e-07
2483.88	7.93757e-07
2492.56	6.01284e-07
2501.24	4.83532e-07
2509.92	3.92592e-07
2518.59	3.54452e-07
2527.27	3.9197e-07
2535.95	5.24437e-07
2544.63	8.19094e-07
2553.31	1.09177e-06
2561.98	1.53841e-06
2570.66	2.20473e-06
2579.34	3.03117e-06
2588.02	3.91745e-06
2596.7	4.14433e-06
2605.38	4.38503e-06
2614.05	4.74355e-06
2622.73	4.96132e-06
2631.41	4.5207e-06
2640.09	4.18998e-06
2648.77	3.97655e-06
2657.44	3.81509e-06
2666.12	3.5123e-06
2674.8	3.199e-06
2683.48	3.01311e-06
2692.16	2.86468e-06
2700.83	3.02461e-06
2709.51	3.84852e-06
2718.19	5.59632e-06
2726.87	6.91446e-06
2735.55	7.01619e-06
2744.23	6.38895e-06
2752.9	5.60877e-06
2761.58	5.57704e-06
2770.26	5.78714e-06
2778.94	6.33621e-06
2787.62	8.09312e-06
2796.29	1.10127e-05
2804.97	1.84522e-05
2813.65	4.66057e-05
2822.33	0.000103298
2831.01	0.000134466
2839.69	0.00012757
2848.36	8.86753e-05
2857.04	4.41342e-05
2865.72	5.70843e-05
2874.4	9.33363e-05
2883.08	0.00013667
2891.75	0.00018915
2900.43	0.000239185
2909.11	0.000268678
2917.79	0.000292457
2926.47	0.000275234
2935.14	0.000283797
2943.82	0.000307078
2952.5	0.000306871
2961.18	0.000324944
2969.86	0.000581225
2978.54	0.000876514
2987.21	0.00108844
2995.89	0.000535744
3004.57	0.000152343
3013.25	3.9938e-05
3021.93	2.23569e-05
3030.6	1.61903e-05
3039.28	1.29802e-05
3047.96	1.10012e-05
3056.64	1.00548e-05
3065.32	9.72257e-06
3074	9.34276e-06
3082.67	8.42179e-06
3091.35	7.11532e-06
3100.03	5.9706e-06
3108.71	5.35336e-06
3117.39	5.04782e-06
3126.06	5.073e-06
3134.74	5.42052e-06
3143.42	6.06957e-06
3152.1	6.32221e-06
3160.78	6.0544e-06
3169.46	5.68021e-06
3178.13	5.68935e-06
3186.81	5.90227e-06
3195.49	6.04768e-06
3204.17	5.94292e-06
3212.85	5.93315e-06
3221.52	6.41219e-06
3230.2	6.97044e-06
3238.88	6.82958e-06
3247.56	5.7531e-06
3256.24	4.11238e-06
3264.91	2.72311e-06
3273.59	1.79717e-06
3282.27	1.3627e-06
3290.95	1.14019e-06
3299.63	1.18085e-06
3308.31	1.59985e-06
3316.98	2.16484e-06
3325.66	2.16979e-06
3334.34	2.0689e-06
3343.02	1.79473e-06
3351.7	1.56913e-06
3360.37	1.27574e-06
3369.05	1.0807e-06
3377.73	1.43793e-06
3386.41	2.14116e-06
3395.09	2.08442e-06
3403.77	1.59362e-06
3412.44	1.03506e-06
3421.12	1.01471e-06
3429.8	1.3646e-06
3438.48	1.56591e-06
3447.16	1.33458e-06
3455.83	9.0883e-07
3464.51	7.48108e-07
3473.19	8.72166e-07
3481.87	1.12994e-06
3490.55	9.52209e-07
3499.22	6.24861e-07
3507.9	3.05689e-07
3516.58	1.70468e-07
3525.26	1.02971e-07
3533.94	6.82518e-08
3542.62	7.74503e-08
3551.29	1.13903e-07
3559.97	6.77152e-08
3568.65	1.21986e-07
3577.33	4.1098e-08
3586.01	1.40307e-07
3594.68	8.37513e-08
3603.36	8.96648e-08
3612.04	1.92774e-07
3620.72	1.5577e-07
3629.4	4.16272e-07
3638.08	9.60021e-08
3646.75	2.21774e-07
3655.43	1.98554e-07
3664.11	1.35996e-07
3672.79	1.88945e-07
3681.47	2.07695e-07
3690.14	3.96798e-07
3698.82	3.91155e-07
3707.5	4.64997e-07
3716.18	4.17132e-07
3724.86	3.61528e-07
3733.54	3.79637e-07
3742.21	3.11162e-07
3750.89	4.74745e-07
3759.57	4.38618e-07
3768.25	3.95783e-07
3776.93	4.56866e-07
3785.6	5.39089e-07
3794.28	5.53634e-07
3802.96	6.99478e-07
3811.64	6.41769e-07
3820.32	9.36207e-07
3828.99	9.07713e-07
3837.67	1.35134e-06
3846.35	9.15096e-07
3855.03	1.24307e-06
3863.71	9.98587e-07
3872.39	1.09515e-06
3881.06	1.47762e-06
3889.74	1.78721e-06
3898.42	2.08309e-06
3907.1	2.31966e-06
3915.78	2.73014e-06
3924.45	2.8978e-06
3933.13	2.54427e-06
3941.81	2.05187e-06
3950.49	1.81316e-06
3959.17	1.98849e-06
3967.85	2.15568e-06
