Infrared Spectrum: tert-Butyl Methyl Ether
Formula: ( C H3)3 C O C H3
CAS: 1634-04-4
State: gas
Melting point: -109 C
Boiling point: 55.2 C
Class: IUPAC A
Instrument: IFS66V (Bruker)
Instrument parameters: KBr Beam splitter; MCT Detector; Multipass cell
Sampling: 1 L/min Flow
Resolution: 1.9290
Temperature: 23 C
Pressure: 101.3 kPa
Origin: NIST, Anayltical Chemistry Division, 301-975-3108
cm-1	(micromol/mol)-1m-1 (base 10)
574.687	2.10365e-08
583.365	-2.23012e-07
592.043	-1.65545e-08
600.721	2.18096e-09
609.4	8.8919e-08
618.078	5.9537e-08
626.756	7.86818e-08
635.434	7.16205e-08
644.112	1.08986e-07
652.79	1.27678e-07
661.469	9.78993e-08
670.147	1.50512e-07
678.825	3.96821e-07
687.503	5.60675e-07
696.181	1.10516e-06
704.859	5.48875e-06
713.537	2.00583e-05
722.216	3.1042e-05
730.894	2.49776e-05
739.572	1.595e-05
748.25	2.69626e-06
756.928	1.13733e-06
765.606	1.12075e-06
774.285	1.1548e-06
782.963	1.06319e-06
791.641	1.02059e-06
800.319	1.10096e-06
808.997	1.38557e-06
817.675	1.88225e-06
826.353	4.51515e-06
835.032	2.04451e-05
843.71	6.59292e-05
852.388	0.000105586
861.066	8.10742e-05
869.744	5.10378e-05
878.422	6.15622e-06
887.101	1.34811e-06
895.779	1.20672e-06
904.457	1.59962e-06
913.135	1.31986e-06
921.813	1.26718e-06
930.491	1.0876e-06
939.169	1.01584e-06
947.848	1.07573e-06
956.526	1.16858e-06
965.204	1.39463e-06
973.882	1.90998e-06
982.56	2.75453e-06
991.238	3.81567e-06
999.917	6.92685e-06
1008.59	1.81246e-05
1017.27	3.40416e-05
1025.95	3.42069e-05
1034.63	2.42737e-05
1043.31	8.33676e-06
1051.99	8.28628e-06
1060.66	1.65144e-05
1069.34	5.14767e-05
1078.02	0.000187057
1086.7	0.00042325
1095.38	0.000576987
1104.05	0.000448548
1112.73	0.000155564
1121.41	3.2856e-05
1130.09	1.87768e-05
1138.77	1.75888e-05
1147.45	2.10428e-05
1156.12	2.87988e-05
1164.8	3.24949e-05
1173.48	3.96699e-05
1182.16	6.08725e-05
1190.84	0.000138694
1199.51	0.000323728
1208.19	0.000543822
1216.87	0.000510387
1225.55	0.000251798
1234.23	0.00016271
1242.9	0.000117758
1251.58	0.000107837
1260.26	9.48281e-05
1268.94	7.57317e-05
1277.62	3.92669e-05
1286.3	1.54305e-05
1294.97	6.50731e-06
1303.65	3.83532e-06
1312.33	3.02743e-06
1321.01	2.7417e-06
1329.69	2.91466e-06
1338.36	5.54981e-06
1347.04	2.884e-05
1355.72	0.000128828
1364.4	0.000214795
1373.08	0.00019981
1381.76	0.000177946
1390.43	0.000143114
1399.11	6.69437e-05
1407.79	1.63655e-05
1416.47	7.8936e-06
1425.15	9.50955e-06
1433.82	1.1698e-05
1442.5	1.85805e-05
1451.18	3.6064e-05
1459.86	6.27839e-05
1468.54	8.48976e-05
1477.22	9.33395e-05
1485.89	7.4977e-05
1494.57	3.65654e-05
1503.25	1.47804e-05
1511.93	5.91675e-06
1520.61	4.66511e-06
1529.28	4.14084e-06
1537.96	4.51892e-06
1546.64	4.52185e-06
1555.32	4.88553e-06
1564	5.92448e-06
1572.67	7.15782e-06
1581.35	7.32014e-06
1590.03	5.46807e-06
1598.71	2.09973e-06
1607.39	1.65802e-06
1616.07	2.17338e-06
1624.74	2.29841e-06
1633.42	2.4455e-06
1642.1	2.27952e-06
1650.78	1.74482e-06
1659.46	1.37654e-06
1668.13	1.32871e-06
1676.81	1.4077e-06
1685.49	2.30234e-06
1694.17	3.30412e-06
1702.85	4.51483e-06
1711.53	4.32344e-06
1720.2	3.17111e-06
1728.88	1.41321e-06
1737.56	1.30697e-06
1746.24	1.33008e-06
1754.92	1.21466e-06
1763.59	1.07885e-06
1772.27	1.2164e-06
1780.95	9.05445e-07
1789.63	1.14886e-06
1798.31	2.01403e-06
1806.98	3.36646e-06
1815.66	4.31383e-06
1824.34	4.14942e-06
1833.02	2.58995e-06
1841.7	1.16272e-06
1850.38	9.47383e-07
1859.05	8.86958e-07
1867.73	9.9084e-07
1876.41	1.00485e-06
1885.09	1.09242e-06
1893.77	1.14026e-06
1902.44	1.23227e-06
1911.12	1.53529e-06
1919.8	2.56107e-06
1928.48	4.61052e-06
1937.16	7.12694e-06
1945.84	8.32252e-06
1954.51	6.78969e-06
1963.19	3.39121e-06
1971.87	9.48012e-07
1980.55	6.29298e-07
1989.23	5.68848e-07
1997.9	5.42989e-07
2006.58	5.68966e-07
2015.26	6.18475e-07
2023.94	7.53536e-07
2032.62	1.06358e-06
2041.3	1.94796e-06
2049.97	3.40836e-06
2058.65	4.63764e-06
2067.33	4.01568e-06
2076.01	2.16948e-06
2084.69	1.98085e-06
2093.36	2.62824e-06
2102.04	2.52611e-06
2110.72	2.3046e-06
2119.4	2.24694e-06
2128.08	1.74107e-06
2136.75	1.2364e-06
2145.43	1.48469e-06
2154.11	2.85887e-06
2162.79	5.83012e-06
2171.47	9.1833e-06
2180.15	1.07445e-05
2188.82	7.4882e-06
2197.5	2.58085e-06
2206.18	1.1396e-06
2214.86	9.9376e-07
2223.54	1.1906e-06
2232.21	1.18581e-06
2240.89	9.21717e-07
2249.57	1.05361e-06
2258.25	1.51219e-06
2266.93	2.24591e-06
2275.61	2.56867e-06
2284.28	2.45187e-06
2292.96	1.98735e-06
2301.64	1.55363e-06
2310.32	1.09068e-06
2319	7.61551e-07
2327.67	5.548e-07
2336.35	7.2188e-07
2345.03	1.30542e-06
2353.71	1.81213e-06
2362.39	1.96444e-06
2371.06	1.95439e-06
2379.74	1.74162e-06
2388.42	1.60645e-06
2397.1	1.30317e-06
2405.78	1.23339e-06
2414.46	1.32605e-06
2423.13	1.22171e-06
2431.81	7.2195e-07
2440.49	4.81062e-07
2449.17	4.06085e-07
2457.85	5.27602e-07
2466.52	6.94748e-07
2475.2	8.55168e-07
2483.88	7.93159e-07
2492.56	6.01982e-07
2501.24	4.83261e-07
2509.92	3.92892e-07
2518.59	3.54212e-07
2527.27	3.92267e-07
2535.95	5.24066e-07
2544.63	8.19425e-07
2553.31	1.09154e-06
2561.98	1.53891e-06
2570.66	2.20412e-06
2579.34	3.03124e-06
2588.02	3.91645e-06
2596.7	4.14486e-06
2605.38	4.38471e-06
2614.05	4.74393e-06
2622.73	4.96052e-06
2631.41	4.52153e-06
2640.09	4.18947e-06
2648.77	3.97778e-06
2657.44	3.81471e-06
2666.12	3.51269e-06
2674.8	3.19857e-06
2683.48	3.01399e-06
2692.16	2.86434e-06
2700.83	3.02549e-06
2709.51	3.84842e-06
2718.19	5.59674e-06
2726.87	6.91241e-06
2735.55	7.01698e-06
2744.23	6.389e-06
2752.9	5.6108e-06
2761.58	5.5764e-06
2770.26	5.78788e-06
2778.94	6.3357e-06
2787.62	8.09444e-06
2796.29	1.10131e-05
2804.97	1.84564e-05
2813.65	4.6617e-05
2822.33	0.000103313
2831.01	0.0001346
2839.69	0.000127674
2848.36	8.86721e-05
2857.04	4.41496e-05
2865.72	5.70878e-05
2874.4	9.33396e-05
2883.08	0.000136667
2891.75	0.000189143
2900.43	0.000239178
2909.11	0.000268688
2917.79	0.000292422
2926.47	0.000275226
2935.14	0.000283795
2943.82	0.000307073
2952.5	0.000306854
2961.18	0.000325028
2969.86	0.000581233
2978.54	0.00087725
2987.21	0.00108752
2995.89	0.000535633
3004.57	0.000152439
3013.25	3.99492e-05
3021.93	2.23632e-05
3030.6	1.61875e-05
3039.28	1.2984e-05
3047.96	1.09991e-05
3056.64	1.00571e-05
3065.32	9.72083e-06
3074	9.34447e-06
3082.67	8.42004e-06
3091.35	7.1169e-06
3100.03	5.96947e-06
3108.71	5.35444e-06
3117.39	5.04725e-06
3126.06	5.07452e-06
3134.74	5.41988e-06
3143.42	6.07028e-06
3152.1	6.32062e-06
3160.78	6.05525e-06
3169.46	5.67927e-06
3178.13	5.69052e-06
3186.81	5.9015e-06
3195.49	6.04831e-06
3204.17	5.94232e-06
3212.85	5.93399e-06
3221.52	6.4113e-06
3230.2	6.97078e-06
3238.88	6.82865e-06
3247.56	5.75339e-06
3256.24	4.11168e-06
3264.91	2.72361e-06
3273.59	1.79685e-06
3282.27	1.36339e-06
3290.95	1.14021e-06
3299.63	1.18137e-06
3308.31	1.59958e-06
3316.98	2.16511e-06
3325.66	2.16947e-06
3334.34	2.06912e-06
3343.02	1.79511e-06
3351.7	1.56974e-06
3360.37	1.27525e-06
3369.05	1.08129e-06
3377.73	1.43741e-06
3386.41	2.14045e-06
3395.09	2.08381e-06
3403.77	1.59374e-06
3412.44	1.03481e-06
3421.12	1.01541e-06
3429.8	1.36383e-06
3438.48	1.56581e-06
3447.16	1.33357e-06
3455.83	9.09001e-07
3464.51	7.47504e-07
3473.19	8.72179e-07
3481.87	1.12941e-06
3490.55	9.52798e-07
3499.22	6.24405e-07
3507.9	3.06362e-07
3516.58	1.6984e-07
3525.26	1.03575e-07
3533.94	6.82245e-08
3542.62	7.80961e-08
3551.29	1.13191e-07
3559.97	6.80389e-08
3568.65	1.2149e-07
3577.33	4.16274e-08
3586.01	1.39578e-07
3594.68	8.3804e-08
3603.36	8.97285e-08
3612.04	1.92981e-07
3620.72	1.54715e-07
3629.4	4.1366e-07
3638.08	9.55365e-08
3646.75	2.22332e-07
3655.43	1.97403e-07
3664.11	1.35947e-07
3672.79	1.93425e-07
3681.47	2.08139e-07
3690.14	3.98666e-07
3698.82	3.91197e-07
3707.5	4.66678e-07
3716.18	4.1756e-07
3724.86	3.62166e-07
3733.54	3.79325e-07
3742.21	3.16102e-07
3750.89	4.7592e-07
3759.57	4.37215e-07
3768.25	3.97422e-07
3776.93	4.56868e-07
3785.6	5.39688e-07
3794.28	5.53949e-07
3802.96	7.00802e-07
3811.64	6.4316e-07
3820.32	9.35856e-07
3828.99	9.08315e-07
3837.67	1.3488e-06
3846.35	9.15789e-07
3855.03	1.23988e-06
3863.71	9.9948e-07
3872.39	1.09858e-06
3881.06	1.47746e-06
3889.74	1.78779e-06
3898.42	2.08161e-06
3907.1	2.32025e-06
3915.78	2.72971e-06
3924.45	2.89661e-06
3933.13	2.54442e-06
3941.81	2.05184e-06
3950.49	1.81375e-06
3959.17	1.98856e-06
3967.85	2.15565e-06
