Infrared Spectrum: tert-Butyl Methyl Ether
Formula: ( C H3)3 C O C H3
CAS: 1634-04-4
State: gas
Melting point: -109 C
Boiling point: 55.2 C
Class: IUPAC A
Instrument: IFS66V (Bruker)
Instrument parameters: KBr Beam splitter; MCT Detector; Multipass cell
Sampling: 1 L/min Flow
Resolution: 1.9290
Temperature: 23 C
Pressure: 101.3 kPa
Origin: NIST, Anayltical Chemistry Division, 301-975-3108
cm-1	(micromol/mol)-1m-1 (base 10)
574.687	-1.94594e-08
583.365	-2.03207e-07
592.043	-1.65145e-08
600.721	-8.23998e-09
609.4	8.23889e-08
618.078	5.63356e-08
626.756	8.56994e-08
635.434	7.21207e-08
644.112	9.96947e-08
652.79	1.19802e-07
661.469	1.06227e-07
670.147	1.53657e-07
678.825	4.01238e-07
687.503	5.66405e-07
696.181	1.11157e-06
704.859	5.51247e-06
713.537	2.00241e-05
722.216	3.14521e-05
730.894	2.50857e-05
739.572	1.59642e-05
748.25	2.71839e-06
756.928	1.13735e-06
765.606	1.12136e-06
774.285	1.15173e-06
782.963	1.06047e-06
791.641	1.0239e-06
800.319	1.10235e-06
808.997	1.38676e-06
817.675	1.88959e-06
826.353	4.53816e-06
835.032	2.0518e-05
843.71	6.58294e-05
852.388	0.000106129
861.066	8.15057e-05
869.744	5.10874e-05
878.422	6.22214e-06
887.101	1.35491e-06
895.779	1.20482e-06
904.457	1.60365e-06
913.135	1.31796e-06
921.813	1.27492e-06
930.491	1.08199e-06
939.169	1.01588e-06
947.848	1.07401e-06
956.526	1.17125e-06
965.204	1.39253e-06
973.882	1.91688e-06
982.56	2.75104e-06
991.238	3.82078e-06
999.917	6.93957e-06
1008.59	1.81428e-05
1017.27	3.39641e-05
1025.95	3.4767e-05
1034.63	2.42236e-05
1043.31	8.38696e-06
1051.99	8.28203e-06
1060.66	1.6593e-05
1069.34	5.16559e-05
1078.02	0.000187223
1086.7	0.000422912
1095.38	0.00057671
1104.05	0.000447116
1112.73	0.000156314
1121.41	3.2989e-05
1130.09	1.87912e-05
1138.77	1.76061e-05
1147.45	2.10595e-05
1156.12	2.87044e-05
1164.8	3.24843e-05
1173.48	3.96839e-05
1182.16	6.09218e-05
1190.84	0.000138976
1199.51	0.000323454
1208.19	0.000543177
1216.87	0.000508954
1225.55	0.000252902
1234.23	0.000162646
1242.9	0.00011799
1251.58	0.000107851
1260.26	9.49888e-05
1268.94	7.59031e-05
1277.62	3.92012e-05
1286.3	1.54599e-05
1294.97	6.52267e-06
1303.65	3.83361e-06
1312.33	3.03075e-06
1321.01	2.73785e-06
1329.69	2.91719e-06
1338.36	5.57834e-06
1347.04	2.90159e-05
1355.72	0.00012868
1364.4	0.000217171
1373.08	0.000202634
1381.76	0.000177674
1390.43	0.000136443
1399.11	6.64435e-05
1407.79	1.65307e-05
1416.47	7.90342e-06
1425.15	9.5144e-06
1433.82	1.17139e-05
1442.5	1.8642e-05
1451.18	3.60665e-05
1459.86	6.28747e-05
1468.54	8.50231e-05
1477.22	9.31632e-05
1485.89	7.48218e-05
1494.57	3.6589e-05
1503.25	1.48245e-05
1511.93	5.91852e-06
1520.61	4.64039e-06
1529.28	4.14522e-06
1537.96	4.54754e-06
1546.64	4.53709e-06
1555.32	4.90475e-06
1564	5.9278e-06
1572.67	7.16185e-06
1581.35	7.32134e-06
1590.03	5.45104e-06
1598.71	2.10606e-06
1607.39	1.66086e-06
1616.07	2.14484e-06
1624.74	2.3091e-06
1633.42	2.46618e-06
1642.1	2.2704e-06
1650.78	1.79519e-06
1659.46	1.37433e-06
1668.13	1.34464e-06
1676.81	1.43095e-06
1685.49	2.27937e-06
1694.17	3.35156e-06
1702.85	4.53595e-06
1711.53	4.34171e-06
1720.2	3.18081e-06
1728.88	1.41972e-06
1737.56	1.30699e-06
1746.24	1.33386e-06
1754.92	1.22435e-06
1763.59	1.08897e-06
1772.27	1.18705e-06
1780.95	8.99484e-07
1789.63	1.15585e-06
1798.31	2.02079e-06
1806.98	3.36538e-06
1815.66	4.31707e-06
1824.34	4.13718e-06
1833.02	2.58564e-06
1841.7	1.16616e-06
1850.38	9.45559e-07
1859.05	8.85463e-07
1867.73	9.91866e-07
1876.41	1.00841e-06
1885.09	1.08861e-06
1893.77	1.14357e-06
1902.44	1.23305e-06
1911.12	1.53836e-06
1919.8	2.56747e-06
1928.48	4.61306e-06
1937.16	7.1278e-06
1945.84	8.32445e-06
1954.51	6.79161e-06
1963.19	3.39302e-06
1971.87	9.51559e-07
1980.55	6.27757e-07
1989.23	5.68802e-07
1997.9	5.47206e-07
2006.58	5.67998e-07
2015.26	6.20663e-07
2023.94	7.54902e-07
2032.62	1.06519e-06
2041.3	1.94794e-06
2049.97	3.4045e-06
2058.65	4.63386e-06
2067.33	4.01173e-06
2076.01	2.17855e-06
2084.69	1.98911e-06
2093.36	2.62975e-06
2102.04	2.53026e-06
2110.72	2.30873e-06
2119.4	2.21936e-06
2128.08	1.726e-06
2136.75	1.24454e-06
2145.43	1.48837e-06
2154.11	2.85816e-06
2162.79	5.82511e-06
2171.47	9.19842e-06
2180.15	1.07095e-05
2188.82	7.48136e-06
2197.5	2.58555e-06
2206.18	1.13598e-06
2214.86	9.92727e-07
2223.54	1.19728e-06
2232.21	1.18087e-06
2240.89	9.25701e-07
2249.57	1.05159e-06
2258.25	1.51459e-06
2266.93	2.23801e-06
2275.61	2.56341e-06
2284.28	2.44637e-06
2292.96	1.98902e-06
2301.64	1.55116e-06
2310.32	1.09313e-06
2319	7.64721e-07
2327.67	5.57041e-07
2336.35	7.24967e-07
2345.03	1.30672e-06
2353.71	1.81022e-06
2362.39	1.9645e-06
2371.06	1.95089e-06
2379.74	1.73943e-06
2388.42	1.60364e-06
2397.1	1.30571e-06
2405.78	1.23203e-06
2414.46	1.32592e-06
2423.13	1.2213e-06
2431.81	7.29078e-07
2440.49	4.77646e-07
2449.17	4.07864e-07
2457.85	5.26586e-07
2466.52	6.97937e-07
2475.2	8.5012e-07
2483.88	7.93732e-07
2492.56	6.01086e-07
2501.24	4.85942e-07
2509.92	3.90295e-07
2518.59	3.55933e-07
2527.27	3.93693e-07
2535.95	5.26642e-07
2544.63	8.18936e-07
2553.31	1.09713e-06
2561.98	1.53717e-06
2570.66	2.20658e-06
2579.34	3.02396e-06
2588.02	3.91607e-06
2596.7	4.14352e-06
2605.38	4.3902e-06
2614.05	4.74106e-06
2622.73	4.96307e-06
2631.41	4.52053e-06
2640.09	4.19792e-06
2648.77	3.97856e-06
2657.44	3.8188e-06
2666.12	3.50692e-06
2674.8	3.20214e-06
2683.48	3.00761e-06
2692.16	2.87223e-06
2700.83	3.02265e-06
2709.51	3.85477e-06
2718.19	5.58861e-06
2726.87	6.9012e-06
2735.55	7.01489e-06
2744.23	6.39668e-06
2752.9	5.61714e-06
2761.58	5.58079e-06
2770.26	5.78604e-06
2778.94	6.34843e-06
2787.62	8.09277e-06
2796.29	1.10291e-05
2804.97	1.8473e-05
2813.65	4.67282e-05
2822.33	0.000103403
2831.01	0.000135682
2839.69	0.000128537
2848.36	8.86709e-05
2857.04	4.42528e-05
2865.72	5.71346e-05
2874.4	9.33359e-05
2883.08	0.000136655
2891.75	0.000189033
2900.43	0.000239158
2909.11	0.000268746
2917.79	0.000292188
2926.47	0.000275126
2935.14	0.000283842
2943.82	0.000306967
2952.5	0.000306795
2961.18	0.000325635
2969.86	0.000581539
2978.54	0.000885261
2987.21	0.00107802
2995.89	0.000534899
3004.57	0.000153107
3013.25	4.01228e-05
3021.93	2.23542e-05
3030.6	1.62137e-05
3039.28	1.29667e-05
3047.96	1.1019e-05
3056.64	1.00462e-05
3065.32	9.73734e-06
3074	9.33257e-06
3082.67	8.42992e-06
3091.35	7.11048e-06
3100.03	5.97816e-06
3108.71	5.34493e-06
3117.39	5.05791e-06
3126.06	5.07276e-06
3134.74	5.43274e-06
3143.42	6.06011e-06
3152.1	6.32202e-06
3160.78	6.05375e-06
3169.46	5.68637e-06
3178.13	5.68742e-06
3186.81	5.90767e-06
3195.49	6.03937e-06
3204.17	5.94446e-06
3212.85	5.92977e-06
3221.52	6.41416e-06
3230.2	6.96581e-06
3238.88	6.83107e-06
3247.56	5.74677e-06
3256.24	4.11696e-06
3264.91	2.71611e-06
3273.59	1.80088e-06
3282.27	1.36393e-06
3290.95	1.14148e-06
3299.63	1.1824e-06
3308.31	1.60403e-06
3316.98	2.15726e-06
3325.66	2.17307e-06
3334.34	2.06582e-06
3343.02	1.80881e-06
3351.7	1.57406e-06
3360.37	1.27718e-06
3369.05	1.08342e-06
3377.73	1.43951e-06
3386.41	2.12918e-06
3395.09	2.08779e-06
3403.77	1.58115e-06
3412.44	1.04105e-06
3421.12	1.01981e-06
3429.8	1.36604e-06
3438.48	1.55803e-06
3447.16	1.33171e-06
3455.83	9.07449e-07
3464.51	7.49252e-07
3473.19	8.72652e-07
3481.87	1.13186e-06
3490.55	9.55416e-07
3499.22	6.27026e-07
3507.9	3.04681e-07
3516.58	1.6632e-07
3525.26	1.06096e-07
3533.94	6.87956e-08
3542.62	7.65845e-08
3551.29	1.06532e-07
3559.97	7.04709e-08
3568.65	1.17293e-07
3577.33	4.93362e-08
3586.01	1.32744e-07
3594.68	8.46226e-08
3603.36	8.84188e-08
3612.04	1.80654e-07
3620.72	1.67493e-07
3629.4	3.77051e-07
3638.08	9.46233e-08
3646.75	2.09778e-07
3655.43	1.92161e-07
3664.11	1.32465e-07
3672.79	2.19802e-07
3681.47	2.15949e-07
3690.14	4.34831e-07
3698.82	3.88856e-07
3707.5	4.77213e-07
3716.18	4.18573e-07
3724.86	3.63228e-07
3733.54	4.15784e-07
3742.21	3.37359e-07
3750.89	5.46276e-07
3759.57	4.15688e-07
3768.25	4.05669e-07
3776.93	4.55645e-07
3785.6	5.40766e-07
3794.28	5.63493e-07
3802.96	7.27088e-07
3811.64	6.43213e-07
3820.32	9.33213e-07
3828.99	9.08371e-07
3837.67	1.27777e-06
3846.35	9.15207e-07
3855.03	1.24215e-06
3863.71	1.01226e-06
3872.39	1.11991e-06
3881.06	1.47799e-06
3889.74	1.79899e-06
3898.42	2.08321e-06
3907.1	2.32459e-06
3915.78	2.72695e-06
3924.45	2.88811e-06
3933.13	2.54838e-06
3941.81	2.05646e-06
3950.49	1.81879e-06
3959.17	1.98848e-06
3967.85	2.15232e-06
