Infrared Spectrum: tert-Butyl Methyl Ether
Formula: ( C H3)3 C O C H3
CAS: 1634-04-4
State: gas
Melting point: -109 C
Boiling point: 55.2 C
Class: IUPAC A
Instrument: IFS66V (Bruker)
Instrument parameters: KBr Beam splitter; MCT Detector; Multipass cell
Sampling: 1 L/min Flow
Resolution: 0.2410
Temperature: 23 C
Pressure: 101.3 kPa
Origin: NIST, Anayltical Chemistry Division, 301-975-3108
cm-1	(micromol/mol)-1m-1 (base 10)
575.048	-3.82737e-07
583.606	-4.79017e-07
592.163	-2.83735e-07
600.721	2.07436e-07
609.279	-8.1041e-08
617.836	7.90056e-08
626.394	1.05119e-08
634.951	1.8956e-07
643.509	5.21338e-08
652.067	1.31372e-07
660.624	1.48814e-07
669.182	2.73056e-07
677.74	2.99084e-07
686.297	6.80095e-07
694.855	9.71072e-07
703.412	3.98577e-06
711.97	1.72322e-05
720.528	2.55559e-05
729.085	2.49753e-05
737.643	2.1206e-05
746.201	3.97247e-06
754.758	1.2033e-06
763.316	1.19014e-06
771.873	1.24513e-06
780.431	1.05119e-06
788.989	1.00023e-06
797.546	1.00634e-06
806.104	1.30099e-06
814.662	1.54263e-06
823.219	2.88304e-06
831.777	1.12879e-05
840.334	4.64522e-05
848.892	8.30983e-05
857.45	0.000120594
866.007	8.21424e-05
874.565	1.69478e-05
883.123	2.02951e-06
891.68	1.221e-06
900.238	1.12981e-06
908.795	1.52056e-06
917.353	1.40837e-06
925.911	1.0896e-06
934.468	1.01833e-06
943.026	1.07712e-06
951.584	1.03129e-06
960.141	1.26558e-06
968.699	1.59035e-06
977.256	2.27584e-06
985.814	3.10633e-06
994.372	4.45479e-06
1002.93	9.3901e-06
1011.49	2.42575e-05
1020.04	3.36778e-05
1028.6	2.9446e-05
1037.16	1.80982e-05
1045.72	7.23428e-06
1054.28	9.55212e-06
1062.83	2.12528e-05
1071.39	6.96682e-05
1079.95	0.000237686
1088.51	0.00046626
1097.06	0.000611313
1105.62	0.000418074
1114.18	0.000112849
1122.74	2.85308e-05
1131.29	1.803e-05
1139.85	1.78905e-05
1148.41	2.14452e-05
1156.97	2.89756e-05
1165.52	3.31288e-05
1174.08	4.0541e-05
1182.64	6.21144e-05
1191.2	0.000144608
1199.75	0.000328893
1208.31	0.00055185
1216.87	0.0005125
1225.43	0.000253908
1233.99	0.00016198
1242.54	0.000118679
1251.1	0.000107901
1259.66	9.55848e-05
1268.22	8.25703e-05
1276.77	4.22043e-05
1285.33	1.7231e-05
1293.89	7.0767e-06
1302.45	4.02139e-06
1311	3.11797e-06
1319.56	2.71488e-06
1328.12	2.80867e-06
1336.68	4.47265e-06
1345.23	1.93746e-05
1353.79	0.000100784
1362.35	0.000175585
1370.91	0.00027658
1379.46	0.000209741
1388.02	9.2142e-05
1396.58	5.97188e-05
1405.14	2.95146e-05
1413.7	7.95787e-06
1422.25	8.88136e-06
1430.81	1.08352e-05
1439.37	1.52686e-05
1447.93	2.94121e-05
1456.48	4.88675e-05
1465.04	8.53992e-05
1473.6	9.8485e-05
1482.16	8.02199e-05
1490.71	4.80806e-05
1499.27	2.42987e-05
1507.83	8.35913e-06
1516.39	4.86613e-06
1524.94	4.25814e-06
1533.5	4.29989e-06
1542.06	5.45739e-06
1550.62	4.65434e-06
1559.18	5.24641e-06
1567.73	6.65332e-06
1576.29	9.05462e-06
1584.85	6.21752e-06
1593.41	3.69438e-06
1601.96	1.77553e-06
1610.52	1.65578e-06
1619.08	1.98543e-06
1627.64	2.59524e-06
1636.19	2.40371e-06
1644.75	2.09296e-06
1653.31	3.56994e-06
1661.87	1.32674e-06
1670.42	1.32078e-06
1678.98	1.42652e-06
1687.54	2.13126e-06
1696.1	4.71442e-06
1704.65	4.88443e-06
1713.21	3.94359e-06
1721.77	2.63356e-06
1730.33	1.45589e-06
1738.89	1.31641e-06
1747.44	1.33758e-06
1756	1.22045e-06
1764.56	1.05961e-06
1773.12	1.0888e-06
1781.67	8.90573e-07
1790.23	1.1697e-06
1798.79	2.11093e-06
1807.35	3.41904e-06
1815.9	4.32494e-06
1824.46	4.10946e-06
1833.02	2.59374e-06
1841.58	1.18122e-06
1850.13	9.4609e-07
1858.69	8.76248e-07
1867.25	1.00018e-06
1875.81	9.89672e-07
1884.36	1.02809e-06
1892.92	1.14213e-06
1901.48	1.20299e-06
1910.04	1.51041e-06
1918.6	2.34424e-06
1927.15	4.20384e-06
1935.71	6.74943e-06
1944.27	8.49802e-06
1952.83	7.49119e-06
1961.38	4.22382e-06
1969.94	1.15098e-06
1978.5	6.43086e-07
1987.06	5.36703e-07
1995.61	5.353e-07
2004.17	5.6394e-07
2012.73	6.56033e-07
2021.29	7.29726e-07
2029.84	8.53131e-07
2038.4	1.59929e-06
2046.96	2.92457e-06
2055.52	4.21215e-06
2064.08	4.0368e-06
2072.63	3.00187e-06
2081.19	1.87494e-06
2089.75	2.54086e-06
2098.31	2.30917e-06
2106.86	2.33948e-06
2115.42	2.31214e-06
2123.98	2.09521e-06
2132.54	1.33335e-06
2141.09	1.22211e-06
2149.65	1.95218e-06
2158.21	4.37479e-06
2166.77	7.42367e-06
2175.32	1.01786e-05
2183.88	9.2958e-06
2192.44	5.11121e-06
2201	1.68517e-06
2209.55	1.1499e-06
2218.11	1.08008e-06
2226.67	1.22735e-06
2235.23	1.1023e-06
2243.79	9.6882e-07
2252.34	1.17124e-06
2260.9	1.6725e-06
2269.46	2.41229e-06
2278.02	2.59459e-06
2286.57	2.32079e-06
2295.13	1.93969e-06
2303.69	1.47661e-06
2312.25	1.08241e-06
2320.8	7.45225e-07
2329.36	7.02194e-07
2337.92	7.80712e-07
2346.48	1.53382e-06
2355.03	2.04419e-06
2363.59	2.20467e-06
2372.15	2.00494e-06
2380.71	1.71719e-06
2389.26	1.57156e-06
2397.82	1.30927e-06
2406.38	1.22554e-06
2414.94	1.32117e-06
2423.5	1.19652e-06
2432.05	6.98048e-07
2440.61	4.62099e-07
2449.17	3.88412e-07
2457.73	4.75494e-07
2466.28	6.83036e-07
2474.84	8.39468e-07
2483.4	7.71557e-07
2491.96	6.23417e-07
2500.51	5.0908e-07
2509.07	4.57057e-07
2517.63	3.18291e-07
2526.19	4.299e-07
2534.74	4.60071e-07
2543.3	7.96428e-07
2551.86	1.05229e-06
2560.42	1.41328e-06
2568.98	2.06281e-06
2577.53	2.80171e-06
2586.09	3.8456e-06
2594.65	4.06341e-06
2603.21	4.32322e-06
2611.76	4.66039e-06
2620.32	4.93178e-06
2628.88	4.67088e-06
2637.44	4.2499e-06
2645.99	4.14451e-06
2654.55	3.91415e-06
2663.11	3.66347e-06
2671.67	3.3028e-06
2680.22	3.15954e-06
2688.78	2.93945e-06
2697.34	2.90328e-06
2705.9	3.46799e-06
2714.45	4.63759e-06
2723.01	6.3311e-06
2731.57	7.0105e-06
2740.13	6.84456e-06
2748.69	6.2517e-06
2757.24	5.46986e-06
2765.8	5.63959e-06
2774.36	6.10699e-06
2782.92	7.00824e-06
2791.47	9.09376e-06
2800.03	1.32679e-05
2808.59	2.54184e-05
2817.15	6.97003e-05
2825.7	0.000138189
2834.26	0.000174738
2842.82	0.000118483
2851.38	6.3898e-05
2859.93	4.4854e-05
2868.49	6.61957e-05
2877.05	0.000107162
2885.61	0.000148473
2894.16	0.000205858
2902.72	0.000249754
2911.28	0.000272122
2919.84	0.000285644
2928.4	0.000274218
2936.95	0.00028882
2945.51	0.00030952
2954.07	0.000297779
2962.63	0.000350233
2971.18	0.000635396
2979.74	0.000860839
2988.3	0.000925387
2996.86	0.000491601
3005.41	0.000129429
3013.97	3.7091e-05
3022.53	2.17111e-05
3031.09	1.59761e-05
3039.64	1.28511e-05
3048.2	1.09974e-05
3056.76	1.00271e-05
3065.32	9.68623e-06
3073.88	9.31406e-06
3082.43	8.44319e-06
3090.99	7.11091e-06
3099.55	6.02342e-06
3108.11	5.45523e-06
3116.66	5.04572e-06
3125.22	5.06211e-06
3133.78	5.40218e-06
3142.34	6.04228e-06
3150.89	6.36089e-06
3159.45	6.10427e-06
3168.01	5.73349e-06
3176.57	5.6935e-06
3185.12	5.92202e-06
3193.68	6.10018e-06
3202.24	5.96646e-06
3210.8	6.0262e-06
3219.35	6.23108e-06
3227.91	6.94037e-06
3236.47	6.90787e-06
3245.03	6.11309e-06
3253.59	4.53987e-06
3262.14	3.09215e-06
3270.7	1.9501e-06
3279.26	1.53425e-06
3287.82	1.26422e-06
3296.37	1.08863e-06
3304.93	1.42004e-06
3313.49	1.8684e-06
3322.05	2.27996e-06
3330.6	2.29164e-06
3339.16	1.95995e-06
3347.72	1.86849e-06
3356.28	1.4791e-06
3364.83	1.07153e-06
3373.39	1.17991e-06
3381.95	1.70581e-06
3390.51	2.03932e-06
3399.06	1.78673e-06
3407.62	1.3581e-06
3416.18	9.94229e-07
3424.74	1.21358e-06
3433.3	1.5324e-06
3441.85	1.41241e-06
3450.41	1.17397e-06
3458.97	7.53216e-07
3467.53	7.57674e-07
3476.08	9.02805e-07
3484.64	1.13759e-06
3493.2	8.71752e-07
3501.76	4.74375e-07
3510.31	2.65595e-07
3518.87	1.6526e-07
3527.43	9.83122e-08
3535.99	7.45509e-08
3544.54	9.49144e-08
3553.1	1.01917e-08
3561.66	-7.00307e-10
3570.22	5.5488e-08
3578.78	1.10501e-07
3587.33	1.1081e-07
3595.89	1.21204e-07
3604.45	1.14025e-07
3613.01	1.73305e-07
3621.56	1.05592e-07
3630.12	2.11358e-07
3638.68	9.62022e-08
3647.24	3.99197e-07
3655.79	1.55916e-07
3664.35	9.62168e-08
3672.91	1.85569e-07
3681.47	1.84865e-07
3690.02	2.7436e-07
3698.58	4.16434e-07
3707.14	4.82688e-07
3715.7	4.86159e-07
3724.25	4.40153e-07
3732.81	3.19684e-07
3741.37	4.16312e-07
3749.93	4.21059e-07
3758.49	2.92328e-07
3767.04	4.03897e-07
3775.6	5.13902e-07
3784.16	4.53426e-07
3792.72	5.14191e-07
3801.27	1.47409e-06
3809.83	6.8955e-07
3818.39	7.37162e-07
3826.95	9.7854e-07
3835.5	1.01271e-06
3844.06	1.02452e-06
3852.62	1.07337e-06
3861.18	8.99147e-07
3869.73	1.06501e-06
3878.29	1.2767e-06
3886.85	1.57836e-06
3895.41	1.98696e-06
3903.96	2.41793e-06
3912.52	2.56116e-06
3921.08	2.86718e-06
3929.64	2.74549e-06
3938.2	2.21731e-06
3946.75	1.87649e-06
3955.31	1.80251e-06
3963.87	2.10609e-06
3972.43	2.20577e-06
