Infrared Spectrum: tert-Butyl Methyl Ether
Formula: ( C H3)3 C O C H3
CAS: 1634-04-4
State: gas
Melting point: -109 C
Boiling point: 55.2 C
Class: IUPAC A
Instrument: IFS66V (Bruker)
Instrument parameters: KBr Beam splitter; MCT Detector; Multipass cell
Sampling: 1 L/min Flow
Resolution: 0.1250
Temperature: 23 C
Pressure: 101.3 kPa
Origin: NIST, Anayltical Chemistry Division, 301-975-3108
cm-1	(micromol/mol)-1m-1 (base 10)
574.988	-9.26537e-07
583.546	-1.11898e-07
592.103	-2.71499e-07
600.661	2.6012e-07
609.219	8.83406e-08
617.776	3.17554e-07
626.334	-1.28602e-09
634.891	2.02211e-07
643.449	3.2698e-08
652.007	1.49386e-07
660.564	1.31125e-07
669.122	1.9026e-07
677.68	3.01174e-07
686.237	5.56353e-07
694.795	8.78607e-07
703.352	3.884e-06
711.91	1.69874e-05
720.468	2.54936e-05
729.025	2.50106e-05
737.583	2.13592e-05
746.141	3.96755e-06
754.698	1.13567e-06
763.256	1.17283e-06
771.813	1.36002e-06
780.371	1.08419e-06
788.929	9.41171e-07
797.486	1.07799e-06
806.044	1.33141e-06
814.602	1.4811e-06
823.159	2.97792e-06
831.717	1.1131e-05
840.274	4.59847e-05
848.832	8.30128e-05
857.39	0.000123023
865.947	8.25572e-05
874.505	1.72332e-05
883.063	2.0335e-06
891.62	1.20626e-06
900.178	1.18164e-06
908.735	1.51446e-06
917.293	1.32444e-06
925.851	1.03398e-06
934.408	1.08253e-06
942.966	1.06615e-06
951.524	1.0176e-06
960.081	1.3246e-06
968.639	1.57768e-06
977.196	2.29225e-06
985.754	3.05135e-06
994.312	4.39803e-06
1002.87	9.27977e-06
1011.43	2.40918e-05
1019.98	3.3724e-05
1028.54	2.94778e-05
1037.1	1.82363e-05
1045.66	7.25644e-06
1054.22	9.54723e-06
1062.77	2.11782e-05
1071.33	6.8957e-05
1079.89	0.000235924
1088.45	0.000464355
1097	0.000611876
1105.56	0.000419014
1114.12	0.000114268
1122.68	2.86123e-05
1131.23	1.8077e-05
1139.79	1.79014e-05
1148.35	2.14137e-05
1156.91	2.89998e-05
1165.46	3.30454e-05
1174.02	4.05248e-05
1182.58	6.19607e-05
1191.14	0.000143574
1199.69	0.000327559
1208.25	0.000548621
1216.81	0.000511928
1225.37	0.00025562
1233.93	0.000161922
1242.48	0.000118871
1251.04	0.000107955
1259.6	9.56336e-05
1268.16	8.30719e-05
1276.71	4.23655e-05
1285.27	1.73521e-05
1293.83	7.09943e-06
1302.39	4.03203e-06
1310.94	3.11072e-06
1319.5	2.73439e-06
1328.06	2.79662e-06
1336.62	4.4629e-06
1345.17	1.92003e-05
1353.73	9.98778e-05
1362.29	0.00017525
1370.85	0.000279325
1379.4	0.000210376
1387.96	9.16048e-05
1396.52	5.93177e-05
1405.08	2.99658e-05
1413.64	7.92585e-06
1422.19	8.86779e-06
1430.75	1.08072e-05
1439.31	1.52173e-05
1447.87	2.92798e-05
1456.42	4.85379e-05
1464.98	8.55421e-05
1473.54	9.87928e-05
1482.1	8.03039e-05
1490.65	4.81824e-05
1499.21	2.44781e-05
1507.77	8.41361e-06
1516.33	4.93461e-06
1524.88	4.26437e-06
1533.44	4.27991e-06
1542	5.29796e-06
1550.56	4.65869e-06
1559.11	5.23126e-06
1567.67	6.63862e-06
1576.23	9.66476e-06
1584.79	6.23363e-06
1593.35	3.70144e-06
1601.9	1.78051e-06
1610.46	1.64414e-06
1619.02	1.96441e-06
1627.58	2.50526e-06
1636.13	2.41218e-06
1644.69	2.13376e-06
1653.25	3.78172e-06
1661.81	1.32722e-06
1670.36	1.32682e-06
1678.92	1.40252e-06
1687.48	2.10645e-06
1696.04	5.20223e-06
1704.59	4.97387e-06
1713.15	3.9532e-06
1721.71	2.67383e-06
1730.27	1.47214e-06
1738.83	1.33994e-06
1747.38	1.37821e-06
1755.94	1.21544e-06
1764.5	1.07891e-06
1773.06	1.0886e-06
1781.61	9.01847e-07
1790.17	1.17227e-06
1798.73	2.08743e-06
1807.29	3.41943e-06
1815.84	4.33485e-06
1824.4	4.11485e-06
1832.96	2.57794e-06
1841.52	1.18463e-06
1850.07	9.64269e-07
1858.63	8.50137e-07
1867.19	9.78631e-07
1875.75	1.00234e-06
1884.3	1.04578e-06
1892.86	1.14638e-06
1901.42	1.21149e-06
1909.98	1.5276e-06
1918.54	2.35402e-06
1927.09	4.20628e-06
1935.65	6.75612e-06
1944.21	8.46562e-06
1952.77	7.52088e-06
1961.32	4.2415e-06
1969.88	1.16406e-06
1978.44	6.35211e-07
1987	5.32823e-07
1995.55	5.15677e-07
2004.11	5.49667e-07
2012.67	6.50224e-07
2021.23	7.13208e-07
2029.78	8.53622e-07
2038.34	1.59873e-06
2046.9	2.93459e-06
2055.46	4.20899e-06
2064.01	4.05502e-06
2072.57	3.04259e-06
2081.13	1.86891e-06
2089.69	2.52257e-06
2098.25	2.31341e-06
2106.8	2.32203e-06
2115.36	2.19566e-06
2123.92	2.12319e-06
2132.48	1.3134e-06
2141.03	1.20505e-06
2149.59	1.94215e-06
2158.15	4.13548e-06
2166.71	7.4055e-06
2175.26	1.01274e-05
2183.82	9.30883e-06
2192.38	5.18182e-06
2200.94	1.6832e-06
2209.49	1.20508e-06
2218.05	1.07709e-06
2226.61	1.24117e-06
2235.17	1.10786e-06
2243.72	9.93698e-07
2252.28	1.1844e-06
2260.84	1.69449e-06
2269.4	2.41467e-06
2277.96	2.60909e-06
2286.51	2.32052e-06
2295.07	1.9675e-06
2303.63	1.47075e-06
2312.19	1.09148e-06
2320.74	7.2958e-07
2329.3	7.39339e-07
2337.86	6.9594e-07
2346.42	1.48257e-06
2354.97	2.02939e-06
2363.53	2.21855e-06
2372.09	2.00831e-06
2380.65	1.71828e-06
2389.2	1.54903e-06
2397.76	1.26777e-06
2406.32	1.25123e-06
2414.88	1.35085e-06
2423.44	1.21314e-06
2431.99	7.27641e-07
2440.55	5.0446e-07
2449.11	3.77091e-07
2457.67	4.97766e-07
2466.22	6.80419e-07
2474.78	8.10236e-07
2483.34	7.46835e-07
2491.9	5.99094e-07
2500.45	5.14329e-07
2509.01	4.47686e-07
2517.57	2.99471e-07
2526.13	4.1323e-07
2534.68	4.77408e-07
2543.24	7.94505e-07
2551.8	1.06473e-06
2560.36	1.41994e-06
2568.91	2.08664e-06
2577.47	2.82511e-06
2586.03	3.83435e-06
2594.59	4.07014e-06
2603.15	4.3153e-06
2611.7	4.60015e-06
2620.26	5.01691e-06
2628.82	4.68676e-06
2637.38	4.26572e-06
2645.93	4.12675e-06
2654.49	3.91516e-06
2663.05	3.64788e-06
2671.61	3.33889e-06
2680.16	3.13838e-06
2688.72	2.98938e-06
2697.28	2.88018e-06
2705.84	3.51813e-06
2714.39	4.61088e-06
2722.95	6.30714e-06
2731.51	6.94468e-06
2740.07	6.84409e-06
2748.62	6.26322e-06
2757.18	5.42802e-06
2765.74	5.65422e-06
2774.3	6.09085e-06
2782.86	6.97308e-06
2791.41	9.0298e-06
2799.97	1.32312e-05
2808.53	2.52473e-05
2817.09	6.92777e-05
2825.64	0.000136849
2834.2	0.000173547
2842.76	0.000118443
2851.32	6.428e-05
2859.87	4.48338e-05
2868.43	6.59006e-05
2876.99	0.000106879
2885.55	0.000148203
2894.1	0.000205498
2902.66	0.000249698
2911.22	0.000271937
2919.78	0.000286046
2928.34	0.000274294
2936.89	0.000288742
2945.45	0.000309399
2954.01	0.000298304
2962.57	0.000349192
2971.12	0.000632784
2979.68	0.00085581
2988.24	0.000934767
2996.8	0.000494638
3005.35	0.000130954
3013.91	3.73275e-05
3022.47	2.18068e-05
3031.03	1.60223e-05
3039.58	1.28575e-05
3048.14	1.1015e-05
3056.7	1.00454e-05
3065.26	9.66381e-06
3073.81	9.342e-06
3082.37	8.48728e-06
3090.93	7.11494e-06
3099.49	6.02445e-06
3108.05	5.48824e-06
3116.6	5.07205e-06
3125.16	5.04963e-06
3133.72	5.40315e-06
3142.28	6.00409e-06
3150.83	6.39875e-06
3159.39	6.11239e-06
3167.95	5.72276e-06
3176.51	5.70205e-06
3185.06	5.96845e-06
3193.62	6.16091e-06
3202.18	5.89631e-06
3210.74	5.9942e-06
3219.29	6.20406e-06
3227.85	6.97861e-06
3236.41	6.85998e-06
3244.97	6.06718e-06
3253.52	4.56299e-06
3262.08	3.14527e-06
3270.64	1.91721e-06
3279.2	1.58678e-06
3287.76	1.25243e-06
3296.31	1.1457e-06
3304.87	1.41325e-06
3313.43	1.89066e-06
3321.99	2.3162e-06
3330.54	2.23402e-06
3339.1	1.99505e-06
3347.66	1.76177e-06
3356.22	1.47395e-06
3364.77	9.82357e-07
3373.33	1.22007e-06
3381.89	1.74294e-06
3390.45	2.14861e-06
3399	1.8188e-06
3407.56	1.33021e-06
3416.12	1.0471e-06
3424.68	1.29548e-06
3433.23	1.46228e-06
3441.79	1.50739e-06
3450.35	1.23133e-06
3458.91	7.8806e-07
3467.47	7.19769e-07
3476.02	9.40102e-07
3484.58	1.12719e-06
3493.14	7.69594e-07
3501.7	3.90422e-07
3510.25	3.03973e-07
3518.81	1.5706e-07
3527.37	7.08238e-08
3535.93	2.54457e-08
3544.48	1.5645e-08
3553.04	1.94831e-08
3561.6	-4.68824e-08
3570.16	1.31869e-07
3578.71	7.54058e-08
3587.27	2.02305e-07
3595.83	7.35941e-08
3604.39	1.56239e-07
3612.95	1.29595e-07
3621.5	1.55659e-07
3630.06	2.56352e-07
3638.62	1.55053e-07
3647.18	4.74046e-07
3655.73	1.37584e-07
3664.29	7.23045e-08
3672.85	1.3841e-07
3681.41	2.07184e-07
3689.96	1.91984e-07
3698.52	3.44851e-07
3707.08	4.78161e-07
3715.64	5.12374e-07
3724.19	4.6573e-07
3732.75	3.07502e-07
3741.31	4.76102e-07
3749.87	4.65335e-07
3758.42	2.69331e-07
3766.98	3.68704e-07
3775.54	5.83778e-07
3784.1	4.67773e-07
3792.66	5.19235e-07
3801.21	1.10661e-06
3809.77	7.09741e-07
3818.33	7.24973e-07
3826.89	1.0017e-06
3835.44	1.10747e-06
3844	1.0451e-06
3852.56	1.04782e-06
3861.12	9.4426e-07
3869.67	9.88074e-07
3878.23	1.32424e-06
3886.79	1.53539e-06
3895.35	1.93327e-06
3903.9	2.31401e-06
3912.46	2.58199e-06
3921.02	2.92565e-06
3929.58	2.73796e-06
3938.13	2.20028e-06
3946.69	1.92046e-06
3955.25	1.82897e-06
3963.81	2.1216e-06
3972.37	2.21139e-06
