Infrared Spectrum: tert-Butyl Methyl Ether
Formula: ( C H3)3 C O C H3
CAS: 1634-04-4
State: gas
Melting point: -109 C
Boiling point: 55.2 C
Class: IUPAC A
Instrument: IFS66V (Bruker)
Instrument parameters: KBr Beam splitter; MCT Detector; Multipass cell
Sampling: 1 L/min Flow
Resolution: 0.9640
Temperature: 23 C
Pressure: 101.3 kPa
Origin: NIST, Anayltical Chemistry Division, 301-975-3108
cm-1	(micromol/mol)-1m-1 (base 10)
575.169	1.42026e-08
583.847	-6.70094e-08
592.525	-4.34682e-08
601.203	7.673e-08
609.882	2.18796e-07
618.56	8.20669e-08
627.238	1.30023e-07
635.916	3.83077e-08
644.594	9.8938e-08
653.272	1.48814e-07
661.951	1.46401e-07
670.629	1.76659e-07
679.307	4.04296e-07
687.985	5.36728e-07
696.663	1.17908e-06
705.341	5.96622e-06
714.019	2.0925e-05
722.698	3.31896e-05
731.376	2.53795e-05
740.054	1.46037e-05
748.732	2.48156e-06
757.41	1.11667e-06
766.088	1.0685e-06
774.767	1.18969e-06
783.445	1.05707e-06
792.123	1.0657e-06
800.801	1.09815e-06
809.479	1.43328e-06
818.157	1.92154e-06
826.835	4.84092e-06
835.514	2.20957e-05
844.192	6.84917e-05
852.87	0.000111695
861.548	8.15467e-05
870.226	4.66152e-05
878.904	5.34549e-06
887.583	1.32644e-06
896.261	1.20441e-06
904.939	1.65997e-06
913.617	1.32022e-06
922.295	1.25837e-06
930.973	1.08381e-06
939.651	1.01978e-06
948.33	1.07193e-06
957.008	1.17161e-06
965.686	1.40125e-06
974.364	1.96106e-06
983.042	2.78878e-06
991.72	3.91627e-06
1000.4	7.25698e-06
1009.08	1.90836e-05
1017.75	3.44465e-05
1026.43	3.11154e-05
1035.11	2.31788e-05
1043.79	8.02958e-06
1052.47	8.47662e-06
1061.15	1.73697e-05
1069.82	5.49493e-05
1078.5	0.000198587
1087.18	0.000435623
1095.86	0.000588241
1104.54	0.000438592
1113.21	0.000139421
1121.89	3.09806e-05
1130.57	1.8446e-05
1139.25	1.77171e-05
1147.93	2.12564e-05
1156.61	2.90196e-05
1165.28	3.29336e-05
1173.96	4.03814e-05
1182.64	6.21897e-05
1191.32	0.000146767
1200	0.000333322
1208.67	0.000569726
1217.35	0.000516142
1226.03	0.000236869
1234.71	0.000163766
1243.39	0.000116052
1252.07	0.000107679
1260.74	9.41602e-05
1269.42	7.10079e-05
1278.1	3.73563e-05
1286.78	1.45469e-05
1295.46	6.26374e-06
1304.13	3.74569e-06
1312.81	3.01928e-06
1321.49	2.73904e-06
1330.17	2.9606e-06
1338.85	5.92745e-06
1347.52	3.1722e-05
1356.2	0.000135698
1364.88	0.000230331
1373.56	0.000193686
1382.24	0.000169884
1390.92	0.000150953
1399.59	6.66911e-05
1408.27	1.46518e-05
1416.95	7.9277e-06
1425.63	9.6154e-06
1434.31	1.18577e-05
1442.98	1.92744e-05
1451.66	3.71075e-05
1460.34	6.55324e-05
1469.02	8.49907e-05
1477.7	9.24139e-05
1486.38	7.45158e-05
1495.05	3.54072e-05
1503.73	1.38181e-05
1512.41	5.82269e-06
1521.09	4.89564e-06
1529.77	4.11426e-06
1538.44	4.63893e-06
1547.12	4.51165e-06
1555.8	4.81145e-06
1564.48	6.05692e-06
1573.16	7.19027e-06
1581.83	6.86486e-06
1590.51	5.27292e-06
1599.19	2.02362e-06
1607.87	1.64916e-06
1616.55	2.60278e-06
1625.23	2.25809e-06
1633.9	2.42784e-06
1642.58	2.2652e-06
1651.26	1.72149e-06
1659.94	1.36456e-06
1668.62	1.35531e-06
1677.29	1.38318e-06
1685.97	2.00265e-06
1694.65	3.38282e-06
1703.33	4.54951e-06
1712.01	4.0976e-06
1720.69	3.01211e-06
1729.36	1.40221e-06
1738.04	1.30362e-06
1746.72	1.33662e-06
1755.4	1.20015e-06
1764.08	1.05971e-06
1772.75	1.4143e-06
1781.43	8.81543e-07
1790.11	1.16977e-06
1798.79	2.08958e-06
1807.47	3.44437e-06
1816.15	4.31194e-06
1824.82	4.10182e-06
1833.5	2.49239e-06
1842.18	1.13636e-06
1850.86	9.5153e-07
1859.54	8.85492e-07
1868.21	9.87893e-07
1876.89	1.01488e-06
1885.57	1.09776e-06
1894.25	1.14669e-06
1902.93	1.23483e-06
1911.6	1.56065e-06
1920.28	2.64089e-06
1928.96	4.76305e-06
1937.64	7.26592e-06
1946.32	8.26708e-06
1955	6.51589e-06
1963.67	3.16442e-06
1972.35	8.9494e-07
1981.03	6.24248e-07
1989.71	5.69495e-07
1998.39	5.30018e-07
2007.06	5.59445e-07
2015.74	6.20059e-07
2024.42	7.55868e-07
2033.1	1.09586e-06
2041.78	2.02504e-06
2050.46	3.50593e-06
2059.13	4.69252e-06
2067.81	4.02193e-06
2076.49	2.0847e-06
2085.17	1.99132e-06
2093.85	2.56596e-06
2102.52	2.54053e-06
2111.2	2.3929e-06
2119.88	2.3583e-06
2128.56	1.6433e-06
2137.24	1.20631e-06
2145.91	1.54154e-06
2154.59	3.0631e-06
2163.27	5.9605e-06
2171.95	9.30828e-06
2180.63	1.0583e-05
2189.31	7.21298e-06
2197.98	2.38483e-06
2206.66	1.12995e-06
2215.34	1.019e-06
2224.02	1.18009e-06
2232.7	1.18031e-06
2241.37	9.15323e-07
2250.05	1.05799e-06
2258.73	1.53249e-06
2267.41	2.30946e-06
2276.09	2.60452e-06
2284.77	2.42779e-06
2293.44	1.99073e-06
2302.12	1.54174e-06
2310.8	1.06102e-06
2319.48	7.08735e-07
2328.16	5.91529e-07
2336.83	9.122e-07
2345.51	1.37834e-06
2354.19	1.77291e-06
2362.87	1.87217e-06
2371.55	1.90901e-06
2380.23	1.73019e-06
2388.9	1.58525e-06
2397.58	1.28801e-06
2406.26	1.23305e-06
2414.94	1.33254e-06
2423.62	1.21161e-06
2432.29	6.94909e-07
2440.97	4.66241e-07
2449.65	4.19599e-07
2458.33	5.41972e-07
2467.01	7.23965e-07
2475.68	8.65431e-07
2484.36	7.86869e-07
2493.04	5.93102e-07
2501.72	4.81222e-07
2510.4	3.79834e-07
2519.08	3.70914e-07
2527.75	4.03715e-07
2536.43	5.53628e-07
2545.11	8.39781e-07
2553.79	1.11959e-06
2562.47	1.5741e-06
2571.14	2.26657e-06
2579.82	3.08352e-06
2588.5	3.91671e-06
2597.18	4.16243e-06
2605.86	4.38764e-06
2614.54	4.75495e-06
2623.21	4.98709e-06
2631.89	4.50207e-06
2640.57	4.20472e-06
2649.25	3.94551e-06
2657.93	3.79581e-06
2666.6	3.46996e-06
2675.28	3.16896e-06
2683.96	2.98341e-06
2692.64	2.87265e-06
2701.32	3.0466e-06
2709.99	3.91147e-06
2718.67	5.68451e-06
2727.35	6.98062e-06
2736.03	7.02792e-06
2744.71	6.33158e-06
2753.39	5.54573e-06
2762.06	5.59471e-06
2770.74	5.80757e-06
2779.42	6.37154e-06
2788.1	8.20063e-06
2796.78	1.12666e-05
2805.45	1.90792e-05
2814.13	4.92986e-05
2822.81	0.000106144
2831.49	0.00013424
2840.17	0.000123239
2848.85	8.44351e-05
2857.52	4.37467e-05
2866.2	5.84678e-05
2874.88	9.58568e-05
2883.56	0.000138934
2892.24	0.000192933
2900.91	0.000241582
2909.59	0.000268821
2918.27	0.000291576
2926.95	0.000275179
2935.63	0.000285082
2944.31	0.000307802
2952.98	0.000304146
2961.66	0.000331974
2970.34	0.000600473
2979.02	0.00084271
2987.7	0.00102203
2996.37	0.000514731
3005.05	0.000138629
3013.73	3.7952e-05
3022.41	2.18391e-05
3031.09	1.59709e-05
3039.76	1.28199e-05
3048.44	1.09303e-05
3057.12	1.00058e-05
3065.8	9.71942e-06
3074.48	9.29638e-06
3083.16	8.35717e-06
3091.83	7.03839e-06
3100.51	5.93174e-06
3109.19	5.31791e-06
3117.87	5.04585e-06
3126.55	5.07376e-06
3135.22	5.43103e-06
3143.9	6.09374e-06
3152.58	6.33518e-06
3161.26	5.99076e-06
3169.94	5.66489e-06
3178.62	5.72224e-06
3187.29	5.8984e-06
3195.97	6.07596e-06
3204.65	5.93865e-06
3213.33	5.95463e-06
3222.01	6.43285e-06
3230.68	6.97398e-06
3239.36	6.81239e-06
3248.04	5.67389e-06
3256.72	3.99418e-06
3265.4	2.67523e-06
3274.07	1.75997e-06
3282.75	1.34761e-06
3291.43	1.14528e-06
3300.11	1.18536e-06
3308.79	1.62586e-06
3317.47	2.19389e-06
3326.14	2.19466e-06
3334.82	2.04788e-06
3343.5	1.81193e-06
3352.18	1.53855e-06
3360.86	1.27885e-06
3369.53	1.05795e-06
3378.21	1.51446e-06
3386.89	2.15227e-06
3395.57	2.1032e-06
3404.25	1.57039e-06
3412.93	1.0197e-06
3421.6	1.00442e-06
3430.28	1.40467e-06
3438.96	1.56137e-06
3447.64	1.30235e-06
3456.32	8.78176e-07
3464.99	7.14492e-07
3473.67	8.8873e-07
3482.35	1.14139e-06
3491.03	9.42434e-07
3499.71	5.97962e-07
3508.39	3.19493e-07
3517.06	2.09332e-07
3525.74	6.94596e-08
3534.42	7.29829e-08
3543.1	7.65099e-08
3551.78	1.18008e-07
3560.45	5.09478e-08
3569.13	7.91402e-08
3577.81	4.64204e-08
3586.49	1.79633e-07
3595.17	1.19774e-07
3603.84	8.30728e-08
3612.52	2.95488e-07
3621.2	1.15594e-07
3629.88	4.73022e-07
3638.56	1.26386e-07
3647.24	3.29268e-07
3655.91	3.15106e-07
3664.59	1.3198e-07
3673.27	1.9697e-07
3681.95	2.19645e-07
3690.63	4.13436e-07
3699.3	3.96812e-07
3707.98	4.83794e-07
3716.66	3.67776e-07
3725.34	3.76452e-07
3734.02	3.5548e-07
3742.7	3.06531e-07
3751.37	4.22067e-07
3760.05	5.08914e-07
3768.73	3.82097e-07
3777.41	4.53052e-07
3786.09	5.55828e-07
3794.76	5.33694e-07
3803.44	6.65936e-07
3812.12	6.49425e-07
3820.8	1.05302e-06
3829.48	9.26139e-07
3838.16	1.54198e-06
3846.83	9.00037e-07
3855.51	8.7342e-07
3864.19	1.00933e-06
3872.87	1.13649e-06
3881.55	1.44406e-06
3890.22	1.79276e-06
3898.9	2.16749e-06
3907.58	2.33349e-06
3916.26	2.78914e-06
3924.94	2.93865e-06
3933.61	2.50154e-06
3942.29	2.02011e-06
3950.97	1.82383e-06
3959.65	1.99188e-06
3968.33	2.1763e-06
