Infrared Spectrum: tert-Butyl Methyl Ether
Formula: ( C H3)3 C O C H3
CAS: 1634-04-4
State: gas
Melting point: -109 C
Boiling point: 55.2 C
Class: IUPAC A
Instrument: IFS66V (Bruker)
Instrument parameters: KBr Beam splitter; MCT Detector; Multipass cell
Sampling: 1 L/min Flow
Resolution: 0.9640
Temperature: 23 C
Pressure: 101.3 kPa
Origin: NIST, Anayltical Chemistry Division, 301-975-3108
cm-1	(micromol/mol)-1m-1 (base 10)
575.169	9.38594e-09
583.847	-9.76701e-08
592.525	-6.38298e-08
601.203	7.5615e-08
609.882	1.917e-07
618.56	7.34068e-08
627.238	1.24737e-07
635.916	4.68587e-08
644.594	1.00739e-07
653.272	1.42981e-07
661.951	1.3348e-07
670.629	1.65751e-07
679.307	4.02335e-07
687.985	5.43604e-07
696.663	1.18551e-06
705.341	5.98859e-06
714.019	2.08995e-05
722.698	3.33428e-05
731.376	2.53898e-05
740.054	1.46233e-05
748.732	2.4842e-06
757.41	1.1162e-06
766.088	1.08182e-06
774.767	1.17546e-06
783.445	1.05727e-06
792.123	1.05777e-06
800.801	1.10342e-06
809.479	1.41885e-06
818.157	1.92258e-06
826.835	4.84941e-06
835.514	2.21211e-05
844.192	6.84593e-05
852.87	0.000111794
861.548	8.16126e-05
870.226	4.66339e-05
878.904	5.36259e-06
887.583	1.31817e-06
896.261	1.20479e-06
904.939	1.65894e-06
913.617	1.31811e-06
922.295	1.25276e-06
930.973	1.08157e-06
939.651	1.02086e-06
948.33	1.0714e-06
957.008	1.17083e-06
965.686	1.40323e-06
974.364	1.95705e-06
983.042	2.78791e-06
991.72	3.91092e-06
1000.4	7.25891e-06
1009.08	1.90871e-05
1017.75	3.44257e-05
1026.43	3.12944e-05
1035.11	2.31623e-05
1043.79	8.03649e-06
1052.47	8.48031e-06
1061.15	1.73941e-05
1069.82	5.50148e-05
1078.5	0.000198772
1087.18	0.000435308
1095.86	0.000588435
1104.54	0.00043932
1113.21	0.000139678
1121.89	3.10299e-05
1130.57	1.84551e-05
1139.25	1.7722e-05
1147.93	2.12624e-05
1156.61	2.90037e-05
1165.28	3.29311e-05
1173.96	4.03725e-05
1182.64	6.22136e-05
1191.32	0.000146842
1200	0.000333229
1208.67	0.000569295
1217.35	0.000515751
1226.03	0.000237191
1234.71	0.000163604
1243.39	0.000116123
1252.07	0.000107669
1260.74	9.4217e-05
1269.42	7.11734e-05
1278.1	3.73928e-05
1286.78	1.45609e-05
1295.46	6.26376e-06
1304.13	3.74966e-06
1312.81	3.01743e-06
1321.49	2.73744e-06
1330.17	2.95831e-06
1338.85	5.92825e-06
1347.52	3.17754e-05
1356.2	0.000135638
1364.88	0.000231031
1373.56	0.000194233
1382.24	0.000169821
1390.92	0.000147223
1399.59	6.656e-05
1408.27	1.46904e-05
1416.95	7.93674e-06
1425.63	9.6129e-06
1434.31	1.18647e-05
1442.98	1.92835e-05
1451.66	3.71075e-05
1460.34	6.55443e-05
1469.02	8.50349e-05
1477.7	9.23206e-05
1486.38	7.44371e-05
1495.05	3.54131e-05
1503.73	1.38283e-05
1512.41	5.79243e-06
1521.09	4.82371e-06
1529.77	4.11996e-06
1538.44	4.69079e-06
1547.12	4.5149e-06
1555.8	4.821e-06
1564.48	6.04985e-06
1573.16	7.18577e-06
1581.83	6.88623e-06
1590.51	5.26821e-06
1599.19	2.02632e-06
1607.87	1.65006e-06
1616.55	2.49005e-06
1625.23	2.26635e-06
1633.9	2.43803e-06
1642.58	2.25907e-06
1651.26	1.74451e-06
1659.94	1.36515e-06
1668.62	1.38378e-06
1677.29	1.38447e-06
1685.97	2.03674e-06
1694.65	3.40996e-06
1703.33	4.55752e-06
1712.01	4.11707e-06
1720.69	3.01203e-06
1729.36	1.40747e-06
1738.04	1.30861e-06
1746.72	1.33989e-06
1755.4	1.20543e-06
1764.08	1.05715e-06
1772.75	1.33373e-06
1781.43	8.8979e-07
1790.11	1.1814e-06
1798.79	2.09891e-06
1807.47	3.443e-06
1816.15	4.31419e-06
1824.82	4.09501e-06
1833.5	2.49044e-06
1842.18	1.13431e-06
1850.86	9.46855e-07
1859.54	8.86365e-07
1868.21	9.93612e-07
1876.89	1.01663e-06
1885.57	1.1006e-06
1894.25	1.15102e-06
1902.93	1.238e-06
1911.6	1.56181e-06
1920.28	2.6405e-06
1928.96	4.76065e-06
1937.64	7.26495e-06
1946.32	8.26883e-06
1955	6.52721e-06
1963.67	3.16473e-06
1972.35	8.9723e-07
1981.03	6.25214e-07
1989.71	5.6812e-07
1998.39	5.35069e-07
2007.06	5.63809e-07
2015.74	6.21231e-07
2024.42	7.58422e-07
2033.1	1.09474e-06
2041.78	2.02227e-06
2050.46	3.50085e-06
2059.13	4.6946e-06
2067.81	4.0225e-06
2076.49	2.0919e-06
2085.17	1.99711e-06
2093.85	2.5745e-06
2102.52	2.55615e-06
2111.2	2.38565e-06
2119.88	2.32131e-06
2128.56	1.65617e-06
2137.24	1.21002e-06
2145.91	1.54106e-06
2154.59	3.03629e-06
2163.27	5.96217e-06
2171.95	9.33757e-06
2180.63	1.06048e-05
2189.31	7.22916e-06
2197.98	2.38937e-06
2206.66	1.12256e-06
2215.34	1.01434e-06
2224.02	1.18483e-06
2232.7	1.18232e-06
2241.37	9.18858e-07
2250.05	1.05849e-06
2258.73	1.53325e-06
2267.41	2.30576e-06
2276.09	2.60169e-06
2284.77	2.42586e-06
2293.44	1.98666e-06
2302.12	1.53837e-06
2310.8	1.06634e-06
2319.48	7.22151e-07
2328.16	5.73201e-07
2336.83	8.4022e-07
2345.51	1.36601e-06
2354.19	1.80022e-06
2362.87	1.9358e-06
2371.55	1.9308e-06
2380.23	1.729e-06
2388.9	1.58363e-06
2397.58	1.29259e-06
2406.26	1.2371e-06
2414.94	1.33253e-06
2423.62	1.21162e-06
2432.29	6.9604e-07
2440.97	4.6848e-07
2449.65	4.14007e-07
2458.33	5.39086e-07
2467.01	7.19923e-07
2475.68	8.6717e-07
2484.36	7.86169e-07
2493.04	5.94233e-07
2501.72	4.81439e-07
2510.4	3.79154e-07
2519.08	3.69018e-07
2527.75	4.02866e-07
2536.43	5.51464e-07
2545.11	8.3927e-07
2553.79	1.1184e-06
2562.47	1.57503e-06
2571.14	2.26365e-06
2579.82	3.08121e-06
2588.5	3.91639e-06
2597.18	4.16535e-06
2605.86	4.39397e-06
2614.54	4.75975e-06
2623.21	4.97956e-06
2631.89	4.50112e-06
2640.57	4.20624e-06
2649.25	3.94807e-06
2657.93	3.79362e-06
2666.6	3.47372e-06
2675.28	3.17228e-06
2683.96	2.98902e-06
2692.64	2.87391e-06
2701.32	3.04816e-06
2709.99	3.9148e-06
2718.67	5.68482e-06
2727.35	6.97191e-06
2736.03	7.02524e-06
2744.71	6.33922e-06
2753.39	5.55192e-06
2762.06	5.59162e-06
2770.74	5.81398e-06
2779.42	6.37481e-06
2788.1	8.20309e-06
2796.78	1.12626e-05
2805.45	1.90831e-05
2814.13	4.93312e-05
2822.81	0.000106197
2831.49	0.000134572
2840.17	0.000123448
2848.85	8.4442e-05
2857.52	4.37819e-05
2866.2	5.84828e-05
2874.88	9.58546e-05
2883.56	0.000138923
2892.24	0.000192887
2900.91	0.000241577
2909.59	0.000268863
2918.27	0.000291504
2926.95	0.000275166
2935.63	0.000285104
2944.31	0.000307807
2952.98	0.000304132
2961.66	0.000332192
2970.34	0.000600564
2979.02	0.000847583
2987.7	0.00102255
2996.37	0.000514577
3005.05	0.000138814
3013.73	3.79914e-05
3022.41	2.18445e-05
3031.09	1.5971e-05
3039.76	1.28241e-05
3048.44	1.09294e-05
3057.12	1.00093e-05
3065.8	9.72305e-06
3074.48	9.30167e-06
3083.16	8.35737e-06
3091.83	7.0407e-06
3100.51	5.93241e-06
3109.19	5.3216e-06
3117.87	5.05053e-06
3126.55	5.07195e-06
3135.22	5.43986e-06
3143.9	6.08975e-06
3152.58	6.3286e-06
3161.26	6.00094e-06
3169.94	5.66528e-06
3178.62	5.71753e-06
3187.29	5.90558e-06
3195.97	6.06955e-06
3204.65	5.93793e-06
3213.33	5.95409e-06
3222.01	6.44613e-06
3230.68	6.97421e-06
3239.36	6.80895e-06
3248.04	5.671e-06
3256.72	3.99534e-06
3265.4	2.66893e-06
3274.07	1.76421e-06
3282.75	1.34549e-06
3291.43	1.14382e-06
3300.11	1.18877e-06
3308.79	1.62853e-06
3317.47	2.19467e-06
3326.14	2.19048e-06
3334.82	2.04468e-06
3343.5	1.81878e-06
3352.18	1.54383e-06
3360.86	1.27882e-06
3369.53	1.06739e-06
3378.21	1.49986e-06
3386.89	2.15513e-06
3395.57	2.0995e-06
3404.25	1.56536e-06
3412.93	1.02149e-06
3421.6	1.01209e-06
3430.28	1.40454e-06
3438.96	1.56048e-06
3447.64	1.30513e-06
3456.32	8.80859e-07
3464.99	7.27474e-07
3473.67	8.90374e-07
3482.35	1.14139e-06
3491.03	9.38563e-07
3499.71	6.03056e-07
3508.39	3.1104e-07
3517.06	1.99151e-07
3525.74	7.3274e-08
3534.42	7.34995e-08
3543.1	7.23627e-08
3551.78	1.20242e-07
3560.45	5.37672e-08
3569.13	8.50373e-08
3577.81	4.89669e-08
3586.49	1.65374e-07
3595.17	1.09534e-07
3603.84	8.60359e-08
3612.52	2.66111e-07
3621.2	1.12495e-07
3629.88	4.25103e-07
3638.56	1.18492e-07
3647.24	3.00539e-07
3655.91	3.03066e-07
3664.59	1.32607e-07
3673.27	2.01307e-07
3681.95	2.16095e-07
3690.63	4.21318e-07
3699.3	3.97633e-07
3707.98	4.83034e-07
3716.66	3.75297e-07
3725.34	3.70641e-07
3734.02	3.67549e-07
3742.7	3.15917e-07
3751.37	4.75174e-07
3760.05	4.81064e-07
3768.73	3.88252e-07
3777.41	4.54934e-07
3786.09	5.50825e-07
3794.76	5.41539e-07
3803.44	6.63839e-07
3812.12	6.47801e-07
3820.8	1.02883e-06
3829.48	9.16666e-07
3838.16	1.47233e-06
3846.83	9.03627e-07
3855.51	9.03657e-07
3864.19	1.0237e-06
3872.87	1.14276e-06
3881.55	1.44509e-06
3890.22	1.80319e-06
3898.9	2.16239e-06
3907.58	2.33307e-06
3916.26	2.78177e-06
3924.94	2.92563e-06
3933.61	2.50386e-06
3942.29	2.02977e-06
3950.97	1.82578e-06
3959.65	1.98999e-06
3968.33	2.17039e-06
