Infrared Spectrum: tert-Butyl Methyl Ether
Formula: ( C H3)3 C O C H3
CAS: 1634-04-4
State: gas
Melting point: -109 C
Boiling point: 55.2 C
Class: IUPAC A
Instrument: IFS66V (Bruker)
Instrument parameters: KBr Beam splitter; MCT Detector; Multipass cell
Sampling: 1 L/min Flow
Resolution: 0.1250
Temperature: 23 C
Pressure: 101.3 kPa
Origin: NIST, Anayltical Chemistry Division, 301-975-3108
cm-1	(micromol/mol)-1m-1 (base 10)
574.988	-8.07043e-07
583.546	-1.34826e-07
592.103	-2.30323e-07
600.661	2.52414e-07
609.219	7.87236e-08
617.776	3.0292e-07
626.334	1.27747e-08
634.891	1.94585e-07
643.449	6.03938e-08
652.007	1.3152e-07
660.564	1.46402e-07
669.122	1.95378e-07
677.68	3.21263e-07
686.237	5.66347e-07
694.795	8.83022e-07
703.352	3.91179e-06
711.91	1.69894e-05
720.468	2.55216e-05
729.025	2.50677e-05
737.583	2.13218e-05
746.141	3.99897e-06
754.698	1.15513e-06
763.256	1.18719e-06
771.813	1.35939e-06
780.371	1.08455e-06
788.929	9.5734e-07
797.486	1.0933e-06
806.044	1.33304e-06
814.602	1.52295e-06
823.159	3.00638e-06
831.717	1.11842e-05
840.274	4.59927e-05
848.832	8.2982e-05
857.39	0.000122751
865.947	8.24011e-05
874.505	1.73224e-05
883.063	2.0855e-06
891.62	1.22718e-06
900.178	1.19837e-06
908.735	1.52899e-06
917.293	1.34382e-06
925.851	1.05262e-06
934.408	1.09234e-06
942.966	1.07505e-06
951.524	1.03619e-06
960.081	1.3301e-06
968.639	1.59747e-06
977.196	2.30222e-06
985.754	3.07207e-06
994.312	4.42705e-06
1002.87	9.32295e-06
1011.43	2.41034e-05
1019.98	3.37459e-05
1028.54	2.94957e-05
1037.1	1.82807e-05
1045.66	7.34199e-06
1054.22	9.63715e-06
1062.77	2.1333e-05
1071.33	6.92109e-05
1079.89	0.000235933
1088.45	0.000463985
1097	0.000610464
1105.56	0.000418531
1114.12	0.000114643
1122.68	2.88432e-05
1131.23	1.82057e-05
1139.79	1.7996e-05
1148.35	2.14962e-05
1156.91	2.90604e-05
1165.46	3.31185e-05
1174.02	4.06275e-05
1182.58	6.21284e-05
1191.14	0.000143743
1199.69	0.000327361
1208.25	0.000547698
1216.81	0.000511197
1225.37	0.000255882
1233.93	0.000162023
1242.48	0.000118997
1251.04	0.000107997
1259.6	9.56739e-05
1268.16	8.30676e-05
1276.71	4.24044e-05
1285.27	1.74072e-05
1293.83	7.16341e-06
1302.39	4.07693e-06
1310.94	3.14995e-06
1319.5	2.78317e-06
1328.06	2.85292e-06
1336.62	4.54301e-06
1345.17	1.93371e-05
1353.73	9.98902e-05
1362.29	0.000175408
1370.85	0.00027875
1379.4	0.00021006
1387.96	9.19934e-05
1396.52	5.93687e-05
1405.08	3.00382e-05
1413.64	8.00855e-06
1422.19	8.91345e-06
1430.75	1.08401e-05
1439.31	1.52604e-05
1447.87	2.92857e-05
1456.42	4.85531e-05
1464.98	8.54106e-05
1473.54	9.85965e-05
1482.1	8.0263e-05
1490.65	4.82213e-05
1499.21	2.45122e-05
1507.77	8.46012e-06
1516.33	4.95302e-06
1524.88	4.27721e-06
1533.44	4.30665e-06
1542	5.27107e-06
1550.56	4.67065e-06
1559.11	5.26252e-06
1567.67	6.64301e-06
1576.23	9.51571e-06
1584.79	6.23532e-06
1593.35	3.71029e-06
1601.9	1.78792e-06
1610.46	1.65107e-06
1619.02	1.97317e-06
1627.58	2.5131e-06
1636.13	2.43273e-06
1644.69	2.13711e-06
1653.25	3.64378e-06
1661.81	1.33309e-06
1670.36	1.33048e-06
1678.92	1.41375e-06
1687.48	2.11327e-06
1696.04	5.10742e-06
1704.59	4.96037e-06
1713.15	3.95906e-06
1721.71	2.67759e-06
1730.27	1.47104e-06
1738.83	1.34494e-06
1747.38	1.38006e-06
1755.94	1.22092e-06
1764.5	1.07911e-06
1773.06	1.10717e-06
1781.61	9.03849e-07
1790.17	1.17794e-06
1798.73	2.08938e-06
1807.29	3.41787e-06
1815.84	4.33114e-06
1824.4	4.11289e-06
1832.96	2.58139e-06
1841.52	1.18766e-06
1850.07	9.67794e-07
1858.63	8.55748e-07
1867.19	9.80267e-07
1875.75	1.00582e-06
1884.3	1.05019e-06
1892.86	1.14525e-06
1901.42	1.21383e-06
1909.98	1.52524e-06
1918.54	2.35684e-06
1927.09	4.20953e-06
1935.65	6.7506e-06
1944.21	8.4552e-06
1952.77	7.51268e-06
1961.32	4.24138e-06
1969.88	1.1733e-06
1978.44	6.39473e-07
1987	5.38713e-07
1995.55	5.21463e-07
2004.11	5.52482e-07
2012.67	6.47813e-07
2021.23	7.14934e-07
2029.78	8.61081e-07
2038.34	1.60079e-06
2046.9	2.92859e-06
2055.46	4.19962e-06
2064.01	4.06063e-06
2072.57	3.04425e-06
2081.13	1.8752e-06
2089.69	2.52248e-06
2098.25	2.3197e-06
2106.8	2.33103e-06
2115.36	2.21163e-06
2123.92	2.13559e-06
2132.48	1.32613e-06
2141.03	1.21173e-06
2149.59	1.9487e-06
2158.15	4.14203e-06
2166.71	7.4018e-06
2175.26	1.01243e-05
2183.82	9.30798e-06
2192.38	5.18135e-06
2200.94	1.69026e-06
2209.49	1.19301e-06
2218.05	1.08165e-06
2226.61	1.24084e-06
2235.17	1.1117e-06
2243.72	9.92206e-07
2252.28	1.18515e-06
2260.84	1.6946e-06
2269.4	2.4147e-06
2277.96	2.60921e-06
2286.51	2.31972e-06
2295.07	1.96843e-06
2303.63	1.47329e-06
2312.19	1.09193e-06
2320.74	7.27365e-07
2329.3	7.33698e-07
2337.86	6.82743e-07
2346.42	1.47715e-06
2354.97	2.01655e-06
2363.53	2.20665e-06
2372.09	2.00497e-06
2380.65	1.716e-06
2389.2	1.55152e-06
2397.76	1.27155e-06
2406.32	1.25016e-06
2414.88	1.35187e-06
2423.44	1.214e-06
2431.99	7.29782e-07
2440.55	5.04736e-07
2449.11	3.82621e-07
2457.67	5.01445e-07
2466.22	6.79822e-07
2474.78	8.13784e-07
2483.34	7.53551e-07
2491.9	5.98102e-07
2500.45	5.14919e-07
2509.01	4.43826e-07
2517.57	3.05636e-07
2526.13	4.14251e-07
2534.68	4.82714e-07
2543.24	7.98303e-07
2551.8	1.06631e-06
2560.36	1.42808e-06
2568.91	2.08971e-06
2577.47	2.82735e-06
2586.03	3.83651e-06
2594.59	4.06512e-06
2603.15	4.3203e-06
2611.7	4.60417e-06
2620.26	5.01609e-06
2628.82	4.68741e-06
2637.38	4.2692e-06
2645.93	4.13261e-06
2654.49	3.92079e-06
2663.05	3.65506e-06
2671.61	3.34407e-06
2680.16	3.13487e-06
2688.72	2.98846e-06
2697.28	2.88962e-06
2705.84	3.51797e-06
2714.39	4.62761e-06
2722.95	6.31299e-06
2731.51	6.95514e-06
2740.07	6.8525e-06
2748.62	6.2667e-06
2757.18	5.44604e-06
2765.74	5.6656e-06
2774.3	6.11732e-06
2782.86	7.00433e-06
2791.41	9.0739e-06
2799.97	1.3283e-05
2808.53	2.53254e-05
2817.09	6.92939e-05
2825.64	0.000136767
2834.2	0.000173215
2842.76	0.000118413
2851.32	6.43904e-05
2859.87	4.4963e-05
2868.43	6.60002e-05
2876.99	0.000106914
2885.55	0.000148245
2894.1	0.000205428
2902.66	0.000249615
2911.22	0.000271941
2919.78	0.000285924
2928.34	0.000274313
2936.89	0.000288722
2945.45	0.000309391
2954.01	0.000298435
2962.57	0.000349597
2971.12	0.000632609
2979.68	0.000856577
2988.24	0.000934121
2996.8	0.000494392
3005.35	0.000131469
3013.91	3.7625e-05
3022.47	2.19675e-05
3031.03	1.61299e-05
3039.58	1.2933e-05
3048.14	1.10638e-05
3056.7	1.00911e-05
3065.26	9.70572e-06
3073.81	9.37122e-06
3082.37	8.51182e-06
3090.93	7.13969e-06
3099.49	6.04609e-06
3108.05	5.49443e-06
3116.6	5.09018e-06
3125.16	5.06768e-06
3133.72	5.40669e-06
3142.28	6.00906e-06
3150.83	6.40176e-06
3159.39	6.12528e-06
3167.95	5.73057e-06
3176.51	5.70622e-06
3185.06	5.96549e-06
3193.62	6.15234e-06
3202.18	5.91261e-06
3210.74	5.99226e-06
3219.29	6.21582e-06
3227.85	6.97852e-06
3236.41	6.87725e-06
3244.97	6.08079e-06
3253.52	4.56842e-06
3262.08	3.14647e-06
3270.64	1.93832e-06
3279.2	1.58525e-06
3287.76	1.25458e-06
3296.31	1.14596e-06
3304.87	1.42306e-06
3313.43	1.88983e-06
3321.99	2.31203e-06
3330.54	2.23065e-06
3339.1	1.98893e-06
3347.66	1.76864e-06
3356.22	1.47682e-06
3364.77	9.94274e-07
3373.33	1.22406e-06
3381.89	1.74676e-06
3390.45	2.15107e-06
3399	1.82514e-06
3407.56	1.33335e-06
3416.12	1.04628e-06
3424.68	1.2816e-06
3433.23	1.46605e-06
3441.79	1.51546e-06
3450.35	1.22422e-06
3458.91	7.94671e-07
3467.47	7.17022e-07
3476.02	9.34928e-07
3484.58	1.12728e-06
3493.14	7.78089e-07
3501.7	4.04459e-07
3510.25	3.02731e-07
3518.81	1.5565e-07
3527.37	7.38106e-08
3535.93	3.33546e-08
3544.48	2.5131e-08
3553.04	2.96621e-08
3561.6	-2.7081e-08
3570.16	1.21408e-07
3578.71	7.49838e-08
3587.27	2.00426e-07
3595.83	7.4067e-08
3604.39	1.47616e-07
3612.95	1.3596e-07
3621.5	1.55204e-07
3630.06	2.56647e-07
3638.62	1.54786e-07
3647.18	4.51729e-07
3655.73	1.49928e-07
3664.29	8.07318e-08
3672.85	1.44796e-07
3681.41	2.07746e-07
3689.96	2.0722e-07
3698.52	3.49826e-07
3707.08	4.76895e-07
3715.64	5.11932e-07
3724.19	4.54065e-07
3732.75	3.25416e-07
3741.31	4.65502e-07
3749.87	4.891e-07
3758.42	2.81152e-07
3766.98	3.77464e-07
3775.54	5.68808e-07
3784.1	4.70272e-07
3792.66	5.27817e-07
3801.21	1.12183e-06
3809.77	7.10528e-07
3818.33	7.29369e-07
3826.89	9.93072e-07
3835.44	1.10329e-06
3844	1.05329e-06
3852.56	1.06635e-06
3861.12	9.40478e-07
3869.67	1.01351e-06
3878.23	1.33087e-06
3886.79	1.55036e-06
3895.35	1.93583e-06
3903.9	2.32303e-06
3912.46	2.57821e-06
3921.02	2.91486e-06
3929.58	2.74088e-06
3938.13	2.20755e-06
3946.69	1.91275e-06
3955.25	1.8401e-06
3963.81	2.11563e-06
3972.37	2.2233e-06
