Infrared Spectrum: tert-Butyl Methyl Ether
Formula: ( C H3)3 C O C H3
CAS: 1634-04-4
State: gas
Melting point: -109 C
Boiling point: 55.2 C
Class: IUPAC A
Instrument: IFS66V (Bruker)
Instrument parameters: KBr Beam splitter; MCT Detector; Multipass cell
Sampling: 1 L/min Flow
Resolution: 0.1250
Temperature: 23 C
Pressure: 101.3 kPa
Origin: NIST, Anayltical Chemistry Division, 301-975-3108
cm-1	(micromol/mol)-1m-1 (base 10)
574.988	-8.0754e-07
583.546	-1.82968e-07
592.103	-3.28988e-07
600.661	2.13221e-07
609.219	6.32659e-08
617.776	2.5762e-07
626.334	-2.76776e-08
634.891	1.91931e-07
643.449	2.25554e-09
652.007	1.51779e-07
660.564	1.02689e-07
669.122	2.20337e-07
677.68	3.0029e-07
686.237	5.70459e-07
694.795	9.09626e-07
703.352	3.88522e-06
711.91	1.70143e-05
720.468	2.54921e-05
729.025	2.50373e-05
737.583	2.13475e-05
746.141	3.99813e-06
754.698	1.16112e-06
763.256	1.17809e-06
771.813	1.31412e-06
780.371	1.07426e-06
788.929	9.65684e-07
797.486	1.05938e-06
806.044	1.33151e-06
814.602	1.48861e-06
823.159	2.9498e-06
831.717	1.11407e-05
840.274	4.60234e-05
848.832	8.29939e-05
857.39	0.000123083
865.947	8.25509e-05
874.505	1.72291e-05
883.063	2.04126e-06
891.62	1.20566e-06
900.178	1.18096e-06
908.735	1.50526e-06
917.293	1.33776e-06
925.851	1.05453e-06
934.408	1.06314e-06
942.966	1.06138e-06
951.524	1.02454e-06
960.081	1.31293e-06
968.639	1.56298e-06
977.196	2.29358e-06
985.754	3.06658e-06
994.312	4.41541e-06
1002.87	9.29149e-06
1011.43	2.40983e-05
1019.98	3.37302e-05
1028.54	2.94553e-05
1037.1	1.82329e-05
1045.66	7.24821e-06
1054.22	9.52905e-06
1062.77	2.1169e-05
1071.33	6.89771e-05
1079.89	0.000235959
1088.45	0.000464355
1097	0.000611859
1105.56	0.000419034
1114.12	0.00011432
1122.68	2.86351e-05
1131.23	1.80777e-05
1139.79	1.78879e-05
1148.35	2.14189e-05
1156.91	2.8995e-05
1165.46	3.30576e-05
1174.02	4.05241e-05
1182.58	6.19691e-05
1191.14	0.000143569
1199.69	0.000327612
1208.25	0.000548466
1216.81	0.000511906
1225.37	0.000255673
1233.93	0.000161923
1242.48	0.000118892
1251.04	0.000107921
1259.6	9.56378e-05
1268.16	8.31327e-05
1276.71	4.2359e-05
1285.27	1.73569e-05
1293.83	7.10205e-06
1302.39	4.03449e-06
1310.94	3.11346e-06
1319.5	2.72429e-06
1328.06	2.79229e-06
1336.62	4.45594e-06
1345.17	1.91779e-05
1353.73	9.98911e-05
1362.29	0.000175253
1370.85	0.000279363
1379.4	0.000210336
1387.96	9.15879e-05
1396.52	5.93076e-05
1405.08	2.9966e-05
1413.64	7.93525e-06
1422.19	8.87065e-06
1430.75	1.08162e-05
1439.31	1.5204e-05
1447.87	2.92681e-05
1456.42	4.85471e-05
1464.98	8.55245e-05
1473.54	9.87188e-05
1482.1	8.03225e-05
1490.65	4.81979e-05
1499.21	2.44712e-05
1507.77	8.41409e-06
1516.33	4.91907e-06
1524.88	4.26674e-06
1533.44	4.28734e-06
1542	5.30852e-06
1550.56	4.65901e-06
1559.11	5.23815e-06
1567.67	6.6338e-06
1576.23	9.58774e-06
1584.79	6.22965e-06
1593.35	3.71231e-06
1601.9	1.78338e-06
1610.46	1.64555e-06
1619.02	1.96592e-06
1627.58	2.51105e-06
1636.13	2.41837e-06
1644.69	2.12971e-06
1653.25	3.70098e-06
1661.81	1.32786e-06
1670.36	1.32361e-06
1678.92	1.40335e-06
1687.48	2.11663e-06
1696.04	5.24239e-06
1704.59	4.97662e-06
1713.15	3.95002e-06
1721.71	2.66957e-06
1730.27	1.47033e-06
1738.83	1.33071e-06
1747.38	1.3691e-06
1755.94	1.21134e-06
1764.5	1.07152e-06
1773.06	1.10108e-06
1781.61	8.96932e-07
1790.17	1.1715e-06
1798.73	2.08696e-06
1807.29	3.41611e-06
1815.84	4.33011e-06
1824.4	4.11925e-06
1832.96	2.58307e-06
1841.52	1.17989e-06
1850.07	9.55376e-07
1858.63	8.55164e-07
1867.19	9.79463e-07
1875.75	9.94853e-07
1884.3	1.04133e-06
1892.86	1.14747e-06
1901.42	1.20909e-06
1909.98	1.52364e-06
1918.54	2.35628e-06
1927.09	4.19755e-06
1935.65	6.75249e-06
1944.21	8.47593e-06
1952.77	7.50729e-06
1961.32	4.25342e-06
1969.88	1.16613e-06
1978.44	6.37827e-07
1987	5.35426e-07
1995.55	5.20023e-07
2004.11	5.56113e-07
2012.67	6.45763e-07
2021.23	7.13733e-07
2029.78	8.56461e-07
2038.34	1.59124e-06
2046.9	2.92606e-06
2055.46	4.21266e-06
2064.01	4.05019e-06
2072.57	3.04201e-06
2081.13	1.87386e-06
2089.69	2.52847e-06
2098.25	2.31301e-06
2106.8	2.32626e-06
2115.36	2.21442e-06
2123.92	2.13054e-06
2132.48	1.32329e-06
2141.03	1.20853e-06
2149.59	1.94079e-06
2158.15	4.16127e-06
2166.71	7.40244e-06
2175.26	1.01334e-05
2183.82	9.3184e-06
2192.38	5.16847e-06
2200.94	1.69418e-06
2209.49	1.18543e-06
2218.05	1.07564e-06
2226.61	1.2367e-06
2235.17	1.10803e-06
2243.72	9.87222e-07
2252.28	1.18456e-06
2260.84	1.6865e-06
2269.4	2.41987e-06
2277.96	2.6028e-06
2286.51	2.31984e-06
2295.07	1.96105e-06
2303.63	1.47298e-06
2312.19	1.09093e-06
2320.74	7.37857e-07
2329.3	7.29455e-07
2337.86	6.83906e-07
2346.42	1.48522e-06
2354.97	2.03453e-06
2363.53	2.21589e-06
2372.09	2.01541e-06
2380.65	1.72178e-06
2389.2	1.55937e-06
2397.76	1.27163e-06
2406.32	1.24814e-06
2414.88	1.34422e-06
2423.44	1.21412e-06
2431.99	7.17739e-07
2440.55	5.01596e-07
2449.11	3.79243e-07
2457.67	4.95517e-07
2466.22	6.91407e-07
2474.78	8.18941e-07
2483.34	7.59308e-07
2491.9	6.11276e-07
2500.45	5.08587e-07
2509.01	4.52622e-07
2517.57	3.03848e-07
2526.13	4.1824e-07
2534.68	4.78046e-07
2543.24	7.9086e-07
2551.8	1.06289e-06
2560.36	1.41697e-06
2568.91	2.07599e-06
2577.47	2.81732e-06
2586.03	3.83816e-06
2594.59	4.06768e-06
2603.15	4.31668e-06
2611.7	4.62386e-06
2620.26	4.99124e-06
2628.82	4.68172e-06
2637.38	4.26749e-06
2645.93	4.13037e-06
2654.49	3.92995e-06
2663.05	3.64957e-06
2671.61	3.32404e-06
2680.16	3.14006e-06
2688.72	2.97874e-06
2697.28	2.88613e-06
2705.84	3.51167e-06
2714.39	4.61869e-06
2722.95	6.31321e-06
2731.51	6.96267e-06
2740.07	6.84252e-06
2748.62	6.26813e-06
2757.18	5.43731e-06
2765.74	5.65055e-06
2774.3	6.0927e-06
2782.86	6.97717e-06
2791.41	9.05076e-06
2799.97	1.32313e-05
2808.53	2.52462e-05
2817.09	6.92833e-05
2825.64	0.000136895
2834.2	0.000173552
2842.76	0.000118476
2851.32	6.43098e-05
2859.87	4.48091e-05
2868.43	6.59152e-05
2876.99	0.000106855
2885.55	0.000148185
2894.1	0.000205488
2902.66	0.000249632
2911.22	0.000271918
2919.78	0.00028606
2928.34	0.000274269
2936.89	0.000288723
2945.45	0.00030941
2954.01	0.000298245
2962.57	0.000349191
2971.12	0.000632816
2979.68	0.00085605
2988.24	0.000934355
2996.8	0.000494607
3005.35	0.000130912
3013.91	3.73178e-05
3022.47	2.17952e-05
3031.03	1.60176e-05
3039.58	1.28709e-05
3048.14	1.10073e-05
3056.7	1.00404e-05
3065.26	9.6834e-06
3073.81	9.34149e-06
3082.37	8.48527e-06
3090.93	7.1293e-06
3099.49	6.02719e-06
3108.05	5.4869e-06
3116.6	5.05499e-06
3125.16	5.05377e-06
3133.72	5.4131e-06
3142.28	6.01656e-06
3150.83	6.38315e-06
3159.39	6.11182e-06
3167.95	5.72439e-06
3176.51	5.69653e-06
3185.06	5.96099e-06
3193.62	6.14494e-06
3202.18	5.91046e-06
3210.74	5.99609e-06
3219.29	6.208e-06
3227.85	6.96133e-06
3236.41	6.85719e-06
3244.97	6.07251e-06
3253.52	4.56141e-06
3262.08	3.13186e-06
3270.64	1.92362e-06
3279.2	1.57182e-06
3287.76	1.23884e-06
3296.31	1.14148e-06
3304.87	1.40707e-06
3313.43	1.88974e-06
3321.99	2.30674e-06
3330.54	2.25302e-06
3339.1	1.98277e-06
3347.66	1.78634e-06
3356.22	1.46756e-06
3364.77	1.02487e-06
3373.33	1.21887e-06
3381.89	1.71427e-06
3390.45	2.12829e-06
3399	1.81187e-06
3407.56	1.34576e-06
3416.12	1.01975e-06
3424.68	1.27136e-06
3433.23	1.47493e-06
3441.79	1.48968e-06
3450.35	1.21565e-06
3458.91	7.7546e-07
3467.47	7.2538e-07
3476.02	9.48871e-07
3484.58	1.12517e-06
3493.14	8.07603e-07
3501.7	4.19479e-07
3510.25	2.98973e-07
3518.81	1.56099e-07
3527.37	7.31794e-08
3535.93	4.45905e-08
3544.48	3.43896e-08
3553.04	1.16724e-08
3561.6	-2.72229e-08
3570.16	1.14792e-07
3578.71	8.59632e-08
3587.27	1.63886e-07
3595.83	8.84497e-08
3604.39	1.44347e-07
3612.95	1.47801e-07
3621.5	1.42135e-07
3630.06	2.66852e-07
3638.62	1.39707e-07
3647.18	4.61844e-07
3655.73	1.40009e-07
3664.29	7.91256e-08
3672.85	1.49929e-07
3681.41	2.11431e-07
3689.96	2.21857e-07
3698.52	3.66142e-07
3707.08	4.68849e-07
3715.64	4.98757e-07
3724.19	4.56739e-07
3732.75	3.08432e-07
3741.31	4.54778e-07
3749.87	4.67054e-07
3758.42	2.54992e-07
3766.98	3.57491e-07
3775.54	5.65734e-07
3784.1	4.69657e-07
3792.66	5.01991e-07
3801.21	1.1273e-06
3809.77	7.09064e-07
3818.33	7.40447e-07
3826.89	1.01835e-06
3835.44	1.09364e-06
3844	1.04205e-06
3852.56	1.06768e-06
3861.12	9.40829e-07
3869.67	9.97454e-07
3878.23	1.31166e-06
3886.79	1.53264e-06
3895.35	1.94429e-06
3903.9	2.32514e-06
3912.46	2.58134e-06
3921.02	2.91254e-06
3929.58	2.74508e-06
3938.13	2.21202e-06
3946.69	1.91992e-06
3955.25	1.81923e-06
3963.81	2.11754e-06
3972.37	2.21088e-06
