Infrared Spectrum: tert-Butyl Methyl Ether
Formula: ( C H3)3 C O C H3
CAS: 1634-04-4
State: gas
Melting point: -109 C
Boiling point: 55.2 C
Class: IUPAC A
Instrument: IFS66V (Bruker)
Instrument parameters: KBr Beam splitter; MCT Detector; Multipass cell
Sampling: 1 L/min Flow
Resolution: 0.9640
Temperature: 23 C
Pressure: 101.3 kPa
Origin: NIST, Anayltical Chemistry Division, 301-975-3108
cm-1	(micromol/mol)-1m-1 (base 10)
575.169	5.92114e-08
583.847	5.56444e-08
592.525	1.16442e-07
601.203	1.73622e-08
609.882	2.94447e-07
618.56	1.34825e-07
627.238	1.4311e-07
635.916	4.20603e-08
644.594	8.69836e-08
653.272	1.6375e-07
661.951	1.77894e-07
670.629	2.39281e-07
679.307	4.39557e-07
687.985	5.14866e-07
696.663	1.16708e-06
705.341	5.91471e-06
714.019	2.0995e-05
722.698	3.29423e-05
731.376	2.53176e-05
740.054	1.45697e-05
748.732	2.4767e-06
757.41	1.13169e-06
766.088	1.004e-06
774.767	1.25189e-06
783.445	1.05721e-06
792.123	1.08299e-06
800.801	1.07553e-06
809.479	1.49624e-06
818.157	1.95215e-06
826.835	4.83825e-06
835.514	2.20833e-05
844.192	6.85102e-05
852.87	0.000111615
861.548	8.16126e-05
870.226	4.66396e-05
878.904	5.3288e-06
887.583	1.37135e-06
896.261	1.2105e-06
904.939	1.66991e-06
913.617	1.34225e-06
922.295	1.30937e-06
930.973	1.09667e-06
939.651	1.01834e-06
948.33	1.0858e-06
957.008	1.19273e-06
965.686	1.39544e-06
974.364	1.99362e-06
983.042	2.79878e-06
991.72	3.95291e-06
1000.4	7.26941e-06
1009.08	1.91048e-05
1017.75	3.44735e-05
1026.43	3.09313e-05
1035.11	2.3241e-05
1043.79	8.04743e-06
1052.47	8.50023e-06
1061.15	1.73859e-05
1069.82	5.48897e-05
1078.5	0.000198092
1087.18	0.000436716
1095.86	0.000587246
1104.54	0.000435167
1113.21	0.000138936
1121.89	3.08542e-05
1130.57	1.84034e-05
1139.25	1.76953e-05
1147.93	2.12336e-05
1156.61	2.90138e-05
1165.28	3.29172e-05
1173.96	4.04109e-05
1182.64	6.21634e-05
1191.32	0.000146658
1200	0.000333495
1208.67	0.000570819
1217.35	0.000516653
1226.03	0.000236362
1234.71	0.000164026
1243.39	0.000115815
1252.07	0.000107709
1260.74	9.40737e-05
1269.42	7.07051e-05
1278.1	3.7257e-05
1286.78	1.45165e-05
1295.46	6.27198e-06
1304.13	3.72278e-06
1312.81	3.01097e-06
1321.49	2.72949e-06
1330.17	2.95507e-06
1338.85	5.93419e-06
1347.52	3.16346e-05
1356.2	0.000135805
1364.88	0.000229333
1373.56	0.000193024
1382.24	0.000169956
1390.92	0.000157434
1399.59	6.6828e-05
1408.27	1.46128e-05
1416.95	7.87843e-06
1425.63	9.61094e-06
1434.31	1.1836e-05
1442.98	1.92665e-05
1451.66	3.70989e-05
1460.34	6.55072e-05
1469.02	8.49439e-05
1477.7	9.26306e-05
1486.38	7.4663e-05
1495.05	3.54979e-05
1503.73	1.38014e-05
1512.41	5.92848e-06
1521.09	5.10345e-06
1529.77	4.08849e-06
1538.44	4.28523e-06
1547.12	4.50292e-06
1555.8	4.73452e-06
1564.48	6.10301e-06
1573.16	7.24453e-06
1581.83	6.8253e-06
1590.51	5.27827e-06
1599.19	2.02326e-06
1607.87	1.65443e-06
1616.55	2.9587e-06
1625.23	2.19733e-06
1633.9	2.3918e-06
1642.58	2.30415e-06
1651.26	1.87269e-06
1659.94	1.32753e-06
1668.62	1.22201e-06
1677.29	1.36722e-06
1685.97	2.14287e-06
1694.65	3.46351e-06
1703.33	4.5493e-06
1712.01	4.04103e-06
1720.69	3.00893e-06
1729.36	1.39388e-06
1738.04	1.25174e-06
1746.72	1.30831e-06
1755.4	1.18606e-06
1764.08	1.08788e-06
1772.75	1.69113e-06
1781.43	8.46877e-07
1790.11	1.13042e-06
1798.79	2.0631e-06
1807.47	3.46514e-06
1816.15	4.31202e-06
1824.82	4.08811e-06
1833.5	2.50526e-06
1842.18	1.15579e-06
1850.86	9.74197e-07
1859.54	8.77272e-07
1868.21	9.95719e-07
1876.89	1.0074e-06
1885.57	1.07437e-06
1894.25	1.13325e-06
1902.93	1.22343e-06
1911.6	1.55148e-06
1920.28	2.65764e-06
1928.96	4.77268e-06
1937.64	7.2667e-06
1946.32	8.25967e-06
1955	6.50157e-06
1963.67	3.16564e-06
1972.35	8.82334e-07
1981.03	6.24356e-07
1989.71	5.74327e-07
1998.39	5.12958e-07
2007.06	5.41323e-07
2015.74	6.21791e-07
2024.42	7.54624e-07
2033.1	1.09525e-06
2041.78	2.04032e-06
2050.46	3.52169e-06
2059.13	4.68782e-06
2067.81	4.02531e-06
2076.49	2.07931e-06
2085.17	2.00059e-06
2093.85	2.57828e-06
2102.52	2.47353e-06
2111.2	2.35735e-06
2119.88	2.47777e-06
2128.56	1.64024e-06
2137.24	1.18838e-06
2145.91	1.55272e-06
2154.59	3.1602e-06
2163.27	6.00933e-06
2171.95	9.2134e-06
2180.63	1.05047e-05
2189.31	7.13497e-06
2197.98	2.38596e-06
2206.66	1.14968e-06
2215.34	1.03213e-06
2224.02	1.1683e-06
2232.7	1.17062e-06
2241.37	8.99189e-07
2250.05	1.0688e-06
2258.73	1.52704e-06
2267.41	2.31747e-06
2276.09	2.60822e-06
2284.77	2.43925e-06
2293.44	2.01357e-06
2302.12	1.56766e-06
2310.8	1.06032e-06
2319.48	7.14674e-07
2328.16	6.33242e-07
2336.83	1.10647e-06
2345.51	1.40704e-06
2354.19	1.67985e-06
2362.87	1.53318e-06
2371.55	1.74995e-06
2380.23	1.74464e-06
2388.9	1.58869e-06
2397.58	1.26792e-06
2406.26	1.20807e-06
2414.94	1.32195e-06
2423.62	1.21937e-06
2432.29	6.86969e-07
2440.97	4.61413e-07
2449.65	4.43164e-07
2458.33	5.59929e-07
2467.01	7.33367e-07
2475.68	8.41375e-07
2484.36	7.87727e-07
2493.04	5.82035e-07
2501.72	4.83428e-07
2510.4	3.82972e-07
2519.08	3.74091e-07
2527.75	4.05278e-07
2536.43	5.57126e-07
2545.11	8.33542e-07
2553.79	1.1289e-06
2562.47	1.55915e-06
2571.14	2.26697e-06
2579.82	3.07365e-06
2588.5	3.91398e-06
2597.18	4.15581e-06
2605.86	4.37616e-06
2614.54	4.73177e-06
2623.21	5.02646e-06
2631.89	4.51035e-06
2640.57	4.18783e-06
2649.25	3.93383e-06
2657.93	3.80017e-06
2666.6	3.45375e-06
2675.28	3.16496e-06
2683.96	2.9621e-06
2692.64	2.86415e-06
2701.32	3.03121e-06
2709.99	3.88605e-06
2718.67	5.66968e-06
2727.35	7.00731e-06
2736.03	7.0319e-06
2744.71	6.31795e-06
2753.39	5.52909e-06
2762.06	5.59969e-06
2770.74	5.7736e-06
2779.42	6.36185e-06
2788.1	8.19105e-06
2796.78	1.12805e-05
2805.45	1.90922e-05
2814.13	4.92568e-05
2822.81	0.000106043
2831.49	0.000133794
2840.17	0.000122981
2848.85	8.44463e-05
2857.52	4.36956e-05
2866.2	5.84358e-05
2874.88	9.58487e-05
2883.56	0.000138947
2892.24	0.000192998
2900.91	0.000241619
2909.59	0.000268787
2918.27	0.000291626
2926.95	0.000275213
2935.63	0.000284993
2944.31	0.000307743
2952.98	0.000304182
2961.66	0.000331539
2970.34	0.000600156
2979.02	0.000836126
2987.7	0.00101981
2996.37	0.00051474
3005.05	0.000138388
3013.73	3.78802e-05
3022.41	2.18328e-05
3031.09	1.59636e-05
3039.76	1.27804e-05
3048.44	1.09673e-05
3057.12	9.99385e-06
3065.8	9.70213e-06
3074.48	9.24849e-06
3083.16	8.35801e-06
3091.83	7.0385e-06
3100.51	5.92007e-06
3109.19	5.31712e-06
3117.87	5.0192e-06
3126.55	5.09567e-06
3135.22	5.40063e-06
3143.9	6.10728e-06
3152.58	6.35206e-06
3161.26	5.96285e-06
3169.94	5.67056e-06
3178.62	5.72286e-06
3187.29	5.87634e-06
3195.97	6.09226e-06
3204.65	5.93755e-06
3213.33	5.95436e-06
3222.01	6.36098e-06
3230.68	6.971e-06
3239.36	6.82803e-06
3248.04	5.69297e-06
3256.72	4.00891e-06
3265.4	2.68633e-06
3274.07	1.76446e-06
3282.75	1.34905e-06
3291.43	1.17838e-06
3300.11	1.16863e-06
3308.79	1.60721e-06
3317.47	2.176e-06
3326.14	2.19606e-06
3334.82	2.07737e-06
3343.5	1.77294e-06
3352.18	1.52456e-06
3360.86	1.29215e-06
3369.53	1.04292e-06
3378.21	1.57217e-06
3386.89	2.15116e-06
3395.57	2.11881e-06
3404.25	1.57006e-06
3412.93	9.9749e-07
3421.6	9.75615e-07
3430.28	1.39459e-06
3438.96	1.53937e-06
3447.64	1.288e-06
3456.32	8.72357e-07
3464.99	6.50074e-07
3473.67	8.86011e-07
3482.35	1.12857e-06
3491.03	9.88423e-07
3499.71	5.82607e-07
3508.39	3.54712e-07
3517.06	2.3881e-07
3525.74	7.48674e-08
3534.42	7.05018e-08
3543.1	8.38077e-08
3551.78	9.35611e-08
3560.45	5.2765e-08
3569.13	5.74925e-08
3577.81	4.66023e-08
3586.49	2.45148e-07
3595.17	1.60847e-07
3603.84	2.94584e-08
3612.52	3.80945e-07
3621.2	1.19447e-07
3629.88	5.97862e-07
3638.56	1.47763e-07
3647.24	4.23171e-07
3655.91	2.88063e-07
3664.59	1.29235e-07
3673.27	1.0704e-07
3681.95	2.24906e-07
3690.63	3.98317e-07
3699.3	3.98664e-07
3707.98	5.1657e-07
3716.66	3.38727e-07
3725.34	4.35944e-07
3734.02	2.75826e-07
3742.7	2.92272e-07
3751.37	3.27493e-07
3760.05	6.07277e-07
3768.73	4.26156e-07
3777.41	4.48062e-07
3786.09	5.83407e-07
3794.76	4.99134e-07
3803.44	6.52694e-07
3812.12	6.90661e-07
3820.8	1.19791e-06
3829.48	9.78002e-07
3838.16	1.70178e-06
3846.83	8.93538e-07
3855.51	9.50446e-07
3864.19	1.03439e-06
3872.87	1.09116e-06
3881.55	1.4664e-06
3890.22	1.82569e-06
3898.9	2.1523e-06
3907.58	2.333e-06
3916.26	2.83672e-06
3924.94	2.97614e-06
3933.61	2.5104e-06
3942.29	1.96218e-06
3950.97	1.79327e-06
3959.65	1.98271e-06
3968.33	2.21461e-06
