Infrared Spectrum: tert-Butyl Methyl Ether
Formula: ( C H3)3 C O C H3
CAS: 1634-04-4
State: gas
Melting point: -109 C
Boiling point: 55.2 C
Class: IUPAC A
Instrument: IFS66V (Bruker)
Instrument parameters: KBr Beam splitter; MCT Detector; Multipass cell
Sampling: 1 L/min Flow
Resolution: 0.2410
Temperature: 23 C
Pressure: 101.3 kPa
Origin: NIST, Anayltical Chemistry Division, 301-975-3108
cm-1	(micromol/mol)-1m-1 (base 10)
575.048	-3.70821e-07
583.606	-4.799e-07
592.163	-2.81229e-07
600.721	2.019e-07
609.279	-8.16631e-08
617.836	7.95003e-08
626.394	1.21508e-08
634.951	1.88608e-07
643.509	5.2383e-08
652.067	1.31594e-07
660.624	1.48089e-07
669.182	2.72083e-07
677.74	3.01387e-07
686.297	6.80797e-07
694.855	9.68712e-07
703.412	3.9843e-06
711.97	1.72301e-05
720.528	2.55567e-05
729.085	2.49769e-05
737.643	2.12036e-05
746.201	3.97306e-06
754.758	1.20479e-06
763.316	1.1913e-06
771.873	1.24388e-06
780.431	1.04996e-06
788.989	1.00112e-06
797.546	1.0079e-06
806.104	1.29963e-06
814.662	1.54474e-06
823.219	2.8839e-06
831.777	1.1287e-05
840.334	4.64508e-05
848.892	8.30952e-05
857.45	0.000120588
866.007	8.21426e-05
874.565	1.69498e-05
883.123	2.02977e-06
891.68	1.21946e-06
900.238	1.12937e-06
908.795	1.5203e-06
917.353	1.40814e-06
925.911	1.08967e-06
934.468	1.01875e-06
943.026	1.07645e-06
951.584	1.03201e-06
960.141	1.26596e-06
968.699	1.58982e-06
977.256	2.27628e-06
985.814	3.10588e-06
994.372	4.45471e-06
1002.93	9.39083e-06
1011.49	2.4258e-05
1020.04	3.36799e-05
1028.6	2.9445e-05
1037.16	1.80986e-05
1045.72	7.23582e-06
1054.28	9.55215e-06
1062.83	2.12537e-05
1071.39	6.96689e-05
1079.95	0.000237686
1088.51	0.00046627
1097.06	0.00061131
1105.62	0.000418073
1114.18	0.000112849
1122.74	2.85313e-05
1131.29	1.80305e-05
1139.85	1.7891e-05
1148.41	2.14467e-05
1156.97	2.89765e-05
1165.52	3.31283e-05
1174.08	4.05405e-05
1182.64	6.21155e-05
1191.2	0.000144607
1199.75	0.000328893
1208.31	0.000551846
1216.87	0.000512495
1225.43	0.00025391
1233.99	0.000161978
1242.54	0.00011868
1251.1	0.000107901
1259.66	9.55842e-05
1268.22	8.25774e-05
1276.77	4.22055e-05
1285.33	1.72297e-05
1293.89	7.0776e-06
1302.45	4.02173e-06
1311	3.11761e-06
1319.56	2.71534e-06
1328.12	2.80852e-06
1336.68	4.47285e-06
1345.23	1.93743e-05
1353.79	0.000100784
1362.35	0.000175585
1370.91	0.00027657
1379.46	0.000209741
1388.02	9.21473e-05
1396.58	5.97178e-05
1405.14	2.95143e-05
1413.7	7.9577e-06
1422.25	8.88196e-06
1430.81	1.08356e-05
1439.37	1.52686e-05
1447.93	2.94104e-05
1456.48	4.88646e-05
1465.04	8.53974e-05
1473.6	9.84795e-05
1482.16	8.02199e-05
1490.71	4.80792e-05
1499.27	2.42995e-05
1507.83	8.35932e-06
1516.39	4.8668e-06
1524.94	4.2579e-06
1533.5	4.30185e-06
1542.06	5.45079e-06
1550.62	4.6548e-06
1559.18	5.24773e-06
1567.73	6.65331e-06
1576.29	9.0458e-06
1584.85	6.21782e-06
1593.41	3.6949e-06
1601.96	1.77532e-06
1610.52	1.65621e-06
1619.08	1.98547e-06
1627.64	2.59529e-06
1636.19	2.4047e-06
1644.75	2.09356e-06
1653.31	3.55542e-06
1661.87	1.3266e-06
1670.42	1.3202e-06
1678.98	1.42685e-06
1687.54	2.13154e-06
1696.1	4.71336e-06
1704.65	4.88452e-06
1713.21	3.94361e-06
1721.77	2.63412e-06
1730.33	1.45521e-06
1738.89	1.31626e-06
1747.44	1.33794e-06
1756	1.22078e-06
1764.56	1.05939e-06
1773.12	1.08959e-06
1781.67	8.909e-07
1790.23	1.17004e-06
1798.79	2.11058e-06
1807.35	3.41914e-06
1815.9	4.32426e-06
1824.46	4.10989e-06
1833.02	2.59414e-06
1841.58	1.18064e-06
1850.13	9.46057e-07
1858.69	8.76295e-07
1867.25	9.99539e-07
1875.81	9.89798e-07
1884.36	1.02855e-06
1892.92	1.14208e-06
1901.48	1.20319e-06
1910.04	1.51029e-06
1918.6	2.34463e-06
1927.15	4.20414e-06
1935.71	6.74903e-06
1944.27	8.49763e-06
1952.83	7.49076e-06
1961.38	4.22409e-06
1969.94	1.15173e-06
1978.5	6.43244e-07
1987.06	5.36812e-07
1995.61	5.35413e-07
2004.17	5.63889e-07
2012.73	6.55508e-07
2021.29	7.29025e-07
2029.84	8.53524e-07
2038.4	1.59908e-06
2046.96	2.92391e-06
2055.52	4.21155e-06
2064.08	4.03701e-06
2072.63	3.00233e-06
2081.19	1.87534e-06
2089.75	2.54088e-06
2098.31	2.30971e-06
2106.86	2.34013e-06
2115.42	2.3151e-06
2123.98	2.09866e-06
2132.54	1.334e-06
2141.09	1.22184e-06
2149.65	1.95213e-06
2158.21	4.37187e-06
2166.77	7.42334e-06
2175.32	1.01791e-05
2183.88	9.29565e-06
2192.44	5.11115e-06
2201	1.68574e-06
2209.55	1.14849e-06
2218.11	1.0796e-06
2226.67	1.22758e-06
2235.23	1.10271e-06
2243.79	9.68894e-07
2252.34	1.1714e-06
2260.9	1.67291e-06
2269.46	2.41291e-06
2278.02	2.59449e-06
2286.57	2.32047e-06
2295.13	1.93972e-06
2303.69	1.47676e-06
2312.25	1.08278e-06
2320.8	7.43363e-07
2329.36	7.03312e-07
2337.92	7.75004e-07
2346.48	1.53302e-06
2355.03	2.04358e-06
2363.59	2.20437e-06
2372.15	2.00528e-06
2380.71	1.71676e-06
2389.26	1.57174e-06
2397.82	1.30849e-06
2406.38	1.2256e-06
2414.94	1.32137e-06
2423.5	1.19684e-06
2432.05	6.98459e-07
2440.61	4.62472e-07
2449.17	3.88782e-07
2457.73	4.76211e-07
2466.28	6.83262e-07
2474.84	8.39614e-07
2483.4	7.72104e-07
2491.96	6.23166e-07
2500.51	5.08498e-07
2509.07	4.5634e-07
2517.63	3.18349e-07
2526.19	4.29488e-07
2534.74	4.60919e-07
2543.3	7.96484e-07
2551.86	1.05259e-06
2560.42	1.41385e-06
2568.98	2.06301e-06
2577.53	2.80203e-06
2586.09	3.84599e-06
2594.65	4.06325e-06
2603.21	4.32335e-06
2611.76	4.66043e-06
2620.32	4.93238e-06
2628.88	4.6702e-06
2637.44	4.24989e-06
2645.99	4.14456e-06
2654.55	3.9147e-06
2663.11	3.66274e-06
2671.67	3.30255e-06
2680.22	3.15809e-06
2688.78	2.93901e-06
2697.34	2.90267e-06
2705.9	3.46762e-06
2714.45	4.63839e-06
2723.01	6.33079e-06
2731.57	7.01049e-06
2740.13	6.84437e-06
2748.69	6.25144e-06
2757.24	5.46987e-06
2765.8	5.63946e-06
2774.36	6.10723e-06
2782.92	7.00887e-06
2791.47	9.09495e-06
2800.03	1.32678e-05
2808.59	2.54179e-05
2817.15	6.96997e-05
2825.7	0.000138193
2834.26	0.000174733
2842.82	0.000118481
2851.38	6.38994e-05
2859.93	4.48533e-05
2868.49	6.61965e-05
2877.05	0.000107161
2885.61	0.000148474
2894.16	0.000205857
2902.72	0.000249753
2911.28	0.000272124
2919.84	0.000285638
2928.4	0.000274218
2936.95	0.000288817
2945.51	0.000309519
2954.07	0.000297776
2962.63	0.000350238
2971.18	0.000635383
2979.74	0.000860883
2988.3	0.000925397
2996.86	0.000491608
3005.41	0.00012943
3013.97	3.70898e-05
3022.53	2.17115e-05
3031.09	1.59761e-05
3039.64	1.28512e-05
3048.2	1.09958e-05
3056.76	1.00261e-05
3065.32	9.68681e-06
3073.88	9.31596e-06
3082.43	8.44317e-06
3090.99	7.11257e-06
3099.55	6.02369e-06
3108.11	5.45503e-06
3116.66	5.04562e-06
3125.22	5.06268e-06
3133.78	5.40219e-06
3142.34	6.04203e-06
3150.89	6.35977e-06
3159.45	6.10528e-06
3168.01	5.73358e-06
3176.57	5.69333e-06
3185.12	5.9223e-06
3193.68	6.09943e-06
3202.24	5.96801e-06
3210.8	6.02533e-06
3219.35	6.23195e-06
3227.91	6.94013e-06
3236.47	6.90715e-06
3245.03	6.1137e-06
3253.59	4.53959e-06
3262.14	3.09149e-06
3270.7	1.95171e-06
3279.26	1.53298e-06
3287.82	1.26299e-06
3296.37	1.08909e-06
3304.93	1.42053e-06
3313.49	1.86784e-06
3322.05	2.28017e-06
3330.6	2.29076e-06
3339.16	1.95949e-06
3347.72	1.86767e-06
3356.28	1.47897e-06
3364.83	1.07252e-06
3373.39	1.18092e-06
3381.95	1.70656e-06
3390.51	2.04141e-06
3399.06	1.78666e-06
3407.62	1.35876e-06
3416.18	9.92401e-07
3424.74	1.21235e-06
3433.3	1.5328e-06
3441.85	1.41426e-06
3450.41	1.17443e-06
3458.97	7.52927e-07
3467.53	7.5697e-07
3476.08	9.03928e-07
3484.64	1.13724e-06
3493.2	8.7259e-07
3501.76	4.76407e-07
3510.31	2.6606e-07
3518.87	1.64947e-07
3527.43	9.80976e-08
3535.99	7.5253e-08
3544.54	9.55456e-08
3553.1	9.68971e-09
3561.66	7.33049e-10
3570.22	5.57717e-08
3578.78	1.10712e-07
3587.33	1.10438e-07
3595.89	1.21381e-07
3604.45	1.13299e-07
3613.01	1.73507e-07
3621.56	1.06259e-07
3630.12	2.1104e-07
3638.68	9.69862e-08
3647.24	3.99668e-07
3655.79	1.57018e-07
3664.35	9.6928e-08
3672.91	1.85785e-07
3681.47	1.84697e-07
3690.02	2.75794e-07
3698.58	4.1627e-07
3707.14	4.81668e-07
3715.7	4.8601e-07
3724.25	4.37909e-07
3732.81	3.2069e-07
3741.37	4.1474e-07
3749.93	4.24146e-07
3758.49	2.92852e-07
3767.04	4.03281e-07
3775.6	5.13567e-07
3784.16	4.53541e-07
3792.72	5.14531e-07
3801.27	1.47368e-06
3809.83	6.89743e-07
3818.39	7.3672e-07
3826.95	9.78458e-07
3835.5	1.01281e-06
3844.06	1.02537e-06
3852.62	1.07431e-06
3861.18	8.98896e-07
3869.73	1.06584e-06
3878.29	1.27725e-06
3886.85	1.57807e-06
3895.41	1.98562e-06
3903.96	2.4201e-06
3912.52	2.5605e-06
3921.08	2.86559e-06
3929.64	2.74557e-06
3938.2	2.21773e-06
3946.75	1.8762e-06
3955.31	1.80363e-06
3963.87	2.10487e-06
3972.43	2.20744e-06
