Infrared Spectrum: tert-Butyl Methyl Ether
Formula: ( C H3)3 C O C H3
CAS: 1634-04-4
State: gas
Melting point: -109 C
Boiling point: 55.2 C
Class: IUPAC A
Instrument: IFS66V (Bruker)
Instrument parameters: KBr Beam splitter; MCT Detector; Multipass cell
Sampling: 1 L/min Flow
Resolution: 0.1250
Temperature: 23 C
Pressure: 101.3 kPa
Origin: NIST, Anayltical Chemistry Division, 301-975-3108
cm-1	(micromol/mol)-1m-1 (base 10)
574.988	-9.14812e-07
583.546	-1.17479e-07
592.103	-2.75781e-07
600.661	2.606e-07
609.219	8.69054e-08
617.776	3.15564e-07
626.334	-2.19733e-09
634.891	2.00755e-07
643.449	3.41386e-08
652.007	1.46444e-07
660.564	1.32504e-07
669.122	1.93761e-07
677.68	3.01858e-07
686.237	5.57521e-07
694.795	8.79588e-07
703.352	3.88364e-06
711.91	1.69891e-05
720.468	2.54922e-05
729.025	2.50117e-05
737.583	2.13575e-05
746.141	3.96861e-06
754.698	1.13628e-06
763.256	1.17341e-06
771.813	1.35851e-06
780.371	1.08329e-06
788.929	9.42163e-07
797.486	1.078e-06
806.044	1.33087e-06
814.602	1.48224e-06
823.159	2.97664e-06
831.717	1.11314e-05
840.274	4.59888e-05
848.832	8.30124e-05
857.39	0.000123029
865.947	8.25578e-05
874.505	1.72341e-05
883.063	2.03365e-06
891.62	1.20539e-06
900.178	1.18175e-06
908.735	1.5142e-06
917.293	1.32636e-06
925.851	1.03545e-06
934.408	1.08145e-06
942.966	1.06622e-06
951.524	1.01796e-06
960.081	1.32322e-06
968.639	1.57792e-06
977.196	2.29193e-06
985.754	3.05288e-06
994.312	4.39865e-06
1002.87	9.28101e-06
1011.43	2.40923e-05
1019.98	3.37245e-05
1028.54	2.94767e-05
1037.1	1.82376e-05
1045.66	7.25605e-06
1054.22	9.54545e-06
1062.77	2.11776e-05
1071.33	6.89605e-05
1079.89	0.000235928
1088.45	0.00046436
1097	0.000611877
1105.56	0.000419025
1114.12	0.000114271
1122.68	2.86128e-05
1131.23	1.80768e-05
1139.79	1.79008e-05
1148.35	2.14138e-05
1156.91	2.90005e-05
1165.46	3.30459e-05
1174.02	4.05248e-05
1182.58	6.19611e-05
1191.14	0.000143574
1199.69	0.000327559
1208.25	0.000548618
1216.81	0.00051193
1225.37	0.000255624
1233.93	0.000161922
1242.48	0.000118872
1251.04	0.000107955
1259.6	9.56341e-05
1268.16	8.30777e-05
1276.71	4.23652e-05
1285.27	1.73514e-05
1293.83	7.09949e-06
1302.39	4.03167e-06
1310.94	3.11046e-06
1319.5	2.73459e-06
1328.06	2.79674e-06
1336.62	4.46242e-06
1345.17	1.91993e-05
1353.73	9.98786e-05
1362.29	0.000175252
1370.85	0.00027933
1379.4	0.000210374
1387.96	9.16047e-05
1396.52	5.93171e-05
1405.08	2.99663e-05
1413.64	7.92701e-06
1422.19	8.86779e-06
1430.75	1.08069e-05
1439.31	1.5216e-05
1447.87	2.92787e-05
1456.42	4.85382e-05
1464.98	8.55414e-05
1473.54	9.87866e-05
1482.1	8.03044e-05
1490.65	4.81832e-05
1499.21	2.44789e-05
1507.77	8.41327e-06
1516.33	4.9338e-06
1524.88	4.26366e-06
1533.44	4.28091e-06
1542	5.29946e-06
1550.56	4.65871e-06
1559.11	5.23196e-06
1567.67	6.63828e-06
1576.23	9.65619e-06
1584.79	6.23319e-06
1593.35	3.70198e-06
1601.9	1.7803e-06
1610.46	1.6439e-06
1619.02	1.96461e-06
1627.58	2.50563e-06
1636.13	2.41287e-06
1644.69	2.13335e-06
1653.25	3.77351e-06
1661.81	1.32717e-06
1670.36	1.32601e-06
1678.92	1.403e-06
1687.48	2.10688e-06
1696.04	5.20376e-06
1704.59	4.97513e-06
1713.15	3.95285e-06
1721.71	2.67373e-06
1730.27	1.47183e-06
1738.83	1.34011e-06
1747.38	1.3774e-06
1755.94	1.21554e-06
1764.5	1.07823e-06
1773.06	1.08995e-06
1781.61	9.01798e-07
1790.17	1.17272e-06
1798.73	2.08738e-06
1807.29	3.41903e-06
1815.84	4.33486e-06
1824.4	4.11498e-06
1832.96	2.57808e-06
1841.52	1.18437e-06
1850.07	9.63832e-07
1858.63	8.50217e-07
1867.19	9.78848e-07
1875.75	1.00162e-06
1884.3	1.04584e-06
1892.86	1.14605e-06
1901.42	1.21152e-06
1909.98	1.52715e-06
1918.54	2.35337e-06
1927.09	4.20618e-06
1935.65	6.75623e-06
1944.21	8.4659e-06
1952.77	7.51992e-06
1961.32	4.24206e-06
1969.88	1.16469e-06
1978.44	6.35184e-07
1987	5.33181e-07
1995.55	5.15805e-07
2004.11	5.49907e-07
2012.67	6.50087e-07
2021.23	7.13402e-07
2029.78	8.53969e-07
2038.34	1.59876e-06
2046.9	2.93389e-06
2055.46	4.20915e-06
2064.01	4.05512e-06
2072.57	3.0424e-06
2081.13	1.8694e-06
2089.69	2.52284e-06
2098.25	2.31389e-06
2106.8	2.32238e-06
2115.36	2.1966e-06
2123.92	2.12396e-06
2132.48	1.31416e-06
2141.03	1.20507e-06
2149.59	1.94208e-06
2158.15	4.13814e-06
2166.71	7.40547e-06
2175.26	1.0128e-05
2183.82	9.3089e-06
2192.38	5.18146e-06
2200.94	1.68326e-06
2209.49	1.20366e-06
2218.05	1.07745e-06
2226.61	1.24058e-06
2235.17	1.10831e-06
2243.72	9.92752e-07
2252.28	1.18407e-06
2260.84	1.69385e-06
2269.4	2.4148e-06
2277.96	2.60896e-06
2286.51	2.32038e-06
2295.07	1.96764e-06
2303.63	1.47081e-06
2312.19	1.09192e-06
2320.74	7.30444e-07
2329.3	7.38841e-07
2337.86	6.93297e-07
2346.42	1.48268e-06
2354.97	2.02965e-06
2363.53	2.21818e-06
2372.09	2.00867e-06
2380.65	1.71843e-06
2389.2	1.5495e-06
2397.76	1.26801e-06
2406.32	1.25123e-06
2414.88	1.3502e-06
2423.44	1.21365e-06
2431.99	7.2689e-07
2440.55	5.03768e-07
2449.11	3.77509e-07
2457.67	4.97858e-07
2466.22	6.80622e-07
2474.78	8.10678e-07
2483.34	7.47579e-07
2491.9	5.99283e-07
2500.45	5.14071e-07
2509.01	4.47502e-07
2517.57	2.9967e-07
2526.13	4.1364e-07
2534.68	4.77437e-07
2543.24	7.94734e-07
2551.8	1.06464e-06
2560.36	1.41988e-06
2568.91	2.08609e-06
2577.47	2.82447e-06
2586.03	3.83416e-06
2594.59	4.0701e-06
2603.15	4.31566e-06
2611.7	4.60121e-06
2620.26	5.01545e-06
2628.82	4.6865e-06
2637.38	4.26551e-06
2645.93	4.12715e-06
2654.49	3.91626e-06
2663.05	3.64778e-06
2671.61	3.33828e-06
2680.16	3.13774e-06
2688.72	2.98859e-06
2697.28	2.88046e-06
2705.84	3.51678e-06
2714.39	4.61225e-06
2722.95	6.30728e-06
2731.51	6.94528e-06
2740.07	6.84393e-06
2748.62	6.26275e-06
2757.18	5.42817e-06
2765.74	5.65311e-06
2774.3	6.0906e-06
2782.86	6.97306e-06
2791.41	9.03086e-06
2799.97	1.32317e-05
2808.53	2.52473e-05
2817.09	6.92777e-05
2825.64	0.000136854
2834.2	0.000173547
2842.76	0.000118444
2851.32	6.42821e-05
2859.87	4.4831e-05
2868.43	6.59016e-05
2876.99	0.000106879
2885.55	0.000148203
2894.1	0.000205497
2902.66	0.000249691
2911.22	0.000271941
2919.78	0.000286047
2928.34	0.00027429
2936.89	0.000288737
2945.45	0.0003094
2954.01	0.000298301
2962.57	0.000349194
2971.12	0.000632783
2979.68	0.000855826
2988.24	0.000934757
2996.8	0.000494632
3005.35	0.000130952
3013.91	3.73266e-05
3022.47	2.18054e-05
3031.03	1.60229e-05
3039.58	1.28579e-05
3048.14	1.1014e-05
3056.7	1.00459e-05
3065.26	9.66489e-06
3073.81	9.34126e-06
3082.37	8.48687e-06
3090.93	7.1156e-06
3099.49	6.02436e-06
3108.05	5.48772e-06
3116.6	5.0706e-06
3125.16	5.04981e-06
3133.72	5.4021e-06
3142.28	6.00531e-06
3150.83	6.39747e-06
3159.39	6.11234e-06
3167.95	5.72373e-06
3176.51	5.70129e-06
3185.06	5.96741e-06
3193.62	6.15922e-06
3202.18	5.89786e-06
3210.74	5.99388e-06
3219.29	6.20542e-06
3227.85	6.97801e-06
3236.41	6.86122e-06
3244.97	6.06798e-06
3253.52	4.56251e-06
3262.08	3.14472e-06
3270.64	1.91798e-06
3279.2	1.58568e-06
3287.76	1.25206e-06
3296.31	1.14503e-06
3304.87	1.41348e-06
3313.43	1.89046e-06
3321.99	2.31539e-06
3330.54	2.23545e-06
3339.1	1.99349e-06
3347.66	1.76215e-06
3356.22	1.47362e-06
3364.77	9.83257e-07
3373.33	1.22025e-06
3381.89	1.74129e-06
3390.45	2.14655e-06
3399	1.81831e-06
3407.56	1.33084e-06
3416.12	1.0464e-06
3424.68	1.29356e-06
3433.23	1.46354e-06
3441.79	1.50636e-06
3450.35	1.23021e-06
3458.91	7.88402e-07
3467.47	7.18039e-07
3476.02	9.3957e-07
3484.58	1.12747e-06
3493.14	7.71728e-07
3501.7	3.92309e-07
3510.25	3.03613e-07
3518.81	1.56503e-07
3527.37	7.04782e-08
3535.93	2.64025e-08
3544.48	1.73276e-08
3553.04	2.02471e-08
3561.6	-4.43631e-08
3570.16	1.2981e-07
3578.71	7.54258e-08
3587.27	2.00557e-07
3595.83	7.37815e-08
3604.39	1.54459e-07
3612.95	1.29771e-07
3621.5	1.54708e-07
3630.06	2.56387e-07
3638.62	1.54952e-07
3647.18	4.72951e-07
3655.73	1.38779e-07
3664.29	7.27483e-08
3672.85	1.38634e-07
3681.41	2.07447e-07
3689.96	1.9351e-07
3698.52	3.46354e-07
3707.08	4.7821e-07
3715.64	5.1233e-07
3724.19	4.6478e-07
3732.75	3.08226e-07
3741.31	4.74303e-07
3749.87	4.65721e-07
3758.42	2.70068e-07
3766.98	3.68884e-07
3775.54	5.81344e-07
3784.1	4.67441e-07
3792.66	5.1904e-07
3801.21	1.10878e-06
3809.77	7.10372e-07
3818.33	7.25271e-07
3826.89	1.00232e-06
3835.44	1.10559e-06
3844	1.04547e-06
3852.56	1.04925e-06
3861.12	9.43811e-07
3869.67	9.88976e-07
3878.23	1.32435e-06
3886.79	1.53653e-06
3895.35	1.9344e-06
3903.9	2.31494e-06
3912.46	2.58186e-06
3921.02	2.92517e-06
3929.58	2.73886e-06
3938.13	2.2018e-06
3946.69	1.91794e-06
3955.25	1.82912e-06
3963.81	2.12166e-06
3972.37	2.21209e-06
