Infrared Spectrum: tert-Butyl Methyl Ether
Formula: ( C H3)3 C O C H3
CAS: 1634-04-4
State: gas
Melting point: -109 C
Boiling point: 55.2 C
Class: IUPAC A
Instrument: IFS66V (Bruker)
Instrument parameters: KBr Beam splitter; MCT Detector; Multipass cell
Sampling: 1 L/min Flow
Resolution: 0.4820
Temperature: 23 C
Pressure: 101.3 kPa
Origin: NIST, Anayltical Chemistry Division, 301-975-3108
cm-1	(micromol/mol)-1m-1 (base 10)
574.928	-7.93894e-08
583.606	-3.37084e-07
592.284	-1.20893e-07
600.962	8.45644e-09
609.641	2.033e-07
618.319	5.83365e-08
626.997	4.21876e-08
635.675	1.91975e-08
644.353	1.51026e-07
653.031	1.84774e-07
661.71	1.71044e-07
670.388	1.23929e-07
679.066	3.65913e-07
687.744	5.58494e-07
696.422	1.13011e-06
705.1	5.73491e-06
713.778	2.05276e-05
722.457	3.16109e-05
731.135	2.50812e-05
739.813	1.53006e-05
748.491	2.56246e-06
757.169	1.15967e-06
765.847	1.10686e-06
774.526	1.18479e-06
783.204	1.07706e-06
791.882	1.00233e-06
800.56	1.06504e-06
809.238	1.44081e-06
817.916	1.8431e-06
826.594	4.64726e-06
835.273	2.11577e-05
843.951	6.73143e-05
852.629	0.000108071
861.307	8.07686e-05
869.985	4.87457e-05
878.663	5.69634e-06
887.342	1.3148e-06
896.02	1.22005e-06
904.698	1.58999e-06
913.376	1.29007e-06
922.054	1.24401e-06
930.732	1.08405e-06
939.41	1.02404e-06
948.089	1.04535e-06
956.767	1.16577e-06
965.445	1.42086e-06
974.123	1.92091e-06
982.801	2.76713e-06
991.479	3.87532e-06
1000.16	7.05665e-06
1008.84	1.85888e-05
1017.51	3.4324e-05
1026.19	3.17992e-05
1034.87	2.37706e-05
1043.55	8.12042e-06
1052.23	8.37023e-06
1060.9	1.68486e-05
1069.58	5.29594e-05
1078.26	0.000192758
1086.94	0.000430896
1095.62	0.000581893
1104.3	0.00044375
1112.97	0.000146521
1121.65	3.17699e-05
1130.33	1.85979e-05
1139.01	1.76195e-05
1147.69	2.11098e-05
1156.36	2.89998e-05
1165.04	3.27698e-05
1173.72	4.00881e-05
1182.4	6.14874e-05
1191.08	0.00014249
1199.76	0.000328884
1208.43	0.000558214
1217.11	0.000514623
1225.79	0.000243178
1234.47	0.00016316
1243.15	0.000116562
1251.82	0.0001078
1260.5	9.4292e-05
1269.18	7.27785e-05
1277.86	3.82772e-05
1286.54	1.49164e-05
1295.21	6.39249e-06
1303.89	3.78586e-06
1312.57	3.02788e-06
1321.25	2.7594e-06
1329.93	2.93745e-06
1338.61	5.7279e-06
1347.28	3.00969e-05
1355.96	0.000132429
1364.64	0.000219224
1373.32	0.000193763
1382	0.000174246
1390.67	0.00016056
1399.35	6.74505e-05
1408.03	1.53269e-05
1416.71	7.86739e-06
1425.39	9.5717e-06
1434.07	1.17479e-05
1442.74	1.88745e-05
1451.42	3.659e-05
1460.1	6.41026e-05
1468.78	8.48308e-05
1477.46	9.34758e-05
1486.13	7.48612e-05
1494.81	3.59782e-05
1503.49	1.42605e-05
1512.17	5.97269e-06
1520.85	4.54711e-06
1529.52	4.10923e-06
1538.2	4.4439e-06
1546.88	4.48842e-06
1555.56	4.81971e-06
1564.24	5.92762e-06
1572.92	7.1664e-06
1581.59	7.08129e-06
1590.27	5.39357e-06
1598.95	2.04919e-06
1607.63	1.64673e-06
1616.31	2.18543e-06
1624.98	2.25141e-06
1633.66	2.45556e-06
1642.34	2.29117e-06
1651.02	1.70397e-06
1659.7	1.377e-06
1668.38	1.33173e-06
1677.05	1.38549e-06
1685.73	1.97981e-06
1694.41	3.32112e-06
1703.09	4.53857e-06
1711.77	4.20155e-06
1720.44	3.08996e-06
1729.12	1.39128e-06
1737.8	1.31222e-06
1746.48	1.30643e-06
1755.16	1.21809e-06
1763.84	1.06465e-06
1772.51	1.45983e-06
1781.19	8.67637e-07
1789.87	1.14156e-06
1798.55	2.03383e-06
1807.23	3.39373e-06
1815.9	4.30967e-06
1824.58	4.09198e-06
1833.26	2.5612e-06
1841.94	1.14451e-06
1850.62	9.42555e-07
1859.29	8.98472e-07
1867.97	1.01692e-06
1876.65	9.95226e-07
1885.33	1.08875e-06
1894.01	1.16097e-06
1902.69	1.24246e-06
1911.36	1.56093e-06
1920.04	2.59639e-06
1928.72	4.68645e-06
1937.4	7.19325e-06
1946.08	8.292e-06
1954.75	6.61606e-06
1963.43	3.27646e-06
1972.11	9.03196e-07
1980.79	6.30446e-07
1989.47	5.72604e-07
1998.15	5.24115e-07
2006.82	5.46487e-07
2015.5	6.20609e-07
2024.18	7.33329e-07
2032.86	1.08563e-06
2041.54	1.995e-06
2050.21	3.46817e-06
2058.89	4.6708e-06
2067.57	4.03186e-06
2076.25	2.1005e-06
2084.93	1.98163e-06
2093.6	2.59687e-06
2102.28	2.52086e-06
2110.96	2.25317e-06
2119.64	2.54119e-06
2128.32	1.64554e-06
2137	1.21209e-06
2145.67	1.50849e-06
2154.35	2.95718e-06
2163.03	5.86103e-06
2171.71	9.20709e-06
2180.39	1.06412e-05
2189.06	7.34593e-06
2197.74	2.47281e-06
2206.42	1.19592e-06
2215.1	1.009e-06
2223.78	1.17319e-06
2232.46	1.16675e-06
2241.13	9.10962e-07
2249.81	1.05444e-06
2258.49	1.52433e-06
2267.17	2.29295e-06
2275.85	2.59605e-06
2284.52	2.45801e-06
2293.2	1.98847e-06
2301.88	1.56667e-06
2310.56	1.09838e-06
2319.24	5.93053e-07
2327.92	6.97706e-07
2336.59	9.028e-07
2345.27	1.43954e-06
2353.95	1.92637e-06
2362.63	1.77075e-06
2371.31	1.82396e-06
2379.98	1.73781e-06
2388.66	1.59486e-06
2397.34	1.27888e-06
2406.02	1.22672e-06
2414.7	1.33734e-06
2423.37	1.21601e-06
2432.05	7.0143e-07
2440.73	4.64107e-07
2449.41	4.07412e-07
2458.09	5.4644e-07
2466.77	7.04345e-07
2475.44	8.74704e-07
2484.12	8.0671e-07
2492.8	5.89402e-07
2501.48	4.93737e-07
2510.16	3.82957e-07
2518.83	3.7296e-07
2527.51	3.8715e-07
2536.19	5.28763e-07
2544.87	8.01705e-07
2553.55	1.10032e-06
2562.23	1.5344e-06
2570.9	2.24389e-06
2579.58	3.09638e-06
2588.26	3.89719e-06
2596.94	4.14442e-06
2605.62	4.35976e-06
2614.29	4.74696e-06
2622.97	4.98362e-06
2631.65	4.49921e-06
2640.33	4.17196e-06
2649.01	3.92086e-06
2657.68	3.80409e-06
2666.36	3.47119e-06
2675.04	3.2093e-06
2683.72	3.01026e-06
2692.4	2.8389e-06
2701.08	3.02683e-06
2709.75	3.90065e-06
2718.43	5.63345e-06
2727.11	6.98851e-06
2735.79	7.0107e-06
2744.47	6.36858e-06
2753.14	5.58099e-06
2761.82	5.59531e-06
2770.5	5.76205e-06
2779.18	6.34196e-06
2787.86	8.13438e-06
2796.54	1.11516e-05
2805.21	1.87466e-05
2813.89	4.78326e-05
2822.57	0.000104598
2831.25	0.000133273
2839.93	0.00012447
2848.6	8.65411e-05
2857.28	4.38471e-05
2865.96	5.77214e-05
2874.64	9.46568e-05
2883.32	0.000137816
2892	0.000191215
2900.67	0.00024041
2909.35	0.000268672
2918.03	0.000292305
2926.71	0.000275227
2935.39	0.000284458
2944.06	0.000307526
2952.74	0.000305554
2961.42	0.000327575
2970.1	0.000590507
2978.78	0.000843205
2987.45	0.00106345
2996.13	0.000526375
3004.81	0.000144809
3013.49	3.88092e-05
3022.17	2.20815e-05
3030.85	1.60928e-05
3039.52	1.29014e-05
3048.2	1.09547e-05
3056.88	9.99655e-06
3065.56	9.71346e-06
3074.24	9.30182e-06
3082.91	8.38062e-06
3091.59	7.04655e-06
3100.27	5.93174e-06
3108.95	5.29487e-06
3117.63	5.06657e-06
3126.31	5.0768e-06
3134.98	5.40752e-06
3143.66	6.08915e-06
3152.34	6.34117e-06
3161.02	5.97014e-06
3169.7	5.65458e-06
3178.37	5.7608e-06
3187.05	5.9116e-06
3195.73	6.11172e-06
3204.41	5.96951e-06
3213.09	5.91032e-06
3221.77	6.42774e-06
3230.44	6.95962e-06
3239.12	6.84839e-06
3247.8	5.76219e-06
3256.48	4.0443e-06
3265.16	2.72872e-06
3273.83	1.76182e-06
3282.51	1.36467e-06
3291.19	1.15159e-06
3299.87	1.15428e-06
3308.55	1.58116e-06
3317.22	2.19975e-06
3325.9	2.19979e-06
3334.58	2.0769e-06
3343.26	1.78231e-06
3351.94	1.51255e-06
3360.62	1.24114e-06
3369.29	1.06248e-06
3377.97	1.46224e-06
3386.65	2.09926e-06
3395.33	2.09643e-06
3404.01	1.64168e-06
3412.68	9.87288e-07
3421.36	9.72423e-07
3430.04	1.39403e-06
3438.72	1.62568e-06
3447.4	1.32625e-06
3456.08	8.76845e-07
3464.75	7.46044e-07
3473.43	8.62475e-07
3482.11	1.1304e-06
3490.79	9.30752e-07
3499.47	6.00665e-07
3508.14	3.05345e-07
3516.82	2.34357e-07
3525.5	8.99595e-08
3534.18	4.8092e-08
3542.86	7.22008e-08
3551.53	1.13412e-07
3560.21	6.60526e-08
3568.89	4.59565e-08
3577.57	2.31229e-08
3586.25	1.35878e-07
3594.93	7.41835e-08
3603.6	1.04704e-07
3612.28	2.81218e-07
3620.96	9.97692e-08
3629.64	8.13317e-07
3638.32	1.41935e-07
3646.99	2.91597e-07
3655.67	1.69609e-07
3664.35	1.29199e-07
3673.03	2.07346e-07
3681.71	2.05045e-07
3690.39	3.73824e-07
3699.06	3.78037e-07
3707.74	4.76766e-07
3716.42	3.92225e-07
3725.1	3.90342e-07
3733.78	3.15156e-07
3742.45	2.83206e-07
3751.13	3.77218e-07
3759.81	6.04847e-07
3768.49	3.9469e-07
3777.17	4.22918e-07
3785.85	5.41314e-07
3794.52	5.22033e-07
3803.2	6.96671e-07
3811.88	6.12216e-07
3820.56	1.07291e-06
3829.24	9.38788e-07
3837.91	2.11234e-06
3846.59	9.0859e-07
3855.27	8.70113e-07
3863.95	9.64947e-07
3872.63	1.10077e-06
3881.3	1.45467e-06
3889.98	1.78163e-06
3898.66	2.04359e-06
3907.34	2.32199e-06
3916.02	2.77603e-06
3924.7	2.90222e-06
3933.37	2.53561e-06
3942.05	1.93716e-06
3950.73	1.87373e-06
3959.41	2.01431e-06
3968.09	2.21039e-06
