Infrared Spectrum: tert-Butyl Methyl Ether
Formula: ( C H3)3 C O C H3
CAS: 1634-04-4
State: gas
Melting point: -109 C
Boiling point: 55.2 C
Class: IUPAC A
Instrument: IFS66V (Bruker)
Instrument parameters: KBr Beam splitter; MCT Detector; Multipass cell
Sampling: 1 L/min Flow
Resolution: 0.9640
Temperature: 23 C
Pressure: 101.3 kPa
Origin: NIST, Anayltical Chemistry Division, 301-975-3108
cm-1	(micromol/mol)-1m-1 (base 10)
575.169	1.26164e-08
583.847	-6.35861e-08
592.525	-1.21399e-08
601.203	8.48591e-08
609.882	2.16724e-07
618.56	9.74282e-08
627.238	1.38739e-07
635.916	5.91478e-08
644.594	1.20322e-07
653.272	1.69562e-07
661.951	1.76688e-07
670.629	2.1657e-07
679.307	4.47114e-07
687.985	6.02381e-07
696.663	1.2817e-06
705.341	6.09871e-06
714.019	2.078e-05
722.698	3.31178e-05
731.376	2.53705e-05
740.054	1.46351e-05
748.732	2.64383e-06
757.41	1.21579e-06
766.088	1.14256e-06
774.767	1.24733e-06
783.445	1.11866e-06
792.123	1.13513e-06
800.801	1.18667e-06
809.479	1.54882e-06
818.157	2.09979e-06
826.835	5.15081e-06
835.514	2.24526e-05
844.192	6.80361e-05
852.87	0.000110916
861.548	8.16252e-05
870.226	4.66398e-05
878.904	5.85631e-06
887.583	1.56761e-06
896.261	1.35087e-06
904.939	1.75515e-06
913.617	1.41733e-06
922.295	1.34522e-06
930.973	1.16888e-06
939.651	1.10513e-06
948.33	1.16188e-06
957.008	1.26841e-06
965.686	1.5099e-06
974.364	2.07995e-06
983.042	2.92355e-06
991.72	4.09045e-06
1000.4	7.48756e-06
1009.08	1.92166e-05
1017.75	3.42824e-05
1026.43	3.14592e-05
1035.11	2.33285e-05
1043.79	8.59948e-06
1052.47	9.17187e-06
1061.15	1.845e-05
1069.82	5.66423e-05
1078.5	0.000199184
1087.18	0.000432462
1095.86	0.000581325
1104.54	0.000434702
1113.21	0.000141782
1121.89	3.2824e-05
1130.57	1.94575e-05
1139.25	1.8427e-05
1147.93	2.18407e-05
1156.61	2.94229e-05
1165.28	3.34999e-05
1173.96	4.1216e-05
1182.64	6.347e-05
1191.32	0.000148006
1200	0.00033175
1208.67	0.000561344
1217.35	0.000510154
1226.03	0.000238875
1234.71	0.000164023
1243.39	0.000116837
1252.07	0.000107836
1260.74	9.44058e-05
1269.42	7.13286e-05
1278.1	3.76992e-05
1286.78	1.50502e-05
1295.46	6.68272e-06
1304.13	4.09495e-06
1312.81	3.34338e-06
1321.49	3.0898e-06
1330.17	3.41069e-06
1338.85	6.65686e-06
1347.52	3.28196e-05
1356.2	0.000134992
1364.88	0.000230115
1373.56	0.000195541
1382.24	0.00016889
1390.92	0.00014524
1399.59	6.60936e-05
1408.27	1.54573e-05
1416.95	8.37699e-06
1425.63	9.92019e-06
1434.31	1.21733e-05
1442.98	1.95982e-05
1451.66	3.72507e-05
1460.34	6.53886e-05
1469.02	8.47987e-05
1477.7	9.17584e-05
1486.38	7.37898e-05
1495.05	3.55256e-05
1503.73	1.41209e-05
1512.41	6.04762e-06
1521.09	5.00722e-06
1529.77	4.23335e-06
1538.44	4.69438e-06
1547.12	4.58683e-06
1555.8	4.90654e-06
1564.48	6.09194e-06
1573.16	7.21263e-06
1581.83	6.90017e-06
1590.51	5.2731e-06
1599.19	2.09305e-06
1607.87	1.70097e-06
1616.55	2.58251e-06
1625.23	2.30082e-06
1633.9	2.46609e-06
1642.58	2.28618e-06
1651.26	1.77588e-06
1659.94	1.40135e-06
1668.62	1.37698e-06
1677.29	1.42251e-06
1685.97	2.05382e-06
1694.65	3.42077e-06
1703.33	4.5606e-06
1712.01	4.12635e-06
1720.69	3.02602e-06
1729.36	1.43526e-06
1738.04	1.33632e-06
1746.72	1.3576e-06
1755.4	1.22869e-06
1764.08	1.08298e-06
1772.75	1.40752e-06
1781.43	9.07265e-07
1790.11	1.20025e-06
1798.79	2.10649e-06
1807.47	3.44271e-06
1816.15	4.30196e-06
1824.82	4.07776e-06
1833.5	2.50124e-06
1842.18	1.16702e-06
1850.86	9.71512e-07
1859.54	9.04169e-07
1868.21	1.00423e-06
1876.89	1.03246e-06
1885.57	1.11208e-06
1894.25	1.16575e-06
1902.93	1.25939e-06
1911.6	1.59004e-06
1920.28	2.66612e-06
1928.96	4.76872e-06
1937.64	7.23669e-06
1946.32	8.22288e-06
1955	6.50105e-06
1963.67	3.18489e-06
1972.35	9.36877e-07
1981.03	6.47768e-07
1989.71	5.90019e-07
1998.39	5.51438e-07
2007.06	5.77597e-07
2015.74	6.38477e-07
2024.42	7.76317e-07
2033.1	1.11846e-06
2041.78	2.04099e-06
2050.46	3.49842e-06
2059.13	4.66219e-06
2067.81	4.00195e-06
2076.49	2.119e-06
2085.17	2.01762e-06
2093.85	2.56937e-06
2102.52	2.53725e-06
2111.2	2.39275e-06
2119.88	2.34763e-06
2128.56	1.66011e-06
2137.24	1.23986e-06
2145.91	1.57612e-06
2154.59	3.08686e-06
2163.27	5.96825e-06
2171.95	9.25573e-06
2180.63	1.04926e-05
2189.31	7.16861e-06
2197.98	2.44007e-06
2206.66	1.16535e-06
2215.34	1.0437e-06
2224.02	1.19849e-06
2232.7	1.19171e-06
2241.37	9.37915e-07
2250.05	1.07957e-06
2258.73	1.54783e-06
2267.41	2.30549e-06
2276.09	2.5982e-06
2284.77	2.42737e-06
2293.44	1.99662e-06
2302.12	1.55208e-06
2310.8	1.07711e-06
2319.48	7.25373e-07
2328.16	6.1352e-07
2336.83	9.2838e-07
2345.51	1.39026e-06
2354.19	1.77748e-06
2362.87	1.8609e-06
2371.55	1.91166e-06
2380.23	1.73941e-06
2388.9	1.59578e-06
2397.58	1.30389e-06
2406.26	1.24776e-06
2414.94	1.34238e-06
2423.62	1.22196e-06
2432.29	7.16112e-07
2440.97	4.86195e-07
2449.65	4.40139e-07
2458.33	5.61115e-07
2467.01	7.39324e-07
2475.68	8.77072e-07
2484.36	8.03325e-07
2493.04	6.14359e-07
2501.72	5.02817e-07
2510.4	4.04985e-07
2519.08	3.94157e-07
2527.75	4.29903e-07
2536.43	5.79742e-07
2545.11	8.66766e-07
2553.79	1.14939e-06
2562.47	1.60235e-06
2571.14	2.29012e-06
2579.82	3.10454e-06
2588.5	3.92953e-06
2597.18	4.18336e-06
2605.86	4.41373e-06
2614.54	4.77648e-06
2623.21	5.00358e-06
2631.89	4.53355e-06
2640.57	4.23913e-06
2649.25	3.9893e-06
2657.93	3.83773e-06
2666.6	3.51544e-06
2675.28	3.22365e-06
2683.96	3.04159e-06
2692.64	2.93816e-06
2701.32	3.12157e-06
2709.99	3.98821e-06
2718.67	5.73949e-06
2727.35	7.02235e-06
2736.03	7.09292e-06
2744.71	6.42714e-06
2753.39	5.67205e-06
2762.06	5.7282e-06
2770.74	5.96953e-06
2779.42	6.58064e-06
2788.1	8.44994e-06
2796.78	1.16126e-05
2805.45	1.96049e-05
2814.13	4.97634e-05
2822.81	0.00010614
2831.49	0.000134941
2840.17	0.000123762
2848.85	8.46768e-05
2857.52	4.47983e-05
2866.2	5.92312e-05
2874.88	9.62613e-05
2883.56	0.000139134
2892.24	0.000192658
2900.91	0.000241071
2909.59	0.000268503
2918.27	0.000290654
2926.95	0.000275123
2935.63	0.000285145
2944.31	0.000307694
2952.98	0.000304852
2961.66	0.000334655
2970.34	0.000599602
2979.02	0.000845268
2987.7	0.00100867
2996.37	0.000512498
3005.05	0.000142358
3013.73	4.02979e-05
3022.41	2.31055e-05
3031.09	1.67907e-05
3039.76	1.34082e-05
3048.44	1.13794e-05
3057.12	1.03551e-05
3065.8	9.99278e-06
3074.48	9.51713e-06
3083.16	8.54737e-06
3091.83	7.21046e-06
3100.51	6.09073e-06
3109.19	5.45617e-06
3117.87	5.17163e-06
3126.55	5.19128e-06
3135.22	5.53202e-06
3143.9	6.17236e-06
3152.58	6.39806e-06
3161.26	6.06109e-06
3169.94	5.73525e-06
3178.62	5.78082e-06
3187.29	5.95073e-06
3195.97	6.11715e-06
3204.65	5.98251e-06
3213.33	5.99644e-06
3222.01	6.46259e-06
3230.68	6.99368e-06
3239.36	6.82282e-06
3248.04	5.69072e-06
3256.72	4.03399e-06
3265.4	2.71402e-06
3274.07	1.80431e-06
3282.75	1.3885e-06
3291.43	1.1842e-06
3300.11	1.22529e-06
3308.79	1.65572e-06
3317.47	2.20811e-06
3326.14	2.21568e-06
3334.82	2.06875e-06
3343.5	1.8343e-06
3352.18	1.5654e-06
3360.86	1.29951e-06
3369.53	1.08996e-06
3378.21	1.5306e-06
3386.89	2.15202e-06
3395.57	2.10946e-06
3404.25	1.58267e-06
3412.93	1.04485e-06
3421.6	1.02959e-06
3430.28	1.41411e-06
3438.96	1.56951e-06
3447.64	1.3113e-06
3456.32	8.9327e-07
3464.99	7.32361e-07
3473.67	9.0234e-07
3482.35	1.14758e-06
3491.03	9.54375e-07
3499.71	6.10461e-07
3508.39	3.35193e-07
3517.06	2.18503e-07
3525.74	8.88936e-08
3534.42	8.80113e-08
3543.1	9.28717e-08
3551.78	1.25029e-07
3560.45	6.624e-08
3569.13	9.10108e-08
3577.81	6.06921e-08
3586.49	1.83693e-07
3595.17	1.26912e-07
3603.84	9.59639e-08
3612.52	2.93363e-07
3621.2	1.37087e-07
3629.88	4.65732e-07
3638.56	1.34732e-07
3647.24	3.24491e-07
3655.91	3.06234e-07
3664.59	1.45735e-07
3673.27	2.2898e-07
3681.95	2.35332e-07
3690.63	4.14751e-07
3699.3	4.04468e-07
3707.98	4.99621e-07
3716.66	3.84871e-07
3725.34	3.8801e-07
3734.02	3.73793e-07
3742.7	3.3455e-07
3751.37	4.26929e-07
3760.05	5.03148e-07
3768.73	3.98198e-07
3777.41	4.61939e-07
3786.09	5.6658e-07
3794.76	5.52255e-07
3803.44	6.74541e-07
3812.12	6.58474e-07
3820.8	1.04644e-06
3829.48	9.37992e-07
3838.16	1.50163e-06
3846.83	9.10709e-07
3855.51	9.21744e-07
3864.19	1.01531e-06
3872.87	1.15335e-06
3881.55	1.45782e-06
3890.22	1.80333e-06
3898.9	2.16189e-06
3907.58	2.34175e-06
3916.26	2.77979e-06
3924.94	2.92674e-06
3933.61	2.5076e-06
3942.29	2.02681e-06
3950.97	1.83383e-06
3959.65	1.9999e-06
3968.33	2.18087e-06
