Infrared Spectrum: tert-Butyl Methyl Ether
Formula: ( C H3)3 C O C H3
CAS: 1634-04-4
State: gas
Melting point: -109 C
Boiling point: 55.2 C
Class: IUPAC A
Instrument: IFS66V (Bruker)
Instrument parameters: KBr Beam splitter; MCT Detector; Multipass cell
Sampling: 1 L/min Flow
Resolution: 0.2410
Temperature: 23 C
Pressure: 101.3 kPa
Origin: NIST, Anayltical Chemistry Division, 301-975-3108
cm-1	(micromol/mol)-1m-1 (base 10)
575.048	-3.30769e-07
583.606	-4.56331e-07
592.163	-2.59599e-07
600.721	1.87368e-07
609.279	-5.67831e-08
617.836	8.50446e-08
626.394	2.33502e-08
634.951	1.83499e-07
643.509	6.59508e-08
652.067	1.41442e-07
660.624	1.44229e-07
669.182	2.59534e-07
677.74	3.14263e-07
686.297	6.83247e-07
694.855	9.97456e-07
703.412	4.04022e-06
711.97	1.72076e-05
720.528	2.56086e-05
729.085	2.50759e-05
737.643	2.11641e-05
746.201	4.0282e-06
754.758	1.23751e-06
763.316	1.20147e-06
771.873	1.25137e-06
780.431	1.06694e-06
788.989	1.01805e-06
797.546	1.02946e-06
806.104	1.32309e-06
814.662	1.58205e-06
823.219	2.95966e-06
831.777	1.13876e-05
840.334	4.6449e-05
848.892	8.30463e-05
857.45	0.000120214
866.007	8.18483e-05
874.565	1.71113e-05
883.123	2.12152e-06
891.68	1.26353e-06
900.238	1.16969e-06
908.795	1.54122e-06
917.353	1.42525e-06
925.911	1.11919e-06
934.468	1.043e-06
943.026	1.09521e-06
951.584	1.05862e-06
960.141	1.28698e-06
968.699	1.61673e-06
977.256	2.29826e-06
985.814	3.13932e-06
994.372	4.50244e-06
1002.93	9.45566e-06
1011.49	2.4264e-05
1020.04	3.37109e-05
1028.6	2.94905e-05
1037.16	1.81743e-05
1045.72	7.38993e-06
1054.28	9.73734e-06
1062.83	2.15562e-05
1071.39	7.0126e-05
1079.95	0.000237691
1088.51	0.000465437
1097.06	0.000608653
1105.62	0.000417013
1114.18	0.000113579
1122.74	2.89607e-05
1131.29	1.82793e-05
1139.85	1.80639e-05
1148.41	2.15964e-05
1156.97	2.90861e-05
1165.52	3.32696e-05
1174.08	4.07504e-05
1182.64	6.24454e-05
1191.2	0.000144926
1199.75	0.000328489
1208.31	0.000549984
1216.87	0.000511046
1225.43	0.000254402
1233.99	0.000162187
1242.54	0.000118923
1251.1	0.000107976
1259.66	9.56466e-05
1268.22	8.25052e-05
1276.77	4.22801e-05
1285.33	1.7357e-05
1293.89	7.18708e-06
1302.45	4.1156e-06
1311	3.19761e-06
1319.56	2.80338e-06
1328.12	2.91303e-06
1336.68	4.63242e-06
1345.23	1.96479e-05
1353.79	0.000100813
1362.35	0.000175873
1370.91	0.000275552
1379.46	0.00020914
1388.02	9.28505e-05
1396.58	5.98049e-05
1405.14	2.96632e-05
1413.7	8.10344e-06
1422.25	8.96786e-06
1430.81	1.09083e-05
1439.37	1.53535e-05
1447.93	2.94332e-05
1456.48	4.89118e-05
1465.04	8.5189e-05
1473.6	9.82017e-05
1482.16	8.01495e-05
1490.71	4.81267e-05
1499.27	2.43498e-05
1507.83	8.44741e-06
1516.39	4.91537e-06
1524.94	4.29274e-06
1533.5	4.34361e-06
1542.06	5.39488e-06
1550.62	4.67567e-06
1559.18	5.30067e-06
1567.73	6.65866e-06
1576.29	8.9343e-06
1584.85	6.2241e-06
1593.41	3.70931e-06
1601.96	1.79306e-06
1610.52	1.66829e-06
1619.08	1.99919e-06
1627.64	2.59186e-06
1636.19	2.43373e-06
1644.75	2.10569e-06
1653.31	3.43637e-06
1661.87	1.33642e-06
1670.42	1.33032e-06
1678.98	1.43743e-06
1687.54	2.14458e-06
1696.1	4.62296e-06
1704.65	4.86675e-06
1713.21	3.95396e-06
1721.77	2.64256e-06
1730.33	1.46182e-06
1738.89	1.32731e-06
1747.44	1.34858e-06
1756	1.22625e-06
1764.56	1.06346e-06
1773.12	1.11638e-06
1781.67	8.96648e-07
1790.23	1.17917e-06
1798.79	2.11396e-06
1807.35	3.42078e-06
1815.9	4.32094e-06
1824.46	4.10744e-06
1833.02	2.59654e-06
1841.58	1.18761e-06
1850.13	9.50222e-07
1858.69	8.82511e-07
1867.25	1.00193e-06
1875.81	9.94573e-07
1884.36	1.03788e-06
1892.92	1.14267e-06
1901.48	1.2084e-06
1910.04	1.51374e-06
1918.6	2.35623e-06
1927.15	4.20916e-06
1935.71	6.74436e-06
1944.27	8.4798e-06
1952.83	7.48063e-06
1961.38	4.22439e-06
1969.94	1.16542e-06
1978.5	6.51422e-07
1987.06	5.44459e-07
1995.61	5.42194e-07
2004.17	5.68066e-07
2012.73	6.54978e-07
2021.29	7.32911e-07
2029.84	8.62364e-07
2038.4	1.60061e-06
2046.96	2.92344e-06
2055.52	4.20285e-06
2064.08	4.04459e-06
2072.63	3.00676e-06
2081.19	1.88432e-06
2089.75	2.54102e-06
2098.31	2.31848e-06
2106.86	2.34879e-06
2115.42	2.3015e-06
2123.98	2.09753e-06
2132.54	1.34726e-06
2141.09	1.23035e-06
2149.65	1.96134e-06
2158.21	4.34754e-06
2166.77	7.42156e-06
2175.32	1.01661e-05
2183.88	9.29791e-06
2192.44	5.11457e-06
2201	1.69953e-06
2209.55	1.14216e-06
2218.11	1.08575e-06
2226.67	1.23041e-06
2235.23	1.10723e-06
2243.79	9.75068e-07
2252.34	1.17823e-06
2260.9	1.67507e-06
2269.46	2.41098e-06
2278.02	2.59272e-06
2286.57	2.32066e-06
2295.13	1.93969e-06
2303.69	1.4791e-06
2312.25	1.08184e-06
2320.8	7.35814e-07
2329.36	6.93795e-07
2337.92	7.86898e-07
2346.48	1.52513e-06
2355.03	2.02334e-06
2363.59	2.18303e-06
2372.15	1.99133e-06
2380.71	1.71976e-06
2389.26	1.57079e-06
2397.82	1.31283e-06
2406.38	1.23115e-06
2414.94	1.32467e-06
2423.5	1.20135e-06
2432.05	7.03185e-07
2440.61	4.66685e-07
2449.17	3.94871e-07
2457.73	4.8615e-07
2466.28	6.8796e-07
2474.84	8.43026e-07
2483.4	7.7856e-07
2491.96	6.28838e-07
2500.51	5.13573e-07
2509.07	4.56631e-07
2517.63	3.27596e-07
2526.19	4.29703e-07
2534.74	4.68018e-07
2543.3	7.99944e-07
2551.86	1.05862e-06
2560.42	1.42452e-06
2568.98	2.06841e-06
2577.53	2.81092e-06
2586.09	3.8483e-06
2594.65	4.06545e-06
2603.21	4.32953e-06
2611.76	4.6664e-06
2620.32	4.94022e-06
2628.88	4.67953e-06
2637.44	4.25887e-06
2645.99	4.15288e-06
2654.55	3.92307e-06
2663.11	3.67259e-06
2671.67	3.31241e-06
2680.22	3.1661e-06
2688.78	2.95319e-06
2697.34	2.92026e-06
2705.9	3.4857e-06
2714.45	4.66048e-06
2723.01	6.34275e-06
2731.57	7.02604e-06
2740.13	6.85478e-06
2748.69	6.27092e-06
2757.24	5.5012e-06
2765.8	5.671e-06
2774.36	6.15647e-06
2782.92	7.06312e-06
2791.47	9.16848e-06
2800.03	1.33665e-05
2808.59	2.55709e-05
2817.15	6.97307e-05
2825.7	0.000137956
2834.26	0.000174098
2842.82	0.000118423
2851.38	6.411e-05
2859.93	4.51066e-05
2868.49	6.63729e-05
2877.05	0.000107237
2885.61	0.000148539
2894.16	0.000205749
2902.72	0.000249635
2911.28	0.00027207
2919.84	0.000285453
2928.4	0.000274258
2936.95	0.00028883
2945.51	0.000309516
2954.07	0.000298101
2962.63	0.000350956
2971.18	0.000635094
2979.74	0.000861695
2988.3	0.000924298
2996.86	0.000491133
3005.41	0.000130416
3013.97	3.76709e-05
3022.53	2.20286e-05
3031.09	1.61778e-05
3039.64	1.30007e-05
3048.2	1.11081e-05
3056.76	1.01171e-05
3065.32	9.75735e-06
3073.88	9.36689e-06
3082.43	8.49336e-06
3090.99	7.15742e-06
3099.55	6.06312e-06
3108.11	5.48226e-06
3116.66	5.07975e-06
3125.22	5.09105e-06
3133.78	5.42609e-06
3142.34	6.05547e-06
3150.89	6.37322e-06
3159.45	6.12095e-06
3168.01	5.75229e-06
3176.57	5.70539e-06
3185.12	5.93029e-06
3193.68	6.10456e-06
3202.24	5.97871e-06
3210.8	6.02522e-06
3219.35	6.24255e-06
3227.91	6.93895e-06
3236.47	6.91326e-06
3245.03	6.11465e-06
3253.59	4.55593e-06
3262.14	3.10387e-06
3270.7	1.9697e-06
3279.26	1.54547e-06
3287.82	1.26755e-06
3296.37	1.10482e-06
3304.93	1.4306e-06
3313.49	1.87887e-06
3322.05	2.27847e-06
3330.6	2.29158e-06
3339.16	1.95887e-06
3347.72	1.86584e-06
3356.28	1.48475e-06
3364.83	1.08143e-06
3373.39	1.18137e-06
3381.95	1.71458e-06
3390.51	2.05053e-06
3399.06	1.80414e-06
3407.62	1.36078e-06
3416.18	9.99284e-07
3424.74	1.21476e-06
3433.3	1.52581e-06
3441.85	1.43079e-06
3450.41	1.17353e-06
3458.97	7.59695e-07
3467.53	7.57156e-07
3476.08	9.08835e-07
3484.64	1.13838e-06
3493.2	8.74335e-07
3501.76	4.82046e-07
3510.31	2.67721e-07
3518.87	1.64874e-07
3527.43	1.07825e-07
3535.99	8.40914e-08
3544.54	9.80558e-08
3553.1	1.47537e-08
3561.66	1.03518e-08
3570.22	5.57536e-08
3578.78	1.11995e-07
3587.33	1.18625e-07
3595.89	1.22037e-07
3604.45	1.12757e-07
3613.01	1.82054e-07
3621.56	1.10985e-07
3630.12	2.25584e-07
3638.68	1.00399e-07
3647.24	3.91952e-07
3655.79	1.68325e-07
3664.35	1.03675e-07
3672.91	1.94238e-07
3681.47	1.89469e-07
3690.02	2.88177e-07
3698.58	4.14615e-07
3707.14	4.84522e-07
3715.7	4.86792e-07
3724.25	4.31307e-07
3732.81	3.38439e-07
3741.37	4.0664e-07
3749.93	4.54268e-07
3758.49	3.01418e-07
3767.04	4.06675e-07
3775.6	5.09916e-07
3784.16	4.65923e-07
3792.72	5.20694e-07
3801.27	1.4073e-06
3809.83	6.89461e-07
3818.39	7.46906e-07
3826.95	9.74222e-07
3835.5	1.02075e-06
3844.06	1.02508e-06
3852.62	1.09436e-06
3861.18	9.08877e-07
3869.73	1.10145e-06
3878.29	1.2833e-06
3886.85	1.5916e-06
3895.41	1.98195e-06
3903.96	2.40846e-06
3912.52	2.55814e-06
3921.08	2.86074e-06
3929.64	2.74184e-06
3938.2	2.21902e-06
3946.75	1.87699e-06
3955.31	1.81215e-06
3963.87	2.10148e-06
3972.43	2.20683e-06
