Infrared Spectrum: tert-Butyl Methyl Ether
Formula: ( C H3)3 C O C H3
CAS: 1634-04-4
State: gas
Melting point: -109 C
Boiling point: 55.2 C
Class: IUPAC A
Instrument: IFS66V (Bruker)
Instrument parameters: KBr Beam splitter; MCT Detector; Multipass cell
Sampling: 1 L/min Flow
Resolution: 0.4820
Temperature: 23 C
Pressure: 101.3 kPa
Origin: NIST, Anayltical Chemistry Division, 301-975-3108
cm-1	(micromol/mol)-1m-1 (base 10)
574.928	-3.56064e-07
583.606	-2.21148e-07
592.284	-1.07689e-07
600.962	-8.91173e-08
609.641	3.01521e-07
618.319	1.19609e-07
626.997	2.23735e-08
635.675	4.12181e-08
644.353	1.24551e-07
653.031	2.22543e-07
661.71	1.58257e-07
670.388	6.40699e-08
679.066	3.73036e-07
687.744	5.44157e-07
696.422	1.10999e-06
705.1	5.77188e-06
713.778	2.05286e-05
722.457	3.15914e-05
731.135	2.49902e-05
739.813	1.53126e-05
748.491	2.5387e-06
757.169	1.21716e-06
765.847	1.15696e-06
774.526	1.17908e-06
783.204	1.08393e-06
791.882	9.33531e-07
800.56	1.06551e-06
809.238	1.4635e-06
817.916	1.82456e-06
826.594	4.70281e-06
835.273	2.10695e-05
843.951	6.72632e-05
852.629	0.000108028
861.307	8.07094e-05
869.985	4.87149e-05
878.663	5.666e-06
887.342	1.29788e-06
896.02	1.21953e-06
904.698	1.56417e-06
913.376	1.26997e-06
922.054	1.2342e-06
930.732	1.07598e-06
939.41	1.00998e-06
948.089	1.03109e-06
956.767	1.15867e-06
965.445	1.4563e-06
974.123	1.92295e-06
982.801	2.78118e-06
991.479	3.87419e-06
1000.16	7.07386e-06
1008.84	1.85886e-05
1017.51	3.43133e-05
1026.19	3.17701e-05
1034.87	2.37835e-05
1043.55	8.08021e-06
1052.23	8.35878e-06
1060.9	1.68352e-05
1069.58	5.29776e-05
1078.26	0.000192475
1086.94	0.000431256
1095.62	0.000581854
1104.3	0.000441986
1112.97	0.000146392
1121.65	3.17238e-05
1130.33	1.86052e-05
1139.01	1.76104e-05
1147.69	2.10407e-05
1156.36	2.89296e-05
1165.04	3.27835e-05
1173.72	4.01006e-05
1182.4	6.14939e-05
1191.08	0.000142526
1199.76	0.000328862
1208.43	0.000558419
1217.11	0.000514626
1225.79	0.000243091
1234.47	0.000163369
1243.15	0.000116514
1251.82	0.000107848
1260.5	9.42675e-05
1269.18	7.26898e-05
1277.86	3.82937e-05
1286.54	1.48955e-05
1295.21	6.41384e-06
1303.89	3.76649e-06
1312.57	3.03593e-06
1321.25	2.75916e-06
1329.93	2.93323e-06
1338.61	5.72548e-06
1347.28	3.00392e-05
1355.96	0.000132402
1364.64	0.000218895
1373.32	0.000193507
1382	0.000174228
1390.67	0.000162471
1399.35	6.75115e-05
1408.03	1.52985e-05
1416.71	7.88676e-06
1425.39	9.59993e-06
1434.07	1.17494e-05
1442.74	1.88736e-05
1451.42	3.66496e-05
1460.1	6.41586e-05
1468.78	8.48359e-05
1477.46	9.36261e-05
1486.13	7.4854e-05
1494.81	3.59852e-05
1503.49	1.42814e-05
1512.17	5.99781e-06
1520.85	4.32718e-06
1529.52	4.12979e-06
1538.2	4.41869e-06
1546.88	4.47037e-06
1555.56	4.83468e-06
1564.24	5.91017e-06
1572.92	7.14398e-06
1581.59	7.0873e-06
1590.27	5.40918e-06
1598.95	2.04589e-06
1607.63	1.64165e-06
1616.31	1.93009e-06
1624.98	2.25375e-06
1633.66	2.48438e-06
1642.34	2.28743e-06
1651.02	1.64891e-06
1659.7	1.39239e-06
1668.38	1.37489e-06
1677.05	1.40101e-06
1685.73	1.91337e-06
1694.41	3.37936e-06
1703.09	4.51657e-06
1711.77	4.20976e-06
1720.44	3.09626e-06
1729.12	1.38469e-06
1737.8	1.34674e-06
1746.48	1.33598e-06
1755.16	1.22909e-06
1763.84	1.07218e-06
1772.51	1.3901e-06
1781.19	8.44012e-07
1789.87	1.13921e-06
1798.55	2.02832e-06
1807.23	3.40431e-06
1815.9	4.32948e-06
1824.58	4.10459e-06
1833.26	2.5839e-06
1841.94	1.10741e-06
1850.62	9.3668e-07
1859.29	8.91957e-07
1867.97	1.03753e-06
1876.65	9.88057e-07
1885.33	1.08207e-06
1894.01	1.18971e-06
1902.69	1.23882e-06
1911.36	1.57956e-06
1920.04	2.58684e-06
1928.72	4.66324e-06
1937.4	7.19401e-06
1946.08	8.30759e-06
1954.75	6.59903e-06
1963.43	3.28903e-06
1972.11	9.02112e-07
1980.79	6.35945e-07
1989.47	5.78336e-07
1998.15	5.31524e-07
2006.82	5.39173e-07
2015.5	6.2066e-07
2024.18	7.1811e-07
2032.86	1.07797e-06
2041.54	1.99004e-06
2050.21	3.46726e-06
2058.89	4.67113e-06
2067.57	4.0362e-06
2076.25	2.08359e-06
2084.93	1.99157e-06
2093.6	2.59958e-06
2102.28	2.53501e-06
2110.96	2.29475e-06
2119.64	2.78047e-06
2128.32	1.6709e-06
2137	1.22112e-06
2145.67	1.51197e-06
2154.35	2.89651e-06
2163.03	5.8826e-06
2171.71	9.22901e-06
2180.39	1.06892e-05
2189.06	7.35248e-06
2197.74	2.51142e-06
2206.42	1.26572e-06
2215.1	1.01663e-06
2223.78	1.19898e-06
2232.46	1.15441e-06
2241.13	9.14379e-07
2249.81	1.06558e-06
2258.49	1.54132e-06
2267.17	2.32258e-06
2275.85	2.61528e-06
2284.52	2.48139e-06
2293.2	1.99686e-06
2301.88	1.61404e-06
2310.56	1.1062e-06
2319.24	4.72789e-07
2327.92	6.85072e-07
2336.59	8.13537e-07
2345.27	1.45614e-06
2353.95	1.97012e-06
2362.63	1.69455e-06
2371.31	1.72602e-06
2379.98	1.75025e-06
2388.66	1.5915e-06
2397.34	1.2863e-06
2406.02	1.20495e-06
2414.7	1.35503e-06
2423.37	1.23368e-06
2432.05	6.97492e-07
2440.73	4.47565e-07
2449.41	3.93329e-07
2458.09	5.82918e-07
2466.77	7.12693e-07
2475.44	8.77667e-07
2484.12	8.34957e-07
2492.8	5.71047e-07
2501.48	5.11577e-07
2510.16	3.87475e-07
2518.83	3.80733e-07
2527.51	3.90468e-07
2536.19	5.20177e-07
2544.87	7.57769e-07
2553.55	1.10425e-06
2562.23	1.5206e-06
2570.9	2.25995e-06
2579.58	3.13107e-06
2588.26	3.86149e-06
2596.94	4.14868e-06
2605.62	4.35675e-06
2614.29	4.74606e-06
2622.97	4.9977e-06
2631.65	4.50203e-06
2640.33	4.14236e-06
2649.01	3.8874e-06
2657.68	3.7714e-06
2666.36	3.43975e-06
2675.04	3.22289e-06
2683.72	3.01974e-06
2692.4	2.79177e-06
2701.08	3.00589e-06
2709.75	3.88005e-06
2718.43	5.61249e-06
2727.11	7.03073e-06
2735.79	7.03632e-06
2744.47	6.36192e-06
2753.14	5.60837e-06
2761.82	5.5798e-06
2770.5	5.76155e-06
2779.18	6.36368e-06
2787.86	8.11714e-06
2796.54	1.1171e-05
2805.21	1.87606e-05
2813.89	4.77681e-05
2822.57	0.000104491
2831.25	0.000133202
2839.93	0.000124369
2848.6	8.65611e-05
2857.28	4.38289e-05
2865.96	5.76695e-05
2874.64	9.47551e-05
2883.32	0.000137877
2892	0.000191197
2900.67	0.000240489
2909.35	0.000268838
2918.03	0.000292485
2926.71	0.000275192
2935.39	0.00028457
2944.06	0.000307626
2952.74	0.000305501
2961.42	0.000327592
2970.1	0.000590151
2978.78	0.000841717
2987.45	0.00106376
2996.13	0.000526885
3004.81	0.000144826
3013.49	3.87321e-05
3022.17	2.20995e-05
3030.85	1.60948e-05
3039.52	1.29152e-05
3048.2	1.09916e-05
3056.88	9.95548e-06
3065.56	9.74133e-06
3074.24	9.31856e-06
3082.91	8.40064e-06
3091.59	7.01438e-06
3100.27	5.88332e-06
3108.95	5.29197e-06
3117.63	5.06459e-06
3126.31	5.05188e-06
3134.98	5.40849e-06
3143.66	6.06946e-06
3152.34	6.4031e-06
3161.02	5.95069e-06
3169.7	5.59361e-06
3178.37	5.76703e-06
3187.05	5.95628e-06
3195.73	6.12728e-06
3204.41	6.04408e-06
3213.09	5.86781e-06
3221.77	6.41161e-06
3230.44	6.95828e-06
3239.12	6.87951e-06
3247.8	5.81315e-06
3256.48	4.04292e-06
3265.16	2.72294e-06
3273.83	1.73968e-06
3282.51	1.39089e-06
3291.19	1.14917e-06
3299.87	1.14252e-06
3308.55	1.61728e-06
3317.22	2.20467e-06
3325.9	2.19173e-06
3334.58	2.07888e-06
3343.26	1.79085e-06
3351.94	1.4913e-06
3360.62	1.24388e-06
3369.29	1.0714e-06
3377.97	1.45243e-06
3386.65	2.06536e-06
3395.33	2.07953e-06
3404.01	1.68159e-06
3412.68	9.28389e-07
3421.36	9.38197e-07
3430.04	1.42603e-06
3438.72	1.69098e-06
3447.4	1.33884e-06
3456.08	8.99617e-07
3464.75	7.92179e-07
3473.43	8.45187e-07
3482.11	1.09203e-06
3490.79	9.20764e-07
3499.47	5.9945e-07
3508.14	2.74639e-07
3516.82	2.94133e-07
3525.5	1.11252e-07
3534.18	5.26285e-08
3542.86	1.31203e-08
3551.53	1.18883e-07
3560.21	8.12211e-08
3568.89	1.66364e-08
3577.57	4.50034e-08
3586.25	1.14625e-07
3594.93	1.98978e-08
3603.6	8.65562e-08
3612.28	2.47578e-07
3620.96	6.47229e-08
3629.64	1.10661e-06
3638.32	1.78335e-07
3646.99	3.32559e-07
3655.67	2.40305e-07
3664.35	1.15509e-07
3673.03	2.1389e-07
3681.71	1.7991e-07
3690.39	3.73568e-07
3699.06	3.96951e-07
3707.74	5.00731e-07
3716.42	4.18646e-07
3725.1	3.77929e-07
3733.78	3.56145e-07
3742.45	2.82428e-07
3751.13	4.50954e-07
3759.81	6.55491e-07
3768.49	3.63525e-07
3777.17	3.3962e-07
3785.85	5.17196e-07
3794.52	5.08911e-07
3803.2	6.8595e-07
3811.88	5.31291e-07
3820.56	1.05471e-06
3829.24	9.69755e-07
3837.91	2.71955e-06
3846.59	9.26376e-07
3855.27	7.69765e-07
3863.95	9.24015e-07
3872.63	1.1215e-06
3881.3	1.45877e-06
3889.98	1.74855e-06
3898.66	2.02909e-06
3907.34	2.28884e-06
3916.02	2.75778e-06
3924.7	2.90911e-06
3933.37	2.5721e-06
3942.05	1.84316e-06
3950.73	1.90808e-06
3959.41	2.03948e-06
3968.09	2.26054e-06
