Infrared Spectrum: tert-Butyl methyl ether
Formula: C 5 H 12 O
CAS: 1634-04-4
State: liquid
Instrument: Bruker Tensor 27 FTIR
Resolution: 0.4821395
Origin: Pacific Northwest National Laboratory Under IARPA Contract
1/cm	dispersion index
7797.62	1.35585
7779.06	1.35587
7760.5	1.35587
7741.94	1.35587
7723.38	1.35586
7704.81	1.35586
7686.25	1.35585
7667.69	1.35585
7649.13	1.35584
7630.57	1.35583
7612.01	1.35582
7593.44	1.35581
7574.88	1.35581
7556.32	1.35581
7537.76	1.3558
7519.2	1.3558
7500.64	1.35579
7482.07	1.35579
7463.51	1.35578
7444.95	1.35577
7426.39	1.35577
7407.83	1.35576
7389.26	1.35575
7370.7	1.35574
7352.14	1.35573
7333.58	1.35572
7315.02	1.35571
7296.46	1.3557
7277.89	1.35569
7259.33	1.35568
7240.77	1.35567
7222.21	1.35566
7203.65	1.35565
7185.09	1.35564
7166.52	1.35563
7147.96	1.35561
7129.4	1.3556
7110.84	1.35559
7092.28	1.35557
7073.71	1.35556
7055.15	1.35554
7036.59	1.35553
7018.03	1.35551
6999.47	1.3555
6980.91	1.35548
6962.34	1.35546
6943.78	1.35544
6925.22	1.35542
6906.66	1.35539
6888.1	1.35535
6869.54	1.35531
6850.97	1.35535
6832.41	1.3554
6813.85	1.35538
6795.29	1.35535
6776.73	1.35539
6758.16	1.35537
6739.6	1.35532
6721.04	1.35532
6702.48	1.35529
6683.92	1.35527
6665.36	1.35524
6646.79	1.35521
6628.23	1.35519
6609.67	1.35516
6591.11	1.35513
6572.55	1.35511
6553.99	1.35508
6535.42	1.35505
6516.86	1.35502
6498.3	1.35499
6479.74	1.35496
6461.18	1.35493
6442.61	1.3549
6424.05	1.35486
6405.49	1.35482
6386.93	1.35478
6368.37	1.35474
6349.81	1.3547
6331.24	1.35466
6312.68	1.35461
6294.12	1.35456
6275.56	1.35451
6257	1.35445
6238.44	1.35438
6219.87	1.35431
6201.31	1.35423
6182.75	1.35415
6164.19	1.35404
6145.63	1.35388
6127.06	1.35364
6108.5	1.35345
6089.94	1.35398
6071.38	1.35394
6052.82	1.35435
6034.26	1.35394
6015.69	1.35394
5997.13	1.35396
5978.57	1.35392
5960.01	1.35397
5941.45	1.35381
5922.89	1.35375
5904.32	1.35376
5885.76	1.35373
5867.2	1.35357
5848.64	1.35351
5830.08	1.35339
5811.51	1.35319
5792.95	1.35301
5774.39	1.35281
5755.83	1.35258
5737.27	1.3524
5718.71	1.35215
5700.14	1.35189
5681.58	1.3516
5663.02	1.35126
5644.46	1.35087
5625.9	1.35052
5607.34	1.35016
5588.77	1.34974
5570.21	1.34908
5551.65	1.34848
5533.09	1.34742
5514.53	1.34655
5495.96	1.34547
5477.4	1.34384
5458.84	1.3413
5440.28	1.33713
5421.72	1.32938
5403.16	1.30781
5384.59	1.37847
5366.03	1.37576
5347.47	1.38123
5328.91	1.3811
5310.35	1.37895
5291.79	1.37442
5273.22	1.36849
5254.66	1.36604
5236.1	1.36389
5217.54	1.36246
5198.98	1.36162
5180.41	1.36096
5161.85	1.36001
5143.29	1.35918
5124.73	1.35858
5106.17	1.35789
5087.61	1.35759
5069.04	1.35729
5050.48	1.35658
5031.92	1.35641
5013.36	1.35577
4994.8	1.35498
4976.24	1.35599
4957.67	1.35484
4939.11	1.3547
4920.55	1.35448
4901.99	1.35355
4883.43	1.35261
4864.86	1.35282
4846.3	1.35232
4827.74	1.35133
4809.18	1.35001
4790.62	1.34999
4772.06	1.34872
4753.49	1.34703
4734.93	1.34668
4716.37	1.3447
4697.81	1.34207
4679.25	1.34018
4660.69	1.33405
4642.12	1.31684
4623.56	1.35284
4605	1.33181
4586.44	1.30755
4567.88	1.36381
4549.31	1.33521
4530.75	1.30869
4512.19	1.31613
4493.63	1.43984
4475.07	1.37584
4456.51	1.31617
4437.94	1.55481
4419.38	1.41228
4400.82	1.40513
4382.26	1.3882
4363.7	1.37865
4345.14	1.36788
4326.57	1.29685
4308.01	1.3923
4289.45	1.37975
4270.89	1.3686
4252.33	1.39031
4233.76	1.38012
4215.2	1.37661
4196.64	1.37422
4178.08	1.37197
4159.52	1.36633
4140.96	1.36695
4122.39	1.38968
4103.83	1.38528
4085.27	0.000110524
4066.71	0.000116157
4048.15	0.000117892
4029.58	0.000117458
4011.02	0.000120059
3992.46	0.000121359
3973.9	0.00012266
3955.34	0.000125259
3936.78	0.000126127
3918.21	0.000129595
3899.65	0.00014043
3881.09	0.000166436
3862.53	0.000168169
3843.97	0.000182039
3825.41	0.000195907
3806.84	0.000182905
3788.28	0.000184206
3769.72	0.000171636
3751.16	0.000163834
3732.6	0.000161667
3714.03	0.000154732
3695.47	0.000157333
3676.91	0.000149098
3658.35	0.000140862
3639.79	0.000136096
3621.23	0.000135662
3602.66	0.000138695
3584.1	0.000134361
3565.54	0.000131762
3546.98	0.000128727
3528.42	0.000125259
3509.86	0.000121359
3491.29	0.000120059
3472.73	0.000117025
3454.17	0.000114858
3435.61	0.000114424
3417.05	0.000114858
3398.48	0.000116157
3379.92	0.000117458
3361.36	0.000118326
3342.8	0.000120059
3324.24	0.00012266
3305.68	0.000129161
3287.11	0.000134361
3268.55	0.000133495
3249.99	0.000133061
3231.43	0.000135228
3212.87	0.000143897
3194.31	0.00017077
3175.74	0.000403518
3157.18	0.00060246
3138.62	0.000546115
3120.06	0.000446427
3101.5	0.000446427
3082.93	0.000593792
3064.37	0.000325068
3045.81	0.000238817
3027.25	0.000302097
3008.69	0.000218446
2990.13	0.000195475
2971.56	0.000184206
2953	0.000171636
2934.44	0.000171202
2915.88	0.000167302
2897.32	0.000162534
2878.76	0.000182905
2860.19	0.000178137
2841.63	0.000162968
2823.07	0.000166002
2804.51	0.000161667
2785.95	0.000164268
2767.38	0.000172503
2748.82	0.000181172
2730.26	0.000165135
2711.7	0.000156467
2693.14	0.000152131
2674.58	0.000159066
2656.01	0.000178571
2637.45	0.000166002
2618.89	0.000170336
2600.33	0.000176837
2581.77	0.00017207
2563.21	0.00017207
2544.64	0.000181172
2526.08	0.000207176
2507.52	0.000253119
2488.96	0.00028606
2470.4	0.000314667
2451.83	0.00040872
2433.27	0.000728153
2414.71	0.00206744
2396.15	0.0041132
2377.59	0.00365377
2359.03	0.00279559
2340.46	0.00160367
2321.9	0.00245318
2303.34	0.00269157
2284.78	0.0026699
2266.22	0.00231015
2247.66	0.00180738
2229.09	0.00221913
2210.53	0.0020761
2191.97	0.00193307
2173.41	0.00126127
2154.85	0.00171636
2136.28	0.00091886
2117.72	0.000645803
2099.16	0.000455095
2080.6	0.000327235
2062.04	0.000286494
2043.48	0.000264822
2024.91	0.000183339
2006.35	0.000160801
1987.79	0.000152999
1969.23	0.000175104
1950.67	0.000348473
1932.11	0.00054178
1913.54	0.00100121
1894.98	0.00130027
1876.42	0.00100555
1857.86	0.00149532
1839.3	0.0012526
1820.73	0.00295596
1802.17	0.00326802
1783.61	0.00338071
1765.05	0.00325502
1746.49	0.00409586
1727.93	0.00697814
1709.36	0.0201109
1690.8	0.411753
1672.24	0.209778
1653.68	0.1569
1635.12	0.0723819
1616.56	0.0723819
1597.99	0.0137829
1579.43	0.00472433
1560.87	0.00468099
1542.31	0.00234483
1523.75	0.00288227
1505.18	0.00322901
1486.62	0.0020371
1468.06	0.000741157
1449.5	0.000419122
1430.94	0.000767161
1412.38	0.000702147
1393.81	0.00145197
1375.25	0.00198075
1356.69	0.000745491
1338.13	0.00237083
1319.57	0.000871184
1301.01	0.000684811
1282.44	0.00797501
1263.88	0.00119192
1245.32	0.00230582
1226.76	0.00377946
1208.2	0.000370144
1189.63	0.000368844
1171.07	0.0052011
1152.51	0.00145631
1133.95	0.00106622
1115.39	0.00114424
1096.83	0.00182038
1078.26	0.001569
1059.7	0.00216712
1041.14	0.00277825
1022.58	0.00262222
1004.02	0.00260922
985.455	0.0110957
966.894	0.00684811
948.332	0.023925
929.77	0.133495
911.208	0.0279125
892.647	0.240551
874.085	0.0472433
855.523	0.00845178
836.961	0.0442093
818.399	0.23665
799.838	0.771496
781.276	0.0650137
762.714	0.0409153
744.152	1.36962
725.591	0.0380113
707.029	0.06328
688.467	0.00654471
669.905	0.0036191
651.344	0.00684811
632.782	0.0410887
614.22	0.0204576
595.658	0.0048977
577.096	0.00914526
558.535	0.0541781
539.973	0.00328102
521.411	0.00120925
502.849	0.00136095
484.288	0.0023795
465.726	0.00369711
447.164	0.00944866
428.602	0.153866
410.041	0.0177271
