Infrared Spectrum: tert-Butyl Methyl Ether
Formula: ( C H3)3 C O C H3
CAS: 1634-04-4
State: gas
Melting point: -109 C
Boiling point: 55.2 C
Class: IUPAC A
Instrument: IFS66V (Bruker)
Instrument parameters: KBr Beam splitter; MCT Detector; Multipass cell
Sampling: 1 L/min Flow
Resolution: 0.1250
Temperature: 23 C
Pressure: 101.3 kPa
Origin: NIST, Anayltical Chemistry Division, 301-975-3108
cm-1	(micromol/mol)-1m-1 (base 10)
3975.02	2.25197e-06
3966.46	2.08798e-06
3957.9	1.96598e-06
3949.34	1.83198e-06
3940.79	1.96898e-06
3932.23	2.57997e-06
3923.67	2.78397e-06
3915.11	2.64997e-06
3906.56	2.28197e-06
3898	2.10797e-06
3889.44	1.69998e-06
3880.88	1.52898e-06
3872.33	1.07199e-06
3863.77	9.86487e-07
3855.21	8.62589e-07
3846.65	9.40388e-07
3838.09	1.31798e-06
3829.54	9.78488e-07
3820.98	9.99988e-07
3812.42	6.64592e-07
3803.86	5.00593e-07
3795.31	4.27395e-07
3786.75	5.11593e-07
3778.19	4.72893e-07
3769.63	3.60895e-07
3761.08	3.19095e-07
3752.52	6.96591e-07
3743.96	9.93688e-07
3735.4	7.31291e-07
3726.85	4.45194e-07
3718.29	4.39794e-07
3709.73	7.07191e-07
3701.17	6.15992e-07
3692.62	4.02595e-07
3684.06	2.04596e-07
3675.5	2.60096e-07
3666.94	1.78497e-07
3658.38	1.31898e-07
3649.83	2.95296e-07
3641.27	4.70752e-09
3632.71	1.87097e-07
3624.15	4.34582e-08
3615.6	-2.8658e-09
3607.04	1.80997e-07
3598.48	-9.81385e-08
3589.92	-3.86788e-08
3581.37	4.96381e-08
3572.81	1.09398e-07
3564.25	2.61896e-07
3555.69	4.45787e-08
3547.14	3.56595e-07
3538.58	1.06198e-07
3530.02	-9.84887e-09
3521.46	1.90997e-07
3512.91	1.02898e-07
3504.35	5.31793e-07
3495.79	8.71789e-07
3487.23	1.06399e-06
3478.67	1.17799e-06
3470.12	7.45591e-07
3461.56	6.54991e-07
3453	1.02799e-06
3444.44	1.40198e-06
3435.89	1.46398e-06
3427.33	1.03399e-06
3418.77	8.77689e-07
3410.21	9.80988e-07
3401.66	1.63598e-06
3393.1	2.12597e-06
3384.54	1.93598e-06
3375.98	1.32598e-06
3367.43	1.10299e-06
3358.87	1.32198e-06
3350.31	1.64198e-06
3341.75	1.93898e-06
3333.2	2.09698e-06
3324.64	2.35097e-06
3316.08	2.04298e-06
3307.52	1.53498e-06
3298.96	1.07399e-06
3290.41	1.08399e-06
3281.85	1.47698e-06
3273.29	1.78698e-06
3264.73	2.72297e-06
3256.18	4.20195e-06
3247.62	5.83193e-06
3239.06	6.93192e-06
3230.5	6.86092e-06
3221.95	6.37493e-06
3213.39	6.03193e-06
3204.83	6.00493e-06
3196.27	5.88693e-06
3187.72	5.96793e-06
3179.16	5.75593e-06
3170.6	5.60794e-06
3162.04	6.08093e-06
3153.48	6.48593e-06
3144.93	6.21893e-06
3136.37	5.57194e-06
3127.81	5.14794e-06
3119.25	5.05194e-06
3110.7	5.31294e-06
3102.14	5.79893e-06
3093.58	6.86092e-06
3085.02	8.12791e-06
3076.47	9.22289e-06
3067.91	9.59589e-06
3059.35	9.94988e-06
3050.79	1.05099e-05
3042.24	1.20799e-05
3033.68	1.48198e-05
3025.12	1.97798e-05
3016.56	3.00897e-05
3008.01	8.14891e-05
2999.45	0.000359696
2990.89	0.000701592
2982.33	0.00092339
2973.77	0.000752891
2965.22	0.000419295
2956.66	0.000291297
2948.1	0.000314896
2939.54	0.000295797
2930.99	0.000274497
2922.43	0.000275097
2913.87	0.000284097
2905.31	0.000261397
2896.76	0.000219298
2888.2	0.000162698
2879.64	0.000119599
2871.08	7.70491e-05
2862.53	4.90694e-05
2853.97	5.02994e-05
2845.41	0.000111799
2836.85	0.000174798
2828.3	0.000154998
2819.74	8.7889e-05
2811.18	3.44896e-05
2802.62	1.56398e-05
2794.06	1.02299e-05
2785.51	7.60791e-06
2776.95	6.24793e-06
2768.39	5.68193e-06
2759.83	5.45994e-06
2751.28	5.75993e-06
2742.72	6.52892e-06
2734.16	6.93392e-06
2725.6	6.67792e-06
2717.05	5.46594e-06
2708.49	3.74296e-06
2699.93	2.98796e-06
2691.37	2.79797e-06
2682.82	3.00797e-06
2674.26	3.30996e-06
2665.7	3.64096e-06
2657.14	3.80496e-06
2648.59	4.01295e-06
2640.03	4.21395e-06
2631.47	4.52995e-06
2622.91	4.93394e-06
2614.35	4.69795e-06
2605.8	4.38695e-06
2597.24	4.21095e-06
2588.68	3.82196e-06
2580.12	3.07696e-06
2571.57	2.27097e-06
2563.01	1.70398e-06
2554.45	1.09699e-06
2545.89	9.06389e-07
2537.34	5.03393e-07
2528.78	3.84794e-07
2520.22	3.70995e-07
2511.66	2.81496e-07
2503.11	5.07693e-07
2494.55	5.28793e-07
2485.99	7.8539e-07
2477.43	7.7349e-07
2468.87	6.59891e-07
2460.32	5.54592e-07
2451.76	4.31195e-07
2443.2	3.97494e-07
2434.64	6.38691e-07
2426.09	1.22199e-06
2417.53	1.46398e-06
2408.97	1.30798e-06
2400.41	1.27798e-06
2391.86	1.43898e-06
2383.3	1.59098e-06
2374.74	1.53298e-06
2366.18	2.14798e-06
2357.63	2.01098e-06
2349.07	1.69998e-06
2340.51	1.10199e-06
2331.95	7.8659e-07
2323.4	6.20291e-07
2314.84	1.00399e-06
2306.28	1.36298e-06
2297.72	1.75798e-06
2289.16	2.09898e-06
2280.61	2.47597e-06
2272.05	2.32697e-06
2263.49	1.78098e-06
2254.93	1.36498e-06
2246.38	9.87488e-07
2237.82	1.05199e-06
2229.26	1.10399e-06
2220.7	1.14399e-06
2212.15	1.03499e-06
2203.59	1.25798e-06
2195.03	3.48496e-06
2186.47	8.5919e-06
2177.92	1.08099e-05
2169.36	8.5949e-06
2160.8	4.89594e-06
2152.24	2.39197e-06
2143.69	1.28998e-06
2135.13	1.27298e-06
2126.57	1.73498e-06
2118.01	2.05098e-06
2109.45	2.25897e-06
2100.9	2.47797e-06
2092.34	2.77097e-06
2083.78	1.93898e-06
2075.22	2.21997e-06
2066.67	4.05095e-06
2058.11	4.57295e-06
2049.55	3.27396e-06
2040.99	1.80198e-06
2032.44	1.01099e-06
2023.88	7.23591e-07
2015.32	5.96193e-07
2006.76	5.46493e-07
1998.21	5.14993e-07
1989.65	5.35293e-07
1981.09	6.71091e-07
1972.53	7.9519e-07
1963.97	3.12696e-06
1955.42	6.36693e-06
1946.86	8.21491e-06
1938.3	7.43792e-06
1929.74	4.92094e-06
1921.19	2.74797e-06
1912.63	1.63298e-06
1904.07	1.33498e-06
1895.51	1.18899e-06
1886.96	1.13999e-06
1878.4	1.09799e-06
1869.84	9.83088e-07
1861.28	9.25989e-07
1852.73	9.35788e-07
1844.17	2.07298e-06
1835.61	2.06098e-06
1827.05	3.53696e-06
1818.5	4.45295e-06
1809.94	3.83696e-06
1801.38	2.79697e-06
1792.82	1.76298e-06
1784.26	9.77188e-07
1775.71	1.05499e-06
1767.15	9.95988e-07
1758.59	1.18299e-06
1750.03	1.38898e-06
1741.48	1.38698e-06
1732.92	1.32898e-06
1724.36	1.94298e-06
1715.8	4.03095e-06
1707.25	5.06194e-06
1698.69	4.07295e-06
1690.13	2.73097e-06
1681.57	1.57398e-06
1673.02	1.30598e-06
1664.46	1.25398e-06
1655.9	1.48698e-06
1647.34	2.27597e-06
1638.79	2.29097e-06
1630.23	2.65297e-06
1621.67	2.14398e-06
1613.11	1.78298e-06
1604.55	1.65498e-06
1596	2.71997e-06
1587.44	6.12493e-06
1578.88	8.3459e-06
1570.32	6.98192e-06
1561.77	5.47794e-06
1553.21	4.64295e-06
1544.65	4.55895e-06
1536.09	4.38495e-06
1527.54	4.22795e-06
1518.98	4.46595e-06
1510.42	6.54892e-06
1501.86	1.77698e-05
1493.31	3.95395e-05
1484.75	7.63391e-05
1476.19	9.50489e-05
1467.63	8.4789e-05
1459.08	5.82093e-05
1450.52	3.46596e-05
1441.96	1.77998e-05
1433.4	1.14799e-05
1424.84	9.47489e-06
1416.29	7.93691e-06
1407.73	1.62898e-05
1399.17	6.79092e-05
1390.61	0.000162498
1382.06	0.000173098
1373.5	0.000192998
1364.94	0.000232097
1356.38	0.000138298
1347.83	3.36896e-05
1339.27	6.23893e-06
1330.71	2.94897e-06
1322.15	2.75097e-06
1313.6	2.99596e-06
1305.04	3.70296e-06
1296.48	5.78293e-06
1287.92	1.28599e-05
1279.36	3.27196e-05
1270.81	6.22693e-05
1262.25	9.46689e-05
1253.69	0.000107199
1245.13	0.000111499
1236.58	0.000159698
1228.02	0.000196698
1219.46	0.000506994
1210.9	0.000594793
1202.35	0.000370996
1193.79	0.000197098
1185.23	7.33392e-05
1176.67	4.53295e-05
1168.12	3.51396e-05
1159.56	2.91197e-05
1151	2.30597e-05
1142.44	1.90798e-05
1133.89	1.74498e-05
1125.33	2.33897e-05
1116.77	6.52392e-05
1108.21	0.000334496
1099.65	0.000545894
1091.1	0.000502994
1082.54	0.000315896
1073.98	0.000103599
1065.42	2.95897e-05
1056.87	1.15499e-05
1048.31	7.12392e-06
1039.75	1.25499e-05
1031.19	2.96097e-05
1022.64	3.70496e-05
1014.08	2.96797e-05
1005.52	1.27499e-05
996.963	5.30594e-06
988.406	3.26196e-06
979.848	2.43497e-06
971.29	1.79998e-06
962.733	1.34898e-06
954.175	1.14899e-06
945.618	9.62888e-07
937.06	9.21389e-07
928.502	1.29298e-06
919.945	1.33398e-06
911.387	1.35798e-06
902.829	1.54998e-06
894.272	1.15399e-06
885.714	1.42698e-06
877.157	8.4239e-06
868.599	6.15293e-05
860.041	8.07691e-05
851.484	9.47489e-05
842.926	6.18293e-05
834.368	1.81598e-05
825.811	4.13595e-06
817.253	1.80398e-06
808.696	9.73088e-07
800.138	1.01899e-06
791.58	1.17299e-06
783.023	1.17499e-06
774.465	1.14499e-06
765.907	1.14899e-06
757.35	1.20699e-06
748.792	2.64597e-06
740.235	1.40498e-05
731.677	2.56697e-05
723.119	3.59796e-05
714.562	2.16398e-05
706.004	6.94892e-06
697.446	1.32798e-06
688.889	7.01692e-07
680.331	5.41993e-07
671.774	3.99584e-08
663.216	3.80794e-07
654.658	-2.06397e-07
646.101	7.45582e-08
637.543	-1.19498e-07
628.985	3.24488e-08
620.428	-8.51083e-08
611.87	2.70196e-07
603.313	1.02481e-08
594.755	1.06398e-07
586.197	-5.59593e-07
577.64	9.99888e-07
