Infrared Spectrum: tert-Butyl Methyl Ether
Formula: ( C H3)3 C O C H3
CAS: 1634-04-4
State: gas
Melting point: -109 C
Boiling point: 55.2 C
Class: IUPAC A
Instrument: IFS66V (Bruker)
Instrument parameters: KBr Beam splitter; MCT Detector; Multipass cell
Sampling: 1 L/min Flow
Resolution: 0.2410
Temperature: 23 C
Pressure: 101.3 kPa
Origin: NIST, Anayltical Chemistry Division, 301-975-3108
cm-1	(micromol/mol)-1m-1 (base 10)
575.048	-2.29326e-07
583.606	-9.25144e-07
592.163	-3.12015e-07
600.721	1.55734e-07
609.279	-1.95582e-07
617.836	1.66342e-07
626.394	1.5264e-07
634.951	2.35643e-07
643.509	1.13905e-08
652.067	3.40677e-07
660.624	1.47556e-07
669.182	1.49571e-07
677.74	2.6098e-07
686.297	7.60878e-07
694.855	1.03295e-06
703.412	4.02052e-06
711.97	1.71196e-05
720.528	2.55836e-05
729.085	2.49571e-05
737.643	2.12956e-05
746.201	3.90536e-06
754.758	1.27003e-06
763.316	1.14967e-06
771.873	1.21071e-06
780.431	1.08631e-06
788.989	9.46901e-07
797.546	1.02783e-06
806.104	1.25722e-06
814.662	1.47165e-06
823.219	2.92762e-06
831.777	1.12096e-05
840.334	4.63918e-05
848.892	8.30473e-05
857.45	0.000120636
866.007	8.21611e-05
874.565	1.69633e-05
883.123	1.99164e-06
891.68	1.18709e-06
900.238	1.02723e-06
908.795	1.56911e-06
917.353	1.41359e-06
925.911	1.06991e-06
934.468	1.01529e-06
943.026	1.07368e-06
951.584	9.84869e-07
960.141	1.26967e-06
968.699	1.58578e-06
977.256	2.2683e-06
985.814	3.11348e-06
994.372	4.4012e-06
1002.93	9.33337e-06
1011.49	2.42169e-05
1020.04	3.36175e-05
1028.6	2.94681e-05
1037.16	1.80801e-05
1045.72	7.22346e-06
1054.28	9.57189e-06
1062.83	2.11923e-05
1071.39	6.95218e-05
1079.95	0.00023781
1088.51	0.000466261
1097.06	0.00061092
1105.62	0.000418079
1114.18	0.000112819
1122.74	2.85479e-05
1131.29	1.79923e-05
1139.85	1.78219e-05
1148.41	2.14036e-05
1156.97	2.89775e-05
1165.52	3.31362e-05
1174.08	4.04847e-05
1182.64	6.21132e-05
1191.2	0.000144555
1199.75	0.000328872
1208.31	0.00055224
1216.87	0.000512197
1225.43	0.000253896
1233.99	0.00016201
1242.54	0.000118739
1251.1	0.000107916
1259.66	9.56054e-05
1268.22	8.23528e-05
1276.77	4.22129e-05
1285.33	1.72595e-05
1293.89	7.055e-06
1302.45	4.04007e-06
1311	3.13977e-06
1319.56	2.68836e-06
1328.12	2.81873e-06
1336.68	4.49856e-06
1345.23	1.93897e-05
1353.79	0.000100763
1362.35	0.000175382
1370.91	0.000276707
1379.46	0.000209868
1388.02	9.20337e-05
1396.58	5.97721e-05
1405.14	2.94549e-05
1413.7	7.92614e-06
1422.25	8.87846e-06
1430.81	1.0889e-05
1439.37	1.52791e-05
1447.93	2.9517e-05
1456.48	4.90409e-05
1465.04	8.53656e-05
1473.6	9.85297e-05
1482.16	8.02124e-05
1490.71	4.80728e-05
1499.27	2.42789e-05
1507.83	8.38983e-06
1516.39	4.89111e-06
1524.94	4.29152e-06
1533.5	4.27334e-06
1542.06	5.49476e-06
1550.62	4.65998e-06
1559.18	5.24514e-06
1567.73	6.68728e-06
1576.29	9.01104e-06
1584.85	6.22265e-06
1593.41	3.69602e-06
1601.96	1.77532e-06
1610.52	1.66961e-06
1619.08	1.97936e-06
1627.64	2.57894e-06
1636.19	2.42736e-06
1644.75	2.08662e-06
1653.31	3.96211e-06
1661.87	1.30688e-06
1670.42	1.31774e-06
1678.98	1.41578e-06
1687.54	2.12253e-06
1696.1	4.35731e-06
1704.65	4.81016e-06
1713.21	3.93533e-06
1721.77	2.64372e-06
1730.33	1.48346e-06
1738.89	1.29126e-06
1747.44	1.33551e-06
1756	1.23834e-06
1764.56	1.07418e-06
1773.12	1.06742e-06
1781.67	9.27658e-07
1790.23	1.16087e-06
1798.79	2.12509e-06
1807.35	3.43764e-06
1815.9	4.32733e-06
1824.46	4.11875e-06
1833.02	2.6186e-06
1841.58	1.1757e-06
1850.13	9.39749e-07
1858.69	8.60485e-07
1867.25	1.00849e-06
1875.81	9.71363e-07
1884.36	1.02295e-06
1892.92	1.156e-06
1901.48	1.21059e-06
1910.04	1.52933e-06
1918.6	2.34611e-06
1927.15	4.20091e-06
1935.71	6.73308e-06
1944.27	8.50898e-06
1952.83	7.52721e-06
1961.38	4.19829e-06
1969.94	1.13034e-06
1978.5	6.5968e-07
1987.06	5.15135e-07
1995.61	5.31917e-07
2004.17	5.66487e-07
2012.73	6.9807e-07
2021.29	7.30815e-07
2029.84	8.18918e-07
2038.4	1.62524e-06
2046.96	2.96128e-06
2055.52	4.22826e-06
2064.08	4.02395e-06
2072.63	2.98325e-06
2081.19	1.86253e-06
2089.75	2.54958e-06
2098.31	2.30711e-06
2106.86	2.33368e-06
2115.42	2.18572e-06
2123.98	2.08027e-06
2132.54	1.28604e-06
2141.09	1.19727e-06
2149.65	1.92137e-06
2158.21	4.37332e-06
2166.77	7.4344e-06
2175.32	1.01988e-05
2183.88	9.28476e-06
2192.44	5.14157e-06
2201	1.68427e-06
2209.55	1.19639e-06
2218.11	1.05146e-06
2226.67	1.24426e-06
2235.23	1.09819e-06
2243.79	9.89358e-07
2252.34	1.17976e-06
2260.9	1.68319e-06
2269.46	2.38333e-06
2278.02	2.59851e-06
2286.57	2.33197e-06
2295.13	1.91913e-06
2303.69	1.48208e-06
2312.25	1.09052e-06
2320.8	7.59937e-07
2329.36	7.12844e-07
2337.92	7.96317e-07
2346.48	1.57172e-06
2355.03	2.04011e-06
2363.59	2.18007e-06
2372.15	1.96393e-06
2380.71	1.72672e-06
2389.26	1.56201e-06
2397.82	1.30573e-06
2406.38	1.22667e-06
2414.94	1.30893e-06
2423.5	1.19027e-06
2432.05	7.0946e-07
2440.61	4.24695e-07
2449.17	3.93816e-07
2457.73	4.98568e-07
2466.28	6.82252e-07
2474.84	8.44392e-07
2483.4	7.5356e-07
2491.96	6.74196e-07
2500.51	5.29398e-07
2509.07	4.76662e-07
2517.63	3.21879e-07
2526.19	4.23864e-07
2534.74	4.50005e-07
2543.3	7.93454e-07
2551.86	1.06655e-06
2560.42	1.3911e-06
2568.98	2.07225e-06
2577.53	2.80549e-06
2586.09	3.82955e-06
2594.65	4.11841e-06
2603.21	4.29573e-06
2611.76	4.6587e-06
2620.32	4.9784e-06
2628.88	4.67912e-06
2637.44	4.23505e-06
2645.99	4.15982e-06
2654.55	3.86187e-06
2663.11	3.64453e-06
2671.67	3.29586e-06
2680.22	3.2162e-06
2688.78	2.96191e-06
2697.34	2.90297e-06
2705.9	3.48297e-06
2714.45	4.5843e-06
2723.01	6.33558e-06
2731.57	7.02388e-06
2740.13	6.82646e-06
2748.69	6.29513e-06
2757.24	5.49813e-06
2765.8	5.68622e-06
2774.36	6.09565e-06
2782.92	7.02136e-06
2791.47	9.07391e-06
2800.03	1.32529e-05
2808.59	2.54483e-05
2817.15	6.96311e-05
2825.7	0.000138221
2834.26	0.000174773
2842.82	0.000118379
2851.38	6.3855e-05
2859.93	4.48008e-05
2868.49	6.62332e-05
2877.05	0.000107341
2885.61	0.000148424
2894.16	0.000206086
2902.72	0.000249695
2911.28	0.000271965
2919.84	0.000285467
2928.4	0.000274219
2936.95	0.000288881
2945.51	0.000309503
2954.07	0.000298011
2962.63	0.000349732
2971.18	0.000635151
2979.74	0.000860276
2988.3	0.000926255
2996.86	0.000491602
3005.41	0.000129395
3013.97	3.70955e-05
3022.53	2.17505e-05
3031.09	1.59428e-05
3039.64	1.28491e-05
3048.2	1.10289e-05
3056.76	1.00218e-05
3065.32	9.60427e-06
3073.88	9.33563e-06
3082.43	8.38753e-06
3090.99	7.10311e-06
3099.55	6.01881e-06
3108.11	5.49188e-06
3116.66	5.0284e-06
3125.22	5.07239e-06
3133.78	5.41036e-06
3142.34	6.0801e-06
3150.89	6.33829e-06
3159.45	6.07322e-06
3168.01	5.79228e-06
3176.57	5.70756e-06
3185.12	5.97503e-06
3193.68	6.17051e-06
3202.24	6.03253e-06
3210.8	6.09467e-06
3219.35	6.26905e-06
3227.91	6.96913e-06
3236.47	6.86676e-06
3245.03	6.08433e-06
3253.59	4.53777e-06
3262.14	3.11001e-06
3270.7	1.90331e-06
3279.26	1.50753e-06
3287.82	1.29667e-06
3296.37	1.08457e-06
3304.93	1.39771e-06
3313.49	1.86156e-06
3322.05	2.35021e-06
3330.6	2.38628e-06
3339.16	1.98949e-06
3347.72	1.83628e-06
3356.28	1.54953e-06
3364.83	1.00585e-06
3373.39	1.11514e-06
3381.95	1.79641e-06
3390.51	1.96351e-06
3399.06	1.75093e-06
3407.62	1.38974e-06
3416.18	1.00098e-06
3424.74	1.28004e-06
3433.3	1.59545e-06
3441.85	1.37304e-06
3450.41	1.25213e-06
3458.97	6.35693e-07
3467.53	7.48014e-07
3476.08	8.586e-07
3484.64	1.15756e-06
3493.2	8.49536e-07
3501.76	4.84822e-07
3510.31	3.00539e-07
3518.87	1.75808e-07
3527.43	1.46368e-07
3535.99	4.75081e-08
3544.54	1.12506e-07
3553.1	-7.44581e-08
3561.66	-8.81878e-08
3570.22	1.4787e-07
3578.78	1.20167e-07
3587.33	1.46155e-07
3595.89	1.81196e-07
3604.45	1.57946e-07
3613.01	1.82033e-07
3621.56	1.24345e-07
3630.12	2.18885e-07
3638.68	9.57984e-08
3647.24	5.15743e-07
3655.79	1.64592e-07
3664.35	6.10159e-08
3672.91	1.93594e-07
3681.47	1.25899e-07
3690.02	2.4938e-07
3698.58	4.26771e-07
3707.14	5.38545e-07
3715.7	5.11259e-07
3724.25	4.23942e-07
3732.81	3.42652e-07
3741.37	3.97787e-07
3749.93	3.94497e-07
3758.49	3.50774e-07
3767.04	4.29779e-07
3775.6	6.29664e-07
3784.16	4.3082e-07
3792.72	5.09806e-07
3801.27	1.32057e-06
3809.83	6.749e-07
3818.39	6.71411e-07
3826.95	9.29404e-07
3835.5	1.01214e-06
3844.06	9.77505e-07
3852.62	1.08475e-06
3861.18	8.73805e-07
3869.73	1.02929e-06
3878.29	1.20939e-06
3886.85	1.60211e-06
3895.41	1.98543e-06
3903.96	2.32616e-06
3912.52	2.53321e-06
3921.08	2.85665e-06
3929.64	2.71516e-06
3938.2	2.17219e-06
3946.75	1.81809e-06
3955.31	1.74442e-06
3963.87	2.08716e-06
3972.43	2.14358e-06
