Infrared Spectrum: tert-Butyl Methyl Ether
Formula: ( C H3)3 C O C H3
CAS: 1634-04-4
State: gas
Melting point: -109 C
Boiling point: 55.2 C
Class: IUPAC A
Instrument: IFS66V (Bruker)
Instrument parameters: KBr Beam splitter; MCT Detector; Multipass cell
Sampling: 1 L/min Flow
Resolution: 0.2410
Temperature: 23 C
Pressure: 101.3 kPa
Origin: NIST, Anayltical Chemistry Division, 301-975-3108
cm-1	(micromol/mol)-1m-1 (base 10)
575.048	-3.29061e-07
583.606	-4.01653e-07
592.163	-2.59256e-07
600.721	1.79648e-07
609.279	-6.39644e-08
617.836	6.57034e-08
626.394	-4.80029e-09
634.951	1.74602e-07
643.509	6.10086e-08
652.067	9.35065e-08
660.624	1.44811e-07
669.182	2.89991e-07
677.74	3.22904e-07
686.297	6.69707e-07
694.855	9.42575e-07
703.412	3.96831e-06
711.97	1.7239e-05
720.528	2.5556e-05
729.085	2.49893e-05
737.643	2.11719e-05
746.201	3.98856e-06
754.758	1.20108e-06
763.316	1.20589e-06
771.873	1.24296e-06
780.431	1.03639e-06
788.989	1.01578e-06
797.546	1.0134e-06
806.104	1.29954e-06
814.662	1.57142e-06
823.219	2.88031e-06
831.777	1.12952e-05
840.334	4.64528e-05
848.892	8.3087e-05
857.45	0.000120544
866.007	8.21401e-05
874.565	1.69585e-05
883.123	2.03902e-06
891.68	1.21679e-06
900.238	1.14608e-06
908.795	1.50984e-06
917.353	1.40635e-06
925.911	1.09345e-06
934.468	1.02199e-06
943.026	1.07321e-06
951.584	1.04542e-06
960.141	1.26748e-06
968.699	1.58759e-06
977.256	2.28048e-06
985.814	3.10201e-06
994.372	4.46426e-06
1002.93	9.40567e-06
1011.49	2.42686e-05
1020.04	3.37032e-05
1028.6	2.94351e-05
1037.16	1.81037e-05
1045.72	7.2468e-06
1054.28	9.5483e-06
1062.83	2.12704e-05
1071.39	6.96997e-05
1079.95	0.000237666
1088.51	0.000466324
1097.06	0.000611362
1105.62	0.000418061
1114.18	0.000112854
1122.74	2.85305e-05
1131.29	1.80399e-05
1139.85	1.79067e-05
1148.41	2.14637e-05
1156.97	2.89817e-05
1165.52	3.31241e-05
1174.08	4.05482e-05
1182.64	6.2122e-05
1191.2	0.000144612
1199.75	0.000328893
1208.31	0.000551751
1216.87	0.000512523
1225.43	0.000253926
1233.99	0.00016196
1242.54	0.000118674
1251.1	0.000107892
1259.66	9.55774e-05
1268.22	8.26586e-05
1276.77	4.22114e-05
1285.33	1.72169e-05
1293.89	7.08719e-06
1302.45	4.01991e-06
1311	3.11146e-06
1319.56	2.72308e-06
1328.12	2.80589e-06
1336.68	4.46887e-06
1345.23	1.93706e-05
1353.79	0.000100784
1362.35	0.00017562
1370.91	0.000276486
1379.46	0.000209721
1388.02	9.22008e-05
1396.58	5.97026e-05
1405.14	2.9524e-05
1413.7	7.9624e-06
1422.25	8.88594e-06
1430.81	1.08274e-05
1439.37	1.52665e-05
1447.93	2.93806e-05
1456.48	4.8815e-05
1465.04	8.53929e-05
1473.6	9.84387e-05
1482.16	8.02208e-05
1490.71	4.80725e-05
1499.27	2.43089e-05
1507.83	8.35515e-06
1516.39	4.86576e-06
1524.94	4.25079e-06
1533.5	4.31771e-06
1542.06	5.40517e-06
1550.62	4.65641e-06
1559.18	5.2557e-06
1567.73	6.64703e-06
1576.29	9.00251e-06
1584.85	6.21859e-06
1593.41	3.69772e-06
1601.96	1.77409e-06
1610.52	1.65624e-06
1619.08	1.98669e-06
1627.64	2.59847e-06
1636.19	2.40709e-06
1644.75	2.09835e-06
1653.31	3.3964e-06
1661.87	1.32974e-06
1670.42	1.3174e-06
1678.98	1.4309e-06
1687.54	2.13485e-06
1696.1	4.77467e-06
1704.65	4.89914e-06
1713.21	3.94523e-06
1721.77	2.6357e-06
1730.33	1.44557e-06
1738.89	1.31995e-06
1747.44	1.34006e-06
1756	1.21968e-06
1764.56	1.05542e-06
1773.12	1.09775e-06
1781.67	8.85996e-07
1790.23	1.17372e-06
1798.79	2.1059e-06
1807.35	3.41614e-06
1815.9	4.31986e-06
1824.46	4.11055e-06
1833.02	2.59177e-06
1841.58	1.17827e-06
1850.13	9.47097e-07
1858.69	8.79553e-07
1867.25	9.94231e-07
1875.81	9.93914e-07
1884.36	1.0322e-06
1892.92	1.13944e-06
1901.48	1.20311e-06
1910.04	1.50615e-06
1918.6	2.34662e-06
1927.15	4.20642e-06
1935.71	6.74986e-06
1944.27	8.49329e-06
1952.83	7.48116e-06
1961.38	4.23038e-06
1969.94	1.15981e-06
1978.5	6.41074e-07
1987.06	5.41463e-07
1995.61	5.3665e-07
2004.17	5.63202e-07
2012.73	6.44583e-07
2021.29	7.24658e-07
2029.84	8.6232e-07
2038.4	1.59324e-06
2046.96	2.91322e-06
2055.52	4.20522e-06
2064.08	4.04035e-06
2072.63	3.00833e-06
2081.19	1.87981e-06
2089.75	2.53935e-06
2098.31	2.31342e-06
2106.86	2.34527e-06
2115.42	2.35661e-06
2123.98	2.12114e-06
2132.54	1.34642e-06
2141.09	1.22506e-06
2149.65	1.95764e-06
2158.21	4.35503e-06
2166.77	7.41902e-06
2175.32	1.01782e-05
2183.88	9.29646e-06
2192.44	5.10484e-06
2201	1.68934e-06
2209.55	1.13176e-06
2218.11	1.08203e-06
2226.67	1.22566e-06
2235.23	1.10595e-06
2243.79	9.65338e-07
2252.34	1.17054e-06
2260.9	1.67338e-06
2269.46	2.42206e-06
2278.02	2.59353e-06
2286.57	2.31626e-06
2295.13	1.94384e-06
2303.69	1.47671e-06
2312.25	1.08351e-06
2320.8	7.30588e-07
2329.36	7.08322e-07
2337.92	7.38966e-07
2346.48	1.52087e-06
2355.03	2.04113e-06
2363.59	2.20563e-06
2372.15	2.01498e-06
2380.71	1.71239e-06
2389.26	1.57473e-06
2397.82	1.30451e-06
2406.38	1.2257e-06
2414.94	1.32486e-06
2423.5	1.19982e-06
2432.05	6.98863e-07
2440.61	4.71696e-07
2449.17	3.90089e-07
2457.73	4.76294e-07
2466.28	6.84553e-07
2474.84	8.39554e-07
2483.4	7.78729e-07
2491.96	6.12312e-07
2500.51	5.01338e-07
2509.07	4.48611e-07
2517.63	3.18007e-07
2526.19	4.2845e-07
2534.74	4.67989e-07
2543.3	7.97404e-07
2551.86	1.05171e-06
2560.42	1.42119e-06
2568.98	2.06254e-06
2577.53	2.80318e-06
2586.09	3.85123e-06
2594.65	4.05205e-06
2603.21	4.32897e-06
2611.76	4.66101e-06
2620.32	4.92684e-06
2628.88	4.66474e-06
2637.44	4.25254e-06
2645.99	4.14196e-06
2654.55	3.9277e-06
2663.11	3.66223e-06
2671.67	3.30223e-06
2680.22	3.13901e-06
2688.78	2.93211e-06
2697.34	2.89905e-06
2705.9	3.46259e-06
2714.45	4.65323e-06
2723.01	6.32822e-06
2731.57	7.00787e-06
2740.13	6.8472e-06
2748.69	6.24162e-06
2757.24	5.46493e-06
2765.8	5.63018e-06
2774.36	6.11065e-06
2782.92	7.00967e-06
2791.47	9.10582e-06
2800.03	1.32709e-05
2808.59	2.54098e-05
2817.15	6.97095e-05
2825.7	0.000138214
2834.26	0.000174699
2842.82	0.000118492
2851.38	6.39157e-05
2859.93	4.48587e-05
2868.49	6.61943e-05
2877.05	0.00010712
2885.61	0.000148487
2894.16	0.000205805
2902.72	0.000249757
2911.28	0.000272164
2919.84	0.000285635
2928.4	0.000274218
2936.95	0.000288785
2945.51	0.000309521
2954.07	0.000297717
2962.63	0.000350357
2971.18	0.000635345
2979.74	0.000861246
2988.3	0.000925296
2996.86	0.000491645
3005.41	0.000129436
3013.97	3.70819e-05
3022.53	2.17066e-05
3031.09	1.59824e-05
3039.64	1.28521e-05
3048.2	1.0981e-05
3056.76	1.00211e-05
3065.32	9.70552e-06
3073.88	9.32374e-06
3082.43	8.45312e-06
3090.99	7.12395e-06
3099.55	6.02628e-06
3108.11	5.44672e-06
3116.66	5.04799e-06
3125.22	5.06418e-06
3133.78	5.40073e-06
3142.34	6.03349e-06
3150.89	6.35768e-06
3159.45	6.11738e-06
3168.01	5.72296e-06
3176.57	5.68991e-06
3185.12	5.91433e-06
3193.68	6.08172e-06
3202.24	5.96506e-06
3210.8	6.00745e-06
3219.35	6.23001e-06
3227.91	6.93381e-06
3236.47	6.91099e-06
3245.03	6.12322e-06
3253.59	4.53844e-06
3262.14	3.08435e-06
3270.7	1.96984e-06
3279.26	1.52985e-06
3287.82	1.24954e-06
3296.37	1.09236e-06
3304.93	1.42753e-06
3313.49	1.86584e-06
3322.05	2.26913e-06
3330.6	2.26798e-06
3339.16	1.95146e-06
3347.72	1.86916e-06
3356.28	1.46508e-06
3364.83	1.09085e-06
3373.39	1.19966e-06
3381.95	1.6938e-06
3390.51	2.06792e-06
3399.06	1.79242e-06
3407.62	1.35678e-06
3416.18	9.80066e-07
3424.74	1.19225e-06
3433.3	1.52334e-06
3441.85	1.43204e-06
3450.41	1.16262e-06
3458.97	7.72841e-07
3467.53	7.5496e-07
3476.08	9.18752e-07
3484.64	1.13127e-06
3493.2	8.82314e-07
3501.76	4.86452e-07
3510.31	2.62697e-07
3518.87	1.61156e-07
3527.43	8.73911e-08
3535.99	8.38077e-08
3544.54	9.63659e-08
3553.1	2.28773e-08
3561.66	2.52293e-08
3570.22	4.04341e-08
3578.78	1.10094e-07
3587.33	1.01279e-07
3595.89	1.11134e-07
3604.45	1.00666e-07
3613.01	1.73363e-07
3621.56	1.06423e-07
3630.12	2.08428e-07
3638.68	1.01865e-07
3647.24	3.80234e-07
3655.79	1.62284e-07
3664.35	1.07547e-07
3672.91	1.85012e-07
3681.47	1.94745e-07
3690.02	2.88694e-07
3698.58	4.13538e-07
3707.14	4.65466e-07
3715.7	4.8008e-07
3724.25	4.27786e-07
3732.81	3.22274e-07
3741.37	4.09338e-07
3749.93	4.46643e-07
3758.49	2.85185e-07
3767.04	3.9487e-07
3775.6	4.90062e-07
3784.16	4.58343e-07
3792.72	5.17627e-07
3801.27	1.50055e-06
3809.83	6.93293e-07
3818.39	7.45909e-07
3826.95	9.86888e-07
3835.5	1.01386e-06
3844.06	1.03929e-06
3852.62	1.0784e-06
3861.18	9.01912e-07
3869.73	1.07755e-06
3878.29	1.29284e-06
3886.85	1.57185e-06
3895.41	1.97809e-06
3903.96	2.45007e-06
3912.52	2.56189e-06
3921.08	2.85816e-06
3929.64	2.75211e-06
3938.2	2.22909e-06
3946.75	1.88576e-06
3955.31	1.821e-06
3963.87	2.10166e-06
3972.43	2.22895e-06
