Infrared Spectrum: tert-Butyl Methyl Ether
Formula: ( C H3)3 C O C H3
CAS: 1634-04-4
State: gas
Melting point: -109 C
Boiling point: 55.2 C
Class: IUPAC A
Instrument: IFS66V (Bruker)
Instrument parameters: KBr Beam splitter; MCT Detector; Multipass cell
Sampling: 1 L/min Flow
Resolution: 0.4820
Temperature: 23 C
Pressure: 101.3 kPa
Origin: NIST, Anayltical Chemistry Division, 301-975-3108
cm-1	(micromol/mol)-1m-1 (base 10)
574.928	-8.00351e-08
583.606	-3.43754e-07
592.284	-1.23038e-07
600.962	8.09082e-09
609.641	2.039e-07
618.319	5.76271e-08
626.997	4.04086e-08
635.675	1.80388e-08
644.353	1.52221e-07
653.031	1.85108e-07
661.71	1.73009e-07
670.388	1.24596e-07
679.066	3.64664e-07
687.744	5.593e-07
696.422	1.13111e-06
705.1	5.73518e-06
713.778	2.0528e-05
722.457	3.16062e-05
731.135	2.50813e-05
739.813	1.5302e-05
748.491	2.56193e-06
757.169	1.15997e-06
765.847	1.10639e-06
774.526	1.18516e-06
783.204	1.07753e-06
791.882	1.00204e-06
800.56	1.06308e-06
809.238	1.44207e-06
817.916	1.84147e-06
826.594	4.64628e-06
835.273	2.1157e-05
843.951	6.73152e-05
852.629	0.000108069
861.307	8.07659e-05
869.985	4.87439e-05
878.663	5.69689e-06
887.342	1.31442e-06
896.02	1.22096e-06
904.698	1.58945e-06
913.376	1.28954e-06
922.054	1.2438e-06
930.732	1.08418e-06
939.41	1.02441e-06
948.089	1.04504e-06
956.767	1.16571e-06
965.445	1.42121e-06
974.123	1.92061e-06
982.801	2.7671e-06
991.479	3.87586e-06
1000.16	7.05575e-06
1008.84	1.85881e-05
1017.51	3.43244e-05
1026.19	3.17922e-05
1034.87	2.37717e-05
1043.55	8.11956e-06
1052.23	8.37055e-06
1060.9	1.68478e-05
1069.58	5.29575e-05
1078.26	0.000192757
1086.94	0.000430918
1095.62	0.00058188
1104.3	0.000443686
1112.97	0.000146511
1121.65	3.1769e-05
1130.33	1.85984e-05
1139.01	1.76189e-05
1147.69	2.111e-05
1156.36	2.90004e-05
1165.04	3.27704e-05
1173.72	4.00903e-05
1182.4	6.14877e-05
1191.08	0.000142489
1199.76	0.000328887
1208.43	0.000558242
1217.11	0.000514627
1225.79	0.000243169
1234.47	0.000163156
1243.15	0.000116559
1251.82	0.0001078
1260.5	9.42906e-05
1269.18	7.27706e-05
1277.86	3.82738e-05
1286.54	1.49154e-05
1295.21	6.39271e-06
1303.89	3.78582e-06
1312.57	3.02789e-06
1321.25	2.75952e-06
1329.93	2.93754e-06
1338.61	5.72823e-06
1347.28	3.00966e-05
1355.96	0.000132431
1364.64	0.000219194
1373.32	0.000193743
1382	0.000174248
1390.67	0.000160692
1399.35	6.74566e-05
1408.03	1.53258e-05
1416.71	7.86671e-06
1425.39	9.57152e-06
1434.07	1.17477e-05
1442.74	1.88742e-05
1451.42	3.65894e-05
1460.1	6.41025e-05
1468.78	8.48303e-05
1477.46	9.34828e-05
1486.13	7.48619e-05
1494.81	3.5978e-05
1503.49	1.42599e-05
1512.17	5.97539e-06
1520.85	4.54098e-06
1529.52	4.10898e-06
1538.2	4.44478e-06
1546.88	4.48817e-06
1555.56	4.81981e-06
1564.24	5.92646e-06
1572.92	7.16657e-06
1581.59	7.08102e-06
1590.27	5.39377e-06
1598.95	2.04913e-06
1607.63	1.64635e-06
1616.31	2.18035e-06
1624.98	2.25126e-06
1633.66	2.45595e-06
1642.34	2.29155e-06
1651.02	1.70468e-06
1659.7	1.37689e-06
1668.38	1.33211e-06
1677.05	1.38528e-06
1685.73	1.98076e-06
1694.41	3.3203e-06
1703.09	4.53915e-06
1711.77	4.20173e-06
1720.44	3.08973e-06
1729.12	1.39148e-06
1737.8	1.31168e-06
1746.48	1.30538e-06
1755.16	1.21839e-06
1763.84	1.06463e-06
1772.51	1.46443e-06
1781.19	8.6666e-07
1789.87	1.14127e-06
1798.55	2.03357e-06
1807.23	3.39334e-06
1815.9	4.3094e-06
1824.58	4.09076e-06
1833.26	2.56153e-06
1841.94	1.14494e-06
1850.62	9.42372e-07
1859.29	8.98527e-07
1867.97	1.01744e-06
1876.65	9.94955e-07
1885.33	1.08837e-06
1894.01	1.16126e-06
1902.69	1.24289e-06
1911.36	1.56115e-06
1920.04	2.59639e-06
1928.72	4.68667e-06
1937.4	7.193e-06
1946.08	8.29182e-06
1954.75	6.61554e-06
1963.43	3.27638e-06
1972.11	9.02805e-07
1980.79	6.30389e-07
1989.47	5.72693e-07
1998.15	5.2395e-07
2006.82	5.45994e-07
2015.5	6.20778e-07
2024.18	7.32902e-07
2032.86	1.08578e-06
2041.54	1.99543e-06
2050.21	3.46809e-06
2058.89	4.67139e-06
2067.57	4.03215e-06
2076.25	2.10016e-06
2084.93	1.98154e-06
2093.6	2.59694e-06
2102.28	2.52066e-06
2110.96	2.24983e-06
2119.64	2.54448e-06
2128.32	1.64343e-06
2137	1.21187e-06
2145.67	1.50859e-06
2154.35	2.95776e-06
2163.03	5.86058e-06
2171.71	9.20647e-06
2180.39	1.06384e-05
2189.06	7.34587e-06
2197.74	2.47256e-06
2206.42	1.19655e-06
2215.1	1.00887e-06
2223.78	1.17251e-06
2232.46	1.16641e-06
2241.13	9.10478e-07
2249.81	1.05421e-06
2258.49	1.52405e-06
2267.17	2.29302e-06
2275.85	2.59587e-06
2284.52	2.4582e-06
2293.2	1.98849e-06
2301.88	1.56637e-06
2310.56	1.09894e-06
2319.24	5.90801e-07
2327.92	6.97799e-07
2336.59	9.06089e-07
2345.27	1.44008e-06
2353.95	1.92939e-06
2362.63	1.76658e-06
2371.31	1.82124e-06
2379.98	1.73762e-06
2388.66	1.59491e-06
2397.34	1.27812e-06
2406.02	1.22676e-06
2414.7	1.33728e-06
2423.37	1.21588e-06
2432.05	7.01564e-07
2440.73	4.63907e-07
2449.41	4.07368e-07
2458.09	5.46664e-07
2466.77	7.04043e-07
2475.44	8.7494e-07
2484.12	8.06725e-07
2492.8	5.89428e-07
2501.48	4.93628e-07
2510.16	3.82724e-07
2518.83	3.73007e-07
2527.51	3.86877e-07
2536.19	5.28381e-07
2544.87	8.01455e-07
2553.55	1.10009e-06
2562.23	1.53373e-06
2570.9	2.24386e-06
2579.58	3.09683e-06
2588.26	3.89677e-06
2596.94	4.14416e-06
2605.62	4.35926e-06
2614.29	4.74675e-06
2622.97	4.98385e-06
2631.65	4.49896e-06
2640.33	4.17178e-06
2649.01	3.92016e-06
2657.68	3.80439e-06
2666.36	3.47097e-06
2675.04	3.20968e-06
2683.72	3.01005e-06
2692.4	2.83856e-06
2701.08	3.02698e-06
2709.75	3.90111e-06
2718.43	5.63337e-06
2727.11	6.98874e-06
2735.79	7.01034e-06
2744.47	6.36861e-06
2753.14	5.5811e-06
2761.82	5.59554e-06
2770.5	5.76104e-06
2779.18	6.34141e-06
2787.86	8.1346e-06
2796.54	1.11521e-05
2805.21	1.87467e-05
2813.89	4.7832e-05
2822.57	0.000104598
2831.25	0.000133263
2839.93	0.000124463
2848.6	8.65399e-05
2857.28	4.3847e-05
2865.96	5.77216e-05
2874.64	9.46577e-05
2883.32	0.000137815
2892	0.000191218
2900.67	0.000240409
2909.35	0.000268669
2918.03	0.000292306
2926.71	0.000275227
2935.39	0.000284458
2944.06	0.000307526
2952.74	0.000305554
2961.42	0.000327565
2970.1	0.000590503
2978.78	0.000843056
2987.45	0.00106347
2996.13	0.00052638
3004.81	0.000144804
3013.49	3.88083e-05
3022.17	2.20818e-05
3030.85	1.60928e-05
3039.52	1.29016e-05
3048.2	1.09541e-05
3056.88	9.99659e-06
3065.56	9.71246e-06
3074.24	9.3014e-06
3082.91	8.38013e-06
3091.59	7.04647e-06
3100.27	5.93162e-06
3108.95	5.29408e-06
3117.63	5.06707e-06
3126.31	5.07789e-06
3134.98	5.40713e-06
3143.66	6.08941e-06
3152.34	6.34039e-06
3161.02	5.96922e-06
3169.7	5.65483e-06
3178.37	5.76257e-06
3187.05	5.91174e-06
3195.73	6.11303e-06
3204.41	5.96938e-06
3213.09	5.91003e-06
3221.77	6.42817e-06
3230.44	6.95948e-06
3239.12	6.84903e-06
3247.8	5.76305e-06
3256.48	4.04434e-06
3265.16	2.7293e-06
3273.83	1.76179e-06
3282.51	1.36451e-06
3291.19	1.15199e-06
3299.87	1.15376e-06
3308.55	1.57992e-06
3317.22	2.19982e-06
3325.9	2.20089e-06
3334.58	2.07721e-06
3343.26	1.78219e-06
3351.94	1.51218e-06
3360.62	1.24013e-06
3369.29	1.06269e-06
3377.97	1.46188e-06
3386.65	2.09794e-06
3395.33	2.09697e-06
3404.01	1.64212e-06
3412.68	9.86209e-07
3421.36	9.71936e-07
3430.04	1.39422e-06
3438.72	1.62653e-06
3447.4	1.32616e-06
3456.08	8.76081e-07
3464.75	7.459e-07
3473.43	8.62244e-07
3482.11	1.13064e-06
3490.79	9.30894e-07
3499.47	6.00358e-07
3508.14	3.05507e-07
3516.82	2.34876e-07
3525.5	8.98794e-08
3534.18	4.68606e-08
3542.86	7.28956e-08
3551.53	1.13261e-07
3560.21	6.63691e-08
3568.89	4.46905e-08
3577.57	2.28173e-08
3586.25	1.35161e-07
3594.93	7.4238e-08
3603.6	1.05093e-07
3612.28	2.81855e-07
3620.96	9.97892e-08
3629.64	8.19692e-07
3638.32	1.42568e-07
3646.99	2.90986e-07
3655.67	1.66888e-07
3664.35	1.28882e-07
3673.03	2.0806e-07
3681.71	2.04881e-07
3690.39	3.74633e-07
3699.06	3.77207e-07
3707.74	4.76429e-07
3716.42	3.92148e-07
3725.1	3.91077e-07
3733.78	3.13752e-07
3742.45	2.83037e-07
3751.13	3.76278e-07
3759.81	6.07619e-07
3768.49	3.95674e-07
3777.17	4.22846e-07
3785.85	5.41636e-07
3794.52	5.21736e-07
3803.2	6.9698e-07
3811.88	6.12867e-07
3820.56	1.07528e-06
3829.24	9.38885e-07
3837.91	2.12149e-06
3846.59	9.08388e-07
3855.27	8.7131e-07
3863.95	9.64172e-07
3872.63	1.10002e-06
3881.3	1.45486e-06
3889.98	1.7826e-06
3898.66	2.04228e-06
3907.34	2.32235e-06
3916.02	2.7767e-06
3924.7	2.90085e-06
3933.37	2.53631e-06
3942.05	1.93569e-06
3950.73	1.87514e-06
3959.41	2.01459e-06
3968.09	2.21121e-06
