Infrared Spectrum: tert-Butyl Methyl Ether
Formula: ( C H3)3 C O C H3
CAS: 1634-04-4
State: gas
Melting point: -109 C
Boiling point: 55.2 C
Class: IUPAC A
Instrument: IFS66V (Bruker)
Instrument parameters: KBr Beam splitter; MCT Detector; Multipass cell
Sampling: 1 L/min Flow
Resolution: 0.9640
Temperature: 23 C
Pressure: 101.3 kPa
Origin: NIST, Anayltical Chemistry Division, 301-975-3108
cm-1	(micromol/mol)-1m-1 (base 10)
575.169	1.45864e-08
583.847	-6.833e-08
592.525	-4.19766e-08
601.203	7.50529e-08
609.882	2.16901e-07
618.56	8.22434e-08
627.238	1.29459e-07
635.916	3.95719e-08
644.594	9.88743e-08
653.272	1.48361e-07
661.951	1.45413e-07
670.629	1.76843e-07
679.307	4.04945e-07
687.985	5.37127e-07
696.663	1.17968e-06
705.341	5.96805e-06
714.019	2.09232e-05
722.698	3.32051e-05
731.376	2.53793e-05
740.054	1.46056e-05
748.732	2.48179e-06
757.41	1.11704e-06
766.088	1.06869e-06
774.767	1.18931e-06
783.445	1.05708e-06
792.123	1.06501e-06
800.801	1.09827e-06
809.479	1.43292e-06
818.157	1.92248e-06
826.835	4.84201e-06
835.514	2.2099e-05
844.192	6.84876e-05
852.87	0.000111707
861.548	8.15579e-05
870.226	4.66185e-05
878.904	5.34749e-06
887.583	1.32641e-06
896.261	1.2046e-06
904.939	1.66009e-06
913.617	1.32052e-06
922.295	1.25892e-06
930.973	1.08386e-06
939.651	1.0199e-06
948.33	1.07221e-06
957.008	1.17205e-06
965.686	1.40135e-06
974.364	1.96133e-06
983.042	2.78889e-06
991.72	3.91647e-06
1000.4	7.25755e-06
1009.08	1.90847e-05
1017.75	3.44442e-05
1026.43	3.1135e-05
1035.11	2.31781e-05
1043.79	8.03098e-06
1052.47	8.47772e-06
1061.15	1.73736e-05
1069.82	5.4957e-05
1078.5	0.0001986
1087.18	0.000435605
1095.86	0.000588242
1104.54	0.000438604
1113.21	0.000139445
1121.89	3.09844e-05
1130.57	1.84463e-05
1139.25	1.77173e-05
1147.93	2.12567e-05
1156.61	2.90172e-05
1165.28	3.29328e-05
1173.96	4.03809e-05
1182.64	6.21925e-05
1191.32	0.000146775
1200	0.000333313
1208.67	0.000569696
1217.35	0.0005161
1226.03	0.000236901
1234.71	0.000163749
1243.39	0.000116056
1252.07	0.000107678
1260.74	9.4166e-05
1269.42	7.10237e-05
1278.1	3.7359e-05
1286.78	1.45481e-05
1295.46	6.26399e-06
1304.13	3.74565e-06
1312.81	3.01879e-06
1321.49	2.73856e-06
1330.17	2.96012e-06
1338.85	5.92777e-06
1347.52	3.17273e-05
1356.2	0.000135693
1364.88	0.000230405
1373.56	0.000193746
1382.24	0.000169877
1390.92	0.000150587
1399.59	6.6676e-05
1408.27	1.46563e-05
1416.95	7.92776e-06
1425.63	9.61492e-06
1434.31	1.18582e-05
1442.98	1.92755e-05
1451.66	3.71073e-05
1460.34	6.55335e-05
1469.02	8.49958e-05
1477.7	9.24063e-05
1486.38	7.45087e-05
1495.05	3.54106e-05
1503.73	1.38189e-05
1512.41	5.82119e-06
1521.09	4.89092e-06
1529.77	4.11447e-06
1538.44	4.63664e-06
1547.12	4.51177e-06
1555.8	4.81089e-06
1564.48	6.05701e-06
1573.16	7.19093e-06
1581.83	6.86689e-06
1590.51	5.27237e-06
1599.19	2.02399e-06
1607.87	1.6494e-06
1616.55	2.59606e-06
1625.23	2.25771e-06
1633.9	2.42826e-06
1642.58	2.26533e-06
1651.26	1.72881e-06
1659.94	1.3637e-06
1668.62	1.35581e-06
1677.29	1.38283e-06
1685.97	2.01153e-06
1694.65	3.38922e-06
1703.33	4.5508e-06
1712.01	4.09888e-06
1720.69	3.01193e-06
1729.36	1.40266e-06
1738.04	1.30294e-06
1746.72	1.33632e-06
1755.4	1.20058e-06
1764.08	1.06008e-06
1772.75	1.41021e-06
1781.43	8.81829e-07
1790.11	1.17048e-06
1798.79	2.09021e-06
1807.47	3.4447e-06
1816.15	4.31228e-06
1824.82	4.10044e-06
1833.5	2.49248e-06
1842.18	1.13649e-06
1850.86	9.51454e-07
1859.54	8.8541e-07
1868.21	9.88974e-07
1876.89	1.01494e-06
1885.57	1.09752e-06
1894.25	1.14697e-06
1902.93	1.235e-06
1911.6	1.56058e-06
1920.28	2.64127e-06
1928.96	4.76296e-06
1937.64	7.26579e-06
1946.32	8.26713e-06
1955	6.51717e-06
1963.67	3.16452e-06
1972.35	8.94924e-07
1981.03	6.24376e-07
1989.71	5.69415e-07
1998.39	5.30302e-07
2007.06	5.59578e-07
2015.74	6.20263e-07
2024.42	7.56205e-07
2033.1	1.09568e-06
2041.78	2.02506e-06
2050.46	3.50562e-06
2059.13	4.69271e-06
2067.81	4.02211e-06
2076.49	2.0856e-06
2085.17	1.99244e-06
2093.85	2.56751e-06
2102.52	2.54095e-06
2111.2	2.39089e-06
2119.88	2.35616e-06
2128.56	1.64504e-06
2137.24	1.20635e-06
2145.91	1.54178e-06
2154.59	3.06188e-06
2163.27	5.96217e-06
2171.95	9.30996e-06
2180.63	1.05841e-05
2189.31	7.21319e-06
2197.98	2.38553e-06
2206.66	1.12941e-06
2215.34	1.01868e-06
2224.02	1.18045e-06
2232.7	1.18033e-06
2241.37	9.15393e-07
2250.05	1.05836e-06
2258.73	1.53245e-06
2267.41	2.30914e-06
2276.09	2.60421e-06
2284.77	2.42781e-06
2293.44	1.99074e-06
2302.12	1.54195e-06
2310.8	1.06174e-06
2319.48	7.10768e-07
2328.16	5.89979e-07
2336.83	9.06973e-07
2345.51	1.37731e-06
2354.19	1.77434e-06
2362.87	1.87179e-06
2371.55	1.90771e-06
2380.23	1.73037e-06
2388.9	1.58512e-06
2397.58	1.28813e-06
2406.26	1.23298e-06
2414.94	1.33225e-06
2423.62	1.21182e-06
2432.29	6.94854e-07
2440.97	4.66437e-07
2449.65	4.19433e-07
2458.33	5.42043e-07
2467.01	7.23627e-07
2475.68	8.6503e-07
2484.36	7.86805e-07
2493.04	5.92977e-07
2501.72	4.81315e-07
2510.4	3.79836e-07
2519.08	3.70714e-07
2527.75	4.03621e-07
2536.43	5.53388e-07
2545.11	8.39543e-07
2553.79	1.11967e-06
2562.47	1.57384e-06
2571.14	2.26615e-06
2579.82	3.08291e-06
2588.5	3.91659e-06
2597.18	4.1627e-06
2605.86	4.38825e-06
2614.54	4.75503e-06
2623.21	4.98706e-06
2631.89	4.50218e-06
2640.57	4.20447e-06
2649.25	3.94558e-06
2657.93	3.79562e-06
2666.6	3.47007e-06
2675.28	3.16934e-06
2683.96	2.98365e-06
2692.64	2.87259e-06
2701.32	3.04641e-06
2709.99	3.91126e-06
2718.67	5.68415e-06
2727.35	6.98009e-06
2736.03	7.02764e-06
2744.71	6.3323e-06
2753.39	5.54616e-06
2762.06	5.5944e-06
2770.74	5.80758e-06
2779.42	6.37178e-06
2788.1	8.20072e-06
2796.78	1.12663e-05
2805.45	1.90801e-05
2814.13	4.93021e-05
2822.81	0.000106149
2831.49	0.000134275
2840.17	0.000123262
2848.85	8.44364e-05
2857.52	4.37504e-05
2866.2	5.84691e-05
2874.88	9.58562e-05
2883.56	0.000138933
2892.24	0.000192928
2900.91	0.000241582
2909.59	0.000268826
2918.27	0.000291567
2926.95	0.000275178
2935.63	0.000285083
2944.31	0.000307801
2952.98	0.000304145
2961.66	0.000331993
2970.34	0.000600477
2979.02	0.000843236
2987.7	0.00102205
2996.37	0.000514709
3005.05	0.000138649
3013.73	3.79557e-05
3022.41	2.18397e-05
3031.09	1.59708e-05
3039.76	1.28195e-05
3048.44	1.09312e-05
3057.12	1.0006e-05
3065.8	9.71947e-06
3074.48	9.29588e-06
3083.16	8.35726e-06
3091.83	7.03873e-06
3100.51	5.93156e-06
3109.19	5.31842e-06
3117.87	5.04579e-06
3126.55	5.07412e-06
3135.22	5.43149e-06
3143.9	6.09358e-06
3152.58	6.33468e-06
3161.26	5.99152e-06
3169.94	5.66514e-06
3178.62	5.72157e-06
3187.29	5.89886e-06
3195.97	6.0755e-06
3204.65	5.93848e-06
3213.33	5.95452e-06
3222.01	6.43278e-06
3230.68	6.97395e-06
3239.36	6.81233e-06
3248.04	5.67396e-06
3256.72	3.9948e-06
3265.4	2.6746e-06
3274.07	1.76071e-06
3282.75	1.34729e-06
3291.43	1.14596e-06
3300.11	1.18543e-06
3308.79	1.62574e-06
3317.47	2.19353e-06
3326.14	2.19411e-06
3334.82	2.04822e-06
3343.5	1.81184e-06
3352.18	1.53895e-06
3360.86	1.27918e-06
3369.53	1.05891e-06
3378.21	1.51387e-06
3386.89	2.1526e-06
3395.57	2.10312e-06
3404.25	1.56965e-06
3412.93	1.01935e-06
3421.6	1.00476e-06
3430.28	1.40438e-06
3438.96	1.56068e-06
3447.64	1.30233e-06
3456.32	8.78351e-07
3464.99	7.14612e-07
3473.67	8.88908e-07
3482.35	1.14108e-06
3491.03	9.4313e-07
3499.71	5.98268e-07
3508.39	3.19246e-07
3517.06	2.08642e-07
3525.74	7.01672e-08
3534.42	7.30066e-08
3543.1	7.61225e-08
3551.78	1.17666e-07
3560.45	5.1408e-08
3569.13	7.94203e-08
3577.81	4.68205e-08
3586.49	1.79322e-07
3595.17	1.19381e-07
3603.84	8.2056e-08
3612.52	2.93503e-07
3621.2	1.15327e-07
3629.88	4.69553e-07
3638.56	1.25844e-07
3647.24	3.27516e-07
3655.91	3.12639e-07
3664.59	1.32031e-07
3673.27	1.95358e-07
3681.95	2.19316e-07
3690.63	4.1402e-07
3699.3	3.96934e-07
3707.98	4.84605e-07
3716.66	3.68102e-07
3725.34	3.77269e-07
3734.02	3.55034e-07
3742.7	3.07298e-07
3751.37	4.26953e-07
3760.05	5.07508e-07
3768.73	3.84223e-07
3777.41	4.53142e-07
3786.09	5.55908e-07
3794.76	5.33949e-07
3803.44	6.65059e-07
3812.12	6.50193e-07
3820.8	1.05354e-06
3829.48	9.26221e-07
3838.16	1.53615e-06
3846.83	9.00308e-07
3855.51	8.80104e-07
3864.19	1.01204e-06
3872.87	1.1362e-06
3881.55	1.44483e-06
3890.22	1.79523e-06
3898.9	2.16631e-06
3907.58	2.33346e-06
3916.26	2.78939e-06
3924.94	2.9378e-06
3933.61	2.50213e-06
3942.29	2.01991e-06
3950.97	1.82323e-06
3959.65	1.99138e-06
3968.33	2.1765e-06
