Infrared Spectrum: tert-Butyl Methyl Ether
Formula: ( C H3)3 C O C H3
CAS: 1634-04-4
State: gas
Melting point: -109 C
Boiling point: 55.2 C
Class: IUPAC A
Instrument: IFS66V (Bruker)
Instrument parameters: KBr Beam splitter; MCT Detector; Multipass cell
Sampling: 1 L/min Flow
Resolution: 0.4820
Temperature: 23 C
Pressure: 101.3 kPa
Origin: NIST, Anayltical Chemistry Division, 301-975-3108
cm-1	(micromol/mol)-1m-1 (base 10)
574.928	-7.11148e-08
583.606	-3.1846e-07
592.284	-9.7119e-08
600.962	1.76368e-08
609.641	2.02443e-07
618.319	7.08256e-08
626.997	5.10278e-08
635.675	3.22396e-08
644.353	1.58832e-07
653.031	1.89507e-07
661.71	1.77145e-07
670.388	1.44396e-07
679.066	3.89857e-07
687.744	5.89364e-07
696.422	1.18555e-06
705.1	5.80318e-06
713.778	2.04517e-05
722.457	3.16577e-05
731.135	2.51026e-05
739.813	1.53078e-05
748.491	2.64513e-06
757.169	1.21057e-06
765.847	1.14348e-06
774.526	1.21233e-06
783.204	1.10689e-06
791.882	1.03837e-06
800.56	1.11055e-06
809.238	1.49266e-06
817.916	1.93478e-06
826.594	4.80577e-06
835.273	2.13469e-05
843.951	6.70865e-05
852.629	0.000107808
861.307	8.09076e-05
869.985	4.87327e-05
878.663	5.95862e-06
887.342	1.44155e-06
896.02	1.29537e-06
904.698	1.64405e-06
913.376	1.34086e-06
922.054	1.28833e-06
930.732	1.12616e-06
939.41	1.0684e-06
948.089	1.09429e-06
956.767	1.21361e-06
965.445	1.47462e-06
974.123	1.98233e-06
982.801	2.83635e-06
991.479	3.96189e-06
1000.16	7.17514e-06
1008.84	1.86587e-05
1017.51	3.42369e-05
1026.19	3.20392e-05
1034.87	2.38329e-05
1043.55	8.40975e-06
1052.23	8.7165e-06
1060.9	1.73956e-05
1069.58	5.3824e-05
1078.26	0.000193101
1086.94	0.000429181
1095.62	0.000578838
1104.3	0.000441745
1112.97	0.000147723
1121.65	3.27213e-05
1130.33	1.91134e-05
1139.01	1.79805e-05
1147.69	2.14048e-05
1156.36	2.91863e-05
1165.04	3.30479e-05
1173.72	4.04948e-05
1182.4	6.21191e-05
1191.08	0.000143154
1199.76	0.000328084
1208.43	0.000554328
1217.11	0.000511632
1225.79	0.000244222
1234.47	0.000163359
1243.15	0.000117002
1251.82	0.000107876
1260.5	9.4438e-05
1269.18	7.2965e-05
1277.86	3.84516e-05
1286.54	1.51741e-05
1295.21	6.60115e-06
1303.89	3.96154e-06
1312.57	3.18859e-06
1321.25	2.92925e-06
1329.93	3.15947e-06
1338.61	6.08455e-06
1347.28	3.06617e-05
1355.96	0.000132097
1364.64	0.000219659
1373.32	0.000194993
1382	0.000173654
1390.67	0.00015614
1399.35	6.70988e-05
1408.03	1.57442e-05
1416.71	8.10424e-06
1425.39	9.72208e-06
1434.07	1.19068e-05
1442.74	1.90425e-05
1451.42	3.66623e-05
1460.1	6.40584e-05
1468.78	8.47367e-05
1477.46	9.30705e-05
1486.13	7.45148e-05
1494.81	3.60354e-05
1503.49	1.44129e-05
1512.17	6.07605e-06
1520.85	4.60944e-06
1529.52	4.17031e-06
1538.2	4.51064e-06
1546.88	4.53172e-06
1555.56	4.8643e-06
1564.24	5.95785e-06
1572.92	7.18071e-06
1581.59	7.09416e-06
1590.27	5.39132e-06
1598.95	2.08643e-06
1607.63	1.67271e-06
1616.31	2.17153e-06
1624.98	2.27222e-06
1633.66	2.4714e-06
1642.34	2.30188e-06
1651.02	1.73859e-06
1659.7	1.39245e-06
1668.38	1.35067e-06
1677.05	1.40385e-06
1685.73	2.02682e-06
1694.41	3.3355e-06
1703.09	4.54507e-06
1711.77	4.21664e-06
1720.44	3.09517e-06
1729.12	1.41494e-06
1737.8	1.32465e-06
1746.48	1.32085e-06
1755.16	1.23182e-06
1763.84	1.07639e-06
1772.51	1.43129e-06
1781.19	8.81752e-07
1789.87	1.15866e-06
1798.55	2.0446e-06
1807.23	3.3951e-06
1815.9	4.30505e-06
1824.58	4.08606e-06
1833.26	2.56443e-06
1841.94	1.16095e-06
1850.62	9.52318e-07
1859.29	9.04768e-07
1867.97	1.02435e-06
1876.65	1.00535e-06
1885.33	1.09653e-06
1894.01	1.17018e-06
1902.69	1.25409e-06
1911.36	1.57451e-06
1920.04	2.60841e-06
1928.72	4.68785e-06
1937.4	7.17946e-06
1946.08	8.26896e-06
1954.75	6.60921e-06
1963.43	3.28633e-06
1972.11	9.25322e-07
1980.79	6.42817e-07
1989.47	5.82579e-07
1998.15	5.37492e-07
2006.82	5.56952e-07
2015.5	6.30533e-07
2024.18	7.44914e-07
2032.86	1.09473e-06
2041.54	2.00249e-06
2050.21	3.46297e-06
2058.89	4.65704e-06
2067.57	4.02358e-06
2076.25	2.12102e-06
2084.93	1.9963e-06
2093.6	2.60119e-06
2102.28	2.52236e-06
2110.96	2.26701e-06
2119.64	2.5171e-06
2128.32	1.66419e-06
2137	1.22849e-06
2145.67	1.52752e-06
2154.35	2.96379e-06
2163.03	5.86241e-06
2171.71	9.1889e-06
2180.39	1.0603e-05
2189.06	7.32523e-06
2197.74	2.49833e-06
2206.42	1.2084e-06
2215.1	1.02091e-06
2223.78	1.18335e-06
2232.46	1.17431e-06
2241.13	9.21939e-07
2249.81	1.06385e-06
2258.49	1.53176e-06
2267.17	2.2897e-06
2275.85	2.59206e-06
2284.52	2.45622e-06
2293.2	1.992e-06
2301.88	1.56923e-06
2310.56	1.10571e-06
2319.24	6.15141e-07
2327.92	6.87587e-07
2336.59	8.85892e-07
2345.27	1.42785e-06
2353.95	1.92691e-06
2362.63	1.79942e-06
2371.31	1.83788e-06
2379.98	1.74396e-06
2388.66	1.5997e-06
2397.34	1.28882e-06
2406.02	1.23424e-06
2414.7	1.34285e-06
2423.37	1.22175e-06
2432.05	7.13859e-07
2440.73	4.74284e-07
2449.41	4.1754e-07
2458.09	5.56561e-07
2466.77	7.1324e-07
2475.44	8.80565e-07
2484.12	8.1302e-07
2492.8	6.00571e-07
2501.48	5.03703e-07
2510.16	3.92796e-07
2518.83	3.84549e-07
2527.51	4.00505e-07
2536.19	5.4308e-07
2544.87	8.16265e-07
2553.55	1.11598e-06
2562.23	1.54999e-06
2570.9	2.25523e-06
2579.58	3.10297e-06
2588.26	3.90226e-06
2596.94	4.15475e-06
2605.62	4.3775e-06
2614.29	4.75893e-06
2622.97	4.99154e-06
2631.65	4.51474e-06
2640.33	4.19134e-06
2649.01	3.94512e-06
2657.68	3.82344e-06
2666.36	3.49665e-06
2675.04	3.23386e-06
2683.72	3.03637e-06
2692.4	2.8741e-06
2701.08	3.06389e-06
2709.75	3.93529e-06
2718.43	5.65982e-06
2727.11	7.00556e-06
2735.79	7.04631e-06
2744.47	6.41541e-06
2753.14	5.64473e-06
2761.82	5.6599e-06
2770.5	5.8468e-06
2779.18	6.44775e-06
2787.86	8.25959e-06
2796.54	1.13239e-05
2805.21	1.90085e-05
2813.89	4.80856e-05
2822.57	0.000104598
2831.25	0.000133713
2839.93	0.000124808
2848.6	8.66292e-05
2857.28	4.43842e-05
2865.96	5.81119e-05
2874.64	9.48642e-05
2883.32	0.000137918
2892	0.000191074
2900.67	0.000240158
2909.35	0.0002685
2918.03	0.000291806
2926.71	0.000275195
2935.39	0.000284503
2944.06	0.000307471
2952.74	0.000305847
2961.42	0.000329016
2970.1	0.000590183
2978.78	0.000845641
2987.45	0.00105483
2996.13	0.000525091
3004.81	0.000146713
3013.49	4.00148e-05
3022.17	2.27272e-05
3030.85	1.65067e-05
3039.52	1.3198e-05
3048.2	1.11834e-05
3056.88	1.01769e-05
3065.56	9.85184e-06
3074.24	9.41743e-06
3082.91	8.47864e-06
3091.59	7.13535e-06
3100.27	6.01082e-06
3108.95	5.36936e-06
3117.63	5.12882e-06
3126.31	5.13592e-06
3134.98	5.46181e-06
3143.66	6.12399e-06
3152.34	6.37165e-06
3161.02	6.01118e-06
3169.7	5.69108e-06
3178.37	5.78499e-06
3187.05	5.94024e-06
3195.73	6.1281e-06
3204.41	5.99285e-06
3213.09	5.93643e-06
3221.77	6.44747e-06
3230.44	6.97001e-06
3239.12	6.85263e-06
3247.8	5.76722e-06
3256.48	4.06418e-06
3265.16	2.74431e-06
3273.83	1.78748e-06
3282.51	1.38548e-06
3291.19	1.17025e-06
3299.87	1.17771e-06
3308.55	1.60227e-06
3317.22	2.2031e-06
3325.9	2.21065e-06
3334.58	2.08133e-06
3343.26	1.7998e-06
3351.94	1.53009e-06
3360.62	1.25544e-06
3369.29	1.08136e-06
3377.97	1.47094e-06
3386.65	2.10442e-06
3395.33	2.09995e-06
3404.01	1.64119e-06
3412.68	9.98686e-07
3421.36	9.89314e-07
3430.04	1.39736e-06
3438.72	1.62412e-06
3447.4	1.3312e-06
3456.08	8.87884e-07
3464.75	7.57039e-07
3473.43	8.70055e-07
3482.11	1.13341e-06
3490.79	9.39098e-07
3499.47	6.08831e-07
3508.14	3.12797e-07
3516.82	2.37572e-07
3525.5	9.73736e-08
3534.18	5.52679e-08
3542.86	7.80724e-08
3551.53	1.18678e-07
3560.21	7.23881e-08
3568.89	5.79782e-08
3577.57	3.51718e-08
3586.25	1.36993e-07
3594.93	7.94221e-08
3603.6	1.10234e-07
3612.28	2.695e-07
3620.96	1.08231e-07
3629.64	7.714e-07
3638.32	1.44192e-07
3646.99	2.88176e-07
3655.67	1.83075e-07
3664.35	1.31143e-07
3673.03	2.19289e-07
3681.71	2.11287e-07
3690.39	3.84181e-07
3699.06	3.82692e-07
3707.74	4.8227e-07
3716.42	4.03741e-07
3725.1	3.90988e-07
3733.78	3.31555e-07
3742.45	2.99033e-07
3751.13	3.97087e-07
3759.81	5.95074e-07
3768.49	4.02879e-07
3777.17	4.32301e-07
3785.85	5.44566e-07
3794.52	5.31892e-07
3803.2	7.02661e-07
3811.88	6.22455e-07
3820.56	1.05979e-06
3829.24	9.39143e-07
3837.91	2.03534e-06
3846.59	9.1425e-07
3855.27	9.21664e-07
3863.95	9.76063e-07
3872.63	1.11002e-06
3881.3	1.4565e-06
3889.98	1.79162e-06
3898.66	2.05759e-06
3907.34	2.32509e-06
3916.02	2.7738e-06
3924.7	2.89388e-06
3933.37	2.54145e-06
3942.05	1.95115e-06
3950.73	1.87846e-06
3959.41	2.01482e-06
3968.09	2.21048e-06
