Infrared Spectrum: tert-Butyl Methyl Ether
Formula: ( C H3)3 C O C H3
CAS: 1634-04-4
State: gas
Melting point: -109 C
Boiling point: 55.2 C
Class: IUPAC A
Instrument: IFS66V (Bruker)
Instrument parameters: KBr Beam splitter; MCT Detector; Multipass cell
Sampling: 1 L/min Flow
Resolution: 0.4820
Temperature: 23 C
Pressure: 101.3 kPa
Origin: NIST, Anayltical Chemistry Division, 301-975-3108
cm-1	(micromol/mol)-1m-1 (base 10)
574.928	-2.42852e-08
583.606	-3.2018e-07
592.284	-1.12009e-07
600.962	2.81778e-08
609.641	1.81627e-07
618.319	5.07259e-08
626.997	5.64229e-08
635.675	2.23935e-08
644.353	1.48612e-07
653.031	1.75824e-07
661.71	1.62979e-07
670.388	1.31561e-07
679.066	3.71738e-07
687.744	5.56497e-07
696.422	1.12845e-06
705.1	5.7268e-06
713.778	2.05256e-05
722.457	3.16414e-05
731.135	2.50975e-05
739.813	1.52908e-05
748.491	2.57009e-06
757.169	1.14646e-06
765.847	1.1003e-06
774.526	1.18351e-06
783.204	1.07329e-06
791.882	1.01686e-06
800.56	1.07607e-06
809.238	1.42996e-06
817.916	1.85588e-06
826.594	4.64242e-06
835.273	2.11783e-05
843.951	6.73179e-05
852.629	0.000108091
861.307	8.07968e-05
869.985	4.87617e-05
878.663	5.69913e-06
887.342	1.31984e-06
896.02	1.2149e-06
904.698	1.59782e-06
913.376	1.29675e-06
922.054	1.24717e-06
930.732	1.08486e-06
939.41	1.02446e-06
948.089	1.0496e-06
956.767	1.16761e-06
965.445	1.41224e-06
974.123	1.92225e-06
982.801	2.76461e-06
991.479	3.8725e-06
1000.16	7.05861e-06
1008.84	1.85924e-05
1017.51	3.43238e-05
1026.19	3.18445e-05
1034.87	2.37623e-05
1043.55	8.13303e-06
1052.23	8.3706e-06
1060.9	1.68556e-05
1069.58	5.29661e-05
1078.26	0.000192816
1086.94	0.000430702
1095.62	0.000581975
1104.3	0.00044444
1112.97	0.000146597
1121.65	3.17838e-05
1130.33	1.85933e-05
1139.01	1.76246e-05
1147.69	2.11217e-05
1156.36	2.90097e-05
1165.04	3.27639e-05
1173.72	4.00733e-05
1182.4	6.14838e-05
1191.08	0.000142488
1199.76	0.000328872
1208.43	0.000558018
1217.11	0.000514598
1225.79	0.000243247
1234.47	0.000163144
1243.15	0.000116591
1251.82	0.000107788
1260.5	9.4304e-05
1269.18	7.2839e-05
1277.86	3.82928e-05
1286.54	1.49259e-05
1295.21	6.38743e-06
1303.89	3.78944e-06
1312.57	3.02643e-06
1321.25	2.75886e-06
1329.93	2.93776e-06
1338.61	5.72667e-06
1347.28	3.01095e-05
1355.96	0.000132424
1364.64	0.000219462
1373.32	0.000193927
1382	0.000174236
1390.67	0.000159438
1399.35	6.74041e-05
1408.03	1.53391e-05
1416.71	7.86714e-06
1425.39	9.56745e-06
1434.07	1.17488e-05
1442.74	1.88759e-05
1451.42	3.65825e-05
1460.1	6.40929e-05
1468.78	8.48329e-05
1477.46	9.34076e-05
1486.13	7.48579e-05
1494.81	3.59786e-05
1503.49	1.42602e-05
1512.17	5.95244e-06
1520.85	4.62268e-06
1529.52	4.10689e-06
1538.2	4.4447e-06
1546.88	4.49283e-06
1555.56	4.81618e-06
1564.24	5.9371e-06
1572.92	7.16947e-06
1581.59	7.08159e-06
1590.27	5.38948e-06
1598.95	2.05003e-06
1607.63	1.64986e-06
1616.31	2.26248e-06
1624.98	2.25192e-06
1633.66	2.44809e-06
1642.34	2.28934e-06
1651.02	1.70958e-06
1659.7	1.37495e-06
1668.38	1.32242e-06
1677.05	1.38408e-06
1685.73	1.98856e-06
1694.41	3.31625e-06
1703.09	4.53893e-06
1711.77	4.19881e-06
1720.44	3.09024e-06
1729.12	1.39116e-06
1737.8	1.30927e-06
1746.48	1.30683e-06
1755.16	1.21423e-06
1763.84	1.06351e-06
1772.51	1.44662e-06
1781.19	8.77561e-07
1789.87	1.14373e-06
1798.55	2.03662e-06
1807.23	3.39403e-06
1815.9	4.30755e-06
1824.58	4.09618e-06
1833.26	2.555e-06
1841.94	1.14893e-06
1850.62	9.44727e-07
1859.29	8.99517e-07
1867.97	1.00988e-06
1876.65	9.98154e-07
1885.33	1.0921e-06
1894.01	1.15395e-06
1902.69	1.24074e-06
1911.36	1.55623e-06
1920.04	2.59841e-06
1928.72	4.68965e-06
1937.4	7.19448e-06
1946.08	8.29031e-06
1954.75	6.62229e-06
1963.43	3.27447e-06
1972.11	9.05756e-07
1980.79	6.29755e-07
1989.47	5.71051e-07
1998.15	5.23615e-07
2006.82	5.50754e-07
2015.5	6.19597e-07
2024.18	7.38653e-07
2032.86	1.08632e-06
2041.54	1.99341e-06
2050.21	3.46868e-06
2058.89	4.66755e-06
2067.57	4.02929e-06
2076.25	2.10546e-06
2084.93	1.98012e-06
2093.6	2.5956e-06
2102.28	2.52016e-06
2110.96	2.26374e-06
2119.64	2.47758e-06
2128.32	1.65199e-06
2137	1.21185e-06
2145.67	1.50716e-06
2154.35	2.9655e-06
2163.03	5.86039e-06
2171.71	9.20724e-06
2180.39	1.06472e-05
2189.06	7.34575e-06
2197.74	2.4674e-06
2206.42	1.1793e-06
2215.1	1.00829e-06
2223.78	1.1724e-06
2232.46	1.17097e-06
2241.13	9.13188e-07
2249.81	1.05381e-06
2258.49	1.52264e-06
2267.17	2.28719e-06
2275.85	2.59361e-06
2284.52	2.45258e-06
2293.2	1.98687e-06
2301.88	1.55953e-06
2310.56	1.09378e-06
2319.24	6.28541e-07
2327.92	6.9853e-07
2336.59	9.01328e-07
2345.27	1.43327e-06
2353.95	1.9002e-06
2362.63	1.80776e-06
2371.31	1.85748e-06
2379.98	1.73642e-06
2388.66	1.59517e-06
2397.34	1.28182e-06
2406.02	1.23064e-06
2414.7	1.33426e-06
2423.37	1.21347e-06
2432.05	7.01331e-07
2440.73	4.68362e-07
2449.41	4.10189e-07
2458.09	5.38289e-07
2466.77	7.04416e-07
2475.44	8.72597e-07
2484.12	8.01395e-07
2492.8	5.92636e-07
2501.48	4.90946e-07
2510.16	3.83777e-07
2518.83	3.71132e-07
2527.51	3.88192e-07
2536.19	5.32446e-07
2544.87	8.11383e-07
2553.55	1.10081e-06
2562.23	1.54075e-06
2570.9	2.24104e-06
2579.58	3.08729e-06
2588.26	3.90644e-06
2596.94	4.14517e-06
2605.62	4.36306e-06
2614.29	4.74813e-06
2622.97	4.97964e-06
2631.65	4.50037e-06
2640.33	4.17878e-06
2649.01	3.93103e-06
2657.68	3.80847e-06
2666.36	3.47799e-06
2675.04	3.20457e-06
2683.72	3.00983e-06
2692.4	2.84954e-06
2701.08	3.0301e-06
2709.75	3.902e-06
2718.43	5.63797e-06
2727.11	6.97935e-06
2735.79	7.00767e-06
2744.47	6.36973e-06
2753.14	5.57524e-06
2761.82	5.59687e-06
2770.5	5.7677e-06
2779.18	6.3409e-06
2787.86	8.13637e-06
2796.54	1.11449e-05
2805.21	1.8743e-05
2813.89	4.78479e-05
2822.57	0.000104619
2831.25	0.00013334
2839.93	0.000124532
2848.6	8.65442e-05
2857.28	4.38508e-05
2865.96	5.77301e-05
2874.64	9.46333e-05
2883.32	0.000137804
2892	0.0001912
2900.67	0.0002404
2909.35	0.000268657
2918.03	0.000292264
2926.71	0.000275233
2935.39	0.000284434
2944.06	0.000307503
2952.74	0.000305565
2961.42	0.000327625
2970.1	0.000590595
2978.78	0.000844336
2987.45	0.00106332
2996.13	0.00052625
3004.81	0.000144833
3013.49	3.88289e-05
3022.17	2.20761e-05
3030.85	1.60925e-05
3039.52	1.28976e-05
3048.2	1.09513e-05
3056.88	1.00038e-05
3065.56	9.71396e-06
3074.24	9.3006e-06
3082.91	8.37937e-06
3091.59	7.05311e-06
3100.27	5.94169e-06
3108.95	5.29988e-06
3117.63	5.06417e-06
3126.31	5.07512e-06
3134.98	5.40944e-06
3143.66	6.09143e-06
3152.34	6.33392e-06
3161.02	5.97883e-06
3169.7	5.66432e-06
3178.37	5.74978e-06
3187.05	5.90257e-06
3195.73	6.10142e-06
3204.41	5.95601e-06
3213.09	5.91969e-06
3221.77	6.42812e-06
3230.44	6.96075e-06
3239.12	6.83896e-06
3247.8	5.74778e-06
3256.48	4.04437e-06
3265.16	2.72633e-06
3273.83	1.76602e-06
3282.51	1.36044e-06
3291.19	1.15e-06
3299.87	1.15928e-06
3308.55	1.58116e-06
3317.22	2.19869e-06
3325.9	2.19486e-06
3334.58	2.07518e-06
3343.26	1.78143e-06
3351.94	1.51867e-06
3360.62	1.24649e-06
3369.29	1.05976e-06
3377.97	1.46604e-06
3386.65	2.11298e-06
3395.33	2.09648e-06
3404.01	1.63161e-06
3412.68	1.00463e-06
3421.36	9.81382e-07
3430.04	1.38747e-06
3438.72	1.60862e-06
3447.4	1.32428e-06
3456.08	8.76892e-07
3464.75	7.38149e-07
3473.43	8.67168e-07
3482.11	1.13604e-06
3490.79	9.31774e-07
3499.47	6.02701e-07
3508.14	3.10003e-07
3516.82	2.20053e-07
3525.5	8.67763e-08
3534.18	5.43802e-08
3542.86	7.9293e-08
3551.53	1.13272e-07
3560.21	6.16798e-08
3568.89	5.84238e-08
3577.57	2.0549e-08
3586.25	1.44045e-07
3594.93	8.39841e-08
3603.6	1.05601e-07
3612.28	2.84321e-07
3620.96	1.0613e-07
3629.64	7.21926e-07
3638.32	1.31505e-07
3646.99	2.87026e-07
3655.67	1.70993e-07
3664.35	1.34002e-07
3673.03	2.01874e-07
3681.71	2.10663e-07
3690.39	3.69999e-07
3699.06	3.79599e-07
3707.74	4.74261e-07
3716.42	3.87284e-07
3725.1	3.88934e-07
3733.78	3.15251e-07
3742.45	2.84934e-07
3751.13	3.69797e-07
3759.81	5.78665e-07
3768.49	3.9487e-07
3777.17	4.38358e-07
3785.85	5.44113e-07
3794.52	5.26247e-07
3803.2	6.96307e-07
3811.88	6.23663e-07
3820.56	1.06264e-06
3829.24	9.32693e-07
3837.91	1.94656e-06
3846.59	9.06632e-07
3855.27	8.80879e-07
3863.95	9.76654e-07
3872.63	1.10129e-06
3881.3	1.45362e-06
3889.98	1.78187e-06
3898.66	2.0529e-06
3907.34	2.326e-06
3916.02	2.77474e-06
3924.7	2.90862e-06
3933.37	2.52442e-06
3942.05	1.96291e-06
3950.73	1.85896e-06
3959.41	2.00797e-06
3968.09	2.19608e-06
