Infrared Spectrum: 4-HEPTANONE, (2,4-DINITROPHENYL)HYDRAZONE
Formula: C13 H18 N4 O4
CAS: 1655-41-0
State: SOLID (1.1 mg / 286 mg KBr DISC)
Class: COBLENTZ III
Instrument: PERKIN-ELMER 21 (GRATING)
Instrument parameters: NaCl PRISM
Sampling: TRANSMISSION
Resolution: 4
Origin: E. REGION RESEARCH LAB.
1/CM	TRANSMITTANCE
598.371	0.914
607.546	0.897
616.721	0.89
625.895	0.884
635.07	0.892
644.245	0.87
653.42	0.783
662.595	0.921
671.77	0.915
680.944	0.829
690.119	0.9
699.294	0.916
708.469	0.876
717.644	0.7291
726.819	0.708
735.993	0.6231
745.168	0.4047
754.343	0.836
763.518	0.7848
772.693	0.842
781.868	0.877
791.042	0.876
800.217	0.869
809.392	0.87
818.567	0.849
827.742	0.75
836.916	0.6639
846.091	0.387
855.266	0.816
864.441	0.863
873.616	0.866
882.791	0.86
891.965	0.853
901.14	0.816
910.315	0.736
919.49	0.4759
928.665	0.5519
937.84	0.826
947.014	0.856
956.189	0.871
965.364	0.87
974.539	0.863
983.714	0.854
992.889	0.842
1002.06	0.84
1011.24	0.825
1020.41	0.791
1029.59	0.725
1038.76	0.628
1047.94	0.528
1057.11	0.484
1066.29	0.423
1075.46	0.29
1084.64	0.4969
1093.81	0.533
1102.99	0.53
1112.16	0.501
1121.34	0.323
1130.51	0.247
1139.69	0.147
1148.86	0.3541
1158.04	0.753
1167.21	0.814
1176.39	0.781
1185.56	0.729
1194.73	0.714
1203.91	0.597
1213.08	0.426
1222.26	0.169
1231.43	0.4259
1240.61	0.528
1249.78	0.319
1258.96	0.046
1268.13	0.018
1277.31	0.143
1286.48	0.221
1295.66	0.173
1304.83	0.057
1314.01	0.053
1323.18	0.3
1332.36	0.121
1341.53	0.016
1350.71	0.084
1359.88	0.159
1369.06	0.37
1378.23	0.526
1387.41	0.567
1396.58	0.625
1405.76	0.504
1414.93	0.156
1424.11	0.092
1433.28	0.316
1442.46	0.528
1451.63	0.505
1460.8	0.416
1469.98	0.377
1479.15	0.511
1488.33	0.545
1497.5	0.281
1506.68	0.191
1515.85	0.2969
1525.03	0.432
1534.2	0.578
1543.38	0.647
1552.55	0.654
1561.73	0.642
1570.9	0.567
1580.08	0.2569
1589.25	0.078
1598.43	0.073
1607.6	0.26
1616.78	0.088
1625.95	0.019
1635.13	0.247
1644.3	0.546
1653.48	0.673
1662.65	0.732
1671.83	0.777
1681	0.79
1690.18	0.814
1699.35	0.833
1708.52	0.852
1717.7	0.857
1726.87	0.857
1736.05	0.864
1745.22	0.86
1754.4	0.87
1763.57	0.867
1772.75	0.878
1781.92	0.874
1791.1	0.877
1800.27	0.881
1809.45	0.881
1818.62	0.866
1827.8	0.845
1836.97	0.863
1846.15	0.877
1855.32	0.88
1864.5	0.881
1873.67	0.892
1882.85	0.894
1892.02	0.895
1901.2	0.897
1910.37	0.897
1919.55	0.895
1928.72	0.892
1937.9	0.887
1947.07	0.883
1956.25	0.88
1965.42	0.876
1974.59	0.869
1983.77	0.856
1992.94	0.857
2002.12	0.8762
2011.29	0.8879
2020.47	0.89
2029.64	0.89
2038.82	0.887
2047.99	0.8831
2057.17	0.881
2066.34	0.8834
2075.52	0.8863
2084.69	0.888
2093.87	0.891
2103.04	0.892
2112.22	0.892
2121.39	0.892
2130.57	0.892
2139.74	0.892
2148.92	0.891
2158.09	0.891
2167.27	0.888
2176.44	0.8865
2185.62	0.8845
2194.79	0.884
2203.97	0.8899
2213.14	0.8942
2222.32	0.897
2231.49	0.897
2240.66	0.8952
2249.84	0.884
2259.01	0.8822
2268.19	0.8843
2277.36	0.8879
2286.54	0.8922
2295.71	0.8933
2304.89	0.8914
2314.06	0.8902
2323.24	0.89
2332.41	0.89
2341.59	0.8875
2350.76	0.887
2359.94	0.89
2369.11	0.892
2378.29	0.89
2387.46	0.8873
2396.64	0.887
2405.81	0.888
2414.99	0.89
2424.16	0.89
2433.34	0.89
2442.51	0.891
2451.69	0.8914
2460.86	0.8946
2470.04	0.897
2479.21	0.9012
2488.39	0.905
2497.56	0.907
2506.73	0.905
2515.91	0.901
2525.08	0.9
2534.26	0.9
2543.43	0.9008
2552.61	0.902
2561.78	0.9054
2570.96	0.9085
2580.13	0.9117
2589.31	0.911
2598.48	0.9066
2607.66	0.9012
2616.83	0.8957
2626.01	0.894
2635.18	0.8909
2644.36	0.89
2653.53	0.89
2662.71	0.8908
2671.88	0.8951
2681.06	0.897
2690.23	0.895
2699.41	0.8912
2708.58	0.881
2717.76	0.8777
2726.93	0.876
2736.11	0.874
2745.28	0.8711
2754.46	0.8664
2763.63	0.8563
2772.8	0.8403
2781.98	0.8188
2791.15	0.8074
2800.33	0.7968
2809.5	0.7806
2818.68	0.7549
2827.85	0.657
2837.03	0.5853
2846.2	0.4933
2855.38	0.5031
2864.55	0.5505
2873.73	0.5899
2882.9	0.602
2892.08	0.5901
2901.25	0.4779
2910.43	0.3708
2919.6	0.368
2928.78	0.339
2937.95	0.2921
2947.13	0.3593
2956.3	0.5576
2965.48	0.7025
2974.65	0.7819
2983.83	0.8083
2993	0.8272
3002.18	0.8433
3011.35	0.8537
3020.53	0.8526
3029.7	0.842
3038.87	0.7733
3048.05	0.7532
3057.22	0.7468
3066.4	0.7018
3075.57	0.6317
3084.75	0.6563
3093.92	0.7497
3103.1	0.8206
3112.27	0.8424
3121.45	0.849
3130.62	0.8529
3139.8	0.853
3148.97	0.852
3158.15	0.85
3167.32	0.85
3176.5	0.849
3185.67	0.8466
3194.85	0.8438
3204.02	0.8403
3213.2	0.8359
3222.37	0.8327
3231.55	0.8284
3240.72	0.8199
3249.9	0.8049
3259.07	0.7749
3268.25	0.693
3277.42	0.4597
3286.6	0.4342
3295.77	0.5421
3304.94	0.7079
3314.12	0.7388
3323.29	0.7429
3332.47	0.7417
3341.64	0.7386
3350.82	0.7354
3359.99	0.733
3369.17	0.729
3378.34	0.7273
3387.52	0.7238
3396.69	0.723
3405.87	0.723
3415.04	0.723
3424.22	0.7271
3433.39	0.7298
3442.57	0.736
3451.74	0.7393
3460.92	0.743
3470.09	0.7457
3479.27	0.7539
3488.44	0.7632
3497.62	0.7679
3506.79	0.773
3515.97	0.7779
3525.14	0.7831
3534.32	0.7874
3543.49	0.791
3552.67	0.8034
3561.84	0.8153
3571.01	0.8264
3580.19	0.8367
3589.36	0.8416
3598.54	0.8472
3607.71	0.8549
3616.89	0.8621
3626.06	0.8668
3635.24	0.871
3644.41	0.874
3653.59	0.8765
3662.76	0.8794
3671.94	0.8781
3681.11	0.877
3690.29	0.876
3699.46	0.874
3708.64	0.873
3717.81	0.873
3726.99	0.8764
3736.16	0.8862
3745.34	0.887
3754.51	0.8849
3763.69	0.8823
3772.86	0.8789
3782.04	0.8772
3791.21	0.877
3800.39	0.877
3809.56	0.878
3818.73	0.88
3827.91	0.88
3837.08	0.8796
3846.26	0.878
3855.43	0.877
3864.61	0.877
3873.78	0.877
3882.96	0.876
3892.13	0.8747
3901.31	0.874
3910.48	0.873
3919.66	0.873
3928.83	0.873
3938.01	0.8713
3947.18	0.871
3956.36	0.871
3965.53	0.87
3974.71	0.87
3983.88	0.869
3993.06	0.867
