Infrared Spectrum: 5-Chlorobenzo[b]thiophene-3-acetic acid
Formula: C10 H7 Cl O2 S
CAS: 17266-30-7
State: gas
Origin: EPA-IR VAPOR PHASE LIBRARY
1/CM	ABSORBANCE
549.8	0.002852
559.445	0.003602
569.09	0.005752
578.734	0.009602
588.379	0.008452
598.024	0.012812
607.669	0.022562
617.313	0.016382
626.958	0.012482
636.603	0.010182
646.248	0.007162
655.893	0.005262
665.537	0.004212
675.182	0.002932
684.827	0.002812
694.472	0.002592
704.116	0.002242
713.761	0.002202
723.406	0.001832
733.051	0.001722
742.695	0.002172
752.34	0.003292
761.985	0.004532
771.63	0.006812
781.275	0.007832
790.919	0.006332
800.564	0.008782
810.209	0.003802
819.854	0.004482
829.498	0.011262
839.143	0.016692
848.788	0.006672
858.433	0.006742
868.078	0.007072
877.722	0.003952
887.367	0.002762
897.012	0.002302
906.657	0.001962
916.301	0.001892
925.946	0.002032
935.591	0.002702
945.236	0.002152
954.88	0.001662
964.525	0.0014746
974.17	0.001712
983.815	0.001822
993.46	0.002162
1003.1	0.001802
1012.75	0.001732
1022.39	0.002882
1032.04	0.004302
1041.68	0.005112
1051.33	0.003452
1060.97	0.004832
1070.62	0.012062
1080.26	0.025162
1089.91	0.019942
1099.55	0.022182
1109.2	0.035122
1118.84	0.040492
1128.49	0.024882
1138.13	0.016162
1147.78	0.012452
1157.42	0.008432
1167.07	0.005762
1176.71	0.005992
1186.36	0.005512
1196	0.005122
1205.64	0.006592
1215.29	0.004732
1224.93	0.004482
1234.58	0.004012
1244.22	0.004072
1253.87	0.005792
1263.51	0.003812
1273.16	0.002802
1282.8	0.002912
1292.45	0.003252
1302.09	0.003672
1311.74	0.003342
1321.38	0.003982
1331.03	0.005062
1340.67	0.005992
1350.32	0.007062
1359.96	0.007522
1369.61	0.007132
1379.25	0.005712
1388.9	0.004182
1398.54	0.003622
1408.18	0.005662
1417.83	0.012142
1427.47	0.015602
1437.12	0.011072
1446.76	0.005442
1456.41	0.002612
1466.05	0.001852
1475.7	0.001852
1485.34	0.0015471
1494.99	0.0016022
1504.63	0.001952
1514.28	0.003102
1523.92	0.003072
1533.57	0.002042
1543.21	0.002512
1552.86	0.003192
1562.5	0.003102
1572.15	0.003792
1581.79	0.004972
1591.44	0.004812
1601.08	0.003422
1610.73	0.001822
1620.37	0.0010946
1630.01	0.0008716
1639.66	0.0008454
1649.3	0.0008343
1658.95	0.00069998
1668.59	0.0009287
1678.24	0.0009055
1687.88	0.0011509
1697.53	0.001762
1707.17	0.002352
1716.82	0.003372
1726.46	0.004992
1736.11	0.007152
1745.75	0.010952
1755.4	0.017202
1765.04	0.025142
1774.69	0.036872
1784.33	0.042112
1793.98	0.029522
1803.62	0.019082
1813.27	0.010602
1822.91	0.005052
1832.55	0.002902
1842.2	0.001822
1851.84	0.001662
1861.49	0.001602
1871.13	0.001962
1880.78	0.0015492
1890.42	0.0007998
1900.07	0.0009851
1909.71	0.000852
1919.36	0.0009027
1929	0.00068524
1938.65	0.00072899
1948.29	0.000798
1957.94	0.000805
1967.58	0.00069676
1977.23	0.0007805
1986.87	0.0008284
1996.52	0.0007571
2006.16	0.0009774
2015.81	0.00067997
2025.45	0.0009282
2035.1	0.0008921
2044.74	0.0008529
2054.38	0.0008142
2064.03	0.0008665
2073.67	0.00066539
2083.32	0.0008471
2092.96	0.00068428
2102.61	0.0006986
2112.25	0.00075069
2121.9	0.0006258
2131.54	0.0007741
2141.19	0.0008059
2150.83	0.00071084
2160.48	0.0008711
2170.12	0.00071209
2179.77	0.0007866
2189.41	0.0007238
2199.06	0.0008588
2208.7	0.00071326
2218.35	0.0009156
2227.99	0.00068759
2237.64	0.0009407
2247.28	0.0008033
2256.92	0.0008412
2266.57	0.0007936
2276.21	0.0008197
2285.86	0.00072673
2295.5	0.0008097
2305.15	0.0011148
2314.79	0.0009676
2324.44	0.0010417
2334.08	0.0010055
2343.73	0.0010445
2353.37	0.0009732
2363.02	0.0011373
2372.66	0.0008754
2382.31	0.00067323
2391.95	0.00074833
2401.6	0.000513
2411.24	0.0009197
2420.89	0.0010405
2430.53	0.0008287
2440.18	0.0008554
2449.82	0.000659288
2459.47	0.0007937
2469.11	0.0009605
2478.75	0.0009024
2488.4	0.000819
2498.04	0.000796
2507.69	0.00067164
2517.33	0.00072172
2526.98	0.000528
2536.62	0.0007983
2546.27	0.0008128
2555.91	0.0008236
2565.56	0.00072509
2575.2	0.000772
2584.85	0.0007587
2594.49	0.0009564
2604.14	0.0008211
2613.78	0.0008463
2623.43	0.0008825
2633.07	0.00074859
2642.72	0.000538
2652.36	0.00074522
2662.01	0.00065004
2671.65	0.00068695
2681.29	0.0009475
2690.94	0.001015
2700.58	0.0006397
2710.23	0.0008515
2719.87	0.00067044
2729.52	0.00064419
2739.16	0.0006731
2748.81	0.0008571
2758.45	0.0006062
2768.1	0.00072917
2777.74	0.0008315
2787.39	0.000657621
2797.03	0.0011125
2806.68	0.0008409
2816.32	0.0007638
2825.97	0.00073316
2835.61	0.00069759
2845.26	0.0010736
2854.9	0.0009411
2864.55	0.0008055
2874.19	0.0009162
2883.84	0.0007907
2893.48	0.0008838
2903.12	0.001001
2912.77	0.0011321
2922.41	0.001467
2932.06	0.002252
2941.7	0.002212
2951.35	0.0016095
2960.99	0.0013414
2970.64	0.0015139
2980.28	0.0009765
2989.93	0.0012229
2999.57	0.0010909
3009.22	0.0005901
3018.86	0.0007829
3028.51	0.000778
3038.15	0.00074238
3047.8	0.0008312
3057.44	0.001372
3067.09	0.001892
3076.73	0.002022
3086.38	0.002042
3096.02	0.0010293
3105.67	0.00068395
3115.31	0.0006864
3124.95	0.0009324
3134.6	0.0010781
3144.24	0.0011813
3153.89	0.000512
3163.53	0.0007578
3173.18	0.00054
3182.82	0.0009888
3192.47	0.0010035
3202.11	0.0008112
3211.76	0.0008811
3221.4	0.00069739
3231.05	0.00073039
3240.69	0.000495
3250.34	0.000428
3259.98	0.0008129
3269.63	0.0009397
3279.27	0.000415
3288.92	0.000479
3298.56	0.000544
3308.21	0.000451
3317.85	0.00066926
3327.49	0.0007129
3337.14	0.0008053
3346.78	0.0006062
3356.43	0.000268
3366.07	0.00067523
3375.72	0.000294
3385.36	0.00071923
3395.01	0.000506
3404.65	0.0007545
3414.3	0.000507
3423.94	0.000502
3433.59	0.000209
3443.23	0.0008511
3452.88	0.0008829
3462.52	0.0010025
3472.17	0.000508
3481.81	0.0011016
3491.46	0.0008293
3501.1	0.0008531
3510.75	0.00068003
3520.39	0.0011839
3530.04	0.00115
3539.68	0.001862
3549.32	0.002652
3558.97	0.005452
3568.61	0.020232
3578.26	0.019782
3587.9	0.004742
3597.55	0.002432
3607.19	0.0013741
3616.84	0.0005803
3626.48	0.00071938
3636.13	0.0010245
3645.77	0.000761
3655.42	0.000911
3665.06	0.00067275
3674.71	0.00072043
3684.35	0.000438
3694	0.00067824
3703.64	0.000352
3713.29	0.000278
3722.93	0.0008454
3732.58	0.000502
3742.22	0.00066733
3751.86	0.0009671
3761.51	0.000469
3771.15	0.000429
3780.8	0.00068837
3790.44	0.00071885
3800.09	0.00068211
3809.73	0.0009047
3819.38	0.00038
3829.02	0.0006222
3838.67	0.0010107
3848.31	0.000365
3857.96	0.00073089
3867.6	0.0007593
3877.25	0.0009746
3886.89	0.00071942
3896.54	0.0008043
3906.18	0.000385
3915.83	0.0008221
3925.47	0.000541
3935.12	0.000469
3944.76	0.0011772
3954.41	0.0007453
3964.05	0.0013064
3973.69	0.0007813
3983.34	0.0008191
3992.98	0.0008383
