Infrared Spectrum: Styrene, p-tert-butyl-
Formula: C12 H16
CAS: 1746-23-2
State: SOLUTION (10% CCl4 FOR 3800-1330, 10% CS2 FOR 1330-400 CM^-^1)
Class: COBLENTZ III
Instrument: DOW KBr FOREPRISM-GRATING
Instrument parameters: BLAZED AT 3.5, 12.0, 20.0 MICRON AND CHANGED AT 5.0, 7.5, 14.9 MICRON
Sampling: TRANSMISSION
Path length: 0.010 CM, 0.010 CM
Resolution: 2
Origin: DOW CHEMICAL COMPANY
1/CM	TRANSMITTANCE
3800	0.9149
3791	0.9156
3782	0.9145
3773	0.9152
3764	0.915
3755	0.9148
3746	0.9149
3737	0.9159
3728	0.9161
3719	0.9156
3710	0.9179
3701	0.9195
3692	0.9189
3683	0.9171
3674	0.9162
3665	0.9154
3656	0.9147
3647	0.9138
3638	0.9138
3629	0.9138
3620	0.915
3611	0.9149
3602	0.9141
3593	0.9143
3584	0.914
3575	0.9132
3566	0.9123
3557	0.9118
3548	0.9121
3539	0.9114
3530	0.9113
3521	0.9099
3512	0.9095
3503	0.9092
3494	0.9089
3485	0.9085
3476	0.9081
3467	0.9069
3458	0.9049
3449	0.903
3440	0.9016
3431	0.9004
3422	0.9
3413	0.8995
3404	0.8996
3395	0.9
3386	0.9003
3377	0.9
3368	0.8997
3359	0.8996
3350	0.8995
3341	0.8994
3332	0.8992
3323	0.8983
3314	0.8956
3305	0.895
3296	0.8937
3287	0.8936
3278	0.8939
3269	0.8934
3260	0.8929
3251	0.8914
3242	0.8886
3233	0.8876
3224	0.8881
3215	0.8876
3206	0.8867
3197	0.8875
3188	0.8876
3179	0.8865
3170	0.8861
3161	0.886
3152	0.8856
3143	0.8825
3134	0.8786
3125	0.8537
3116	0.8533
3107	0.8572
3098	0.7964
3089	0.541
3080	0.5932
3071	0.7256
3062	0.7074
3053	0.678
3044	0.6758
3035	0.6267
3026	0.6607
3017	0.6494
3008	0.5554
2999	0.5743
2990	0.5326
2981	0.3544
2972	0.0889
2963	0.0208
2954	0.08
2945	0.1842
2936	0.3252
2927	0.3814
2918	0.4433
2909	0.4164
2900	0.3276
2891	0.4451
2882	0.5423
2873	0.4966
2864	0.363
2855	0.5248
2846	0.7357
2837	0.8066
2828	0.827
2819	0.8372
2810	0.8554
2801	0.8605
2792	0.8606
2783	0.8748
2774	0.8792
2765	0.8802
2756	0.8866
2747	0.8895
2738	0.883
2729	0.8806
2720	0.8821
2711	0.8804
2702	0.8774
2693	0.8838
2684	0.8865
2675	0.8885
2666	0.8883
2657	0.8887
2648	0.8879
2639	0.8871
2630	0.8869
2621	0.8879
2612	0.8887
2603	0.8895
2594	0.8904
2585	0.8912
2576	0.8901
2567	0.8876
2558	0.8858
2549	0.8844
2540	0.8843
2531	0.8863
2522	0.8875
2513	0.8877
2504	0.8879
2495	0.8881
2486	0.8877
2477	0.888
2468	0.8876
2459	0.8869
2450	0.8858
2441	0.8859
2432	0.8855
2423	0.8848
2414	0.8843
2405	0.8845
2396	0.8835
2387	0.8838
2378	0.8892
2369	0.8939
2360	0.8983
2351	0.9034
2342	0.9085
2333	0.912
2324	0.9148
2315	0.9077
2306	0.8953
2297	0.882
2288	0.8766
2279	0.8754
2270	0.8803
2261	0.8828
2252	0.8822
2243	0.8816
2234	0.8817
2225	0.8828
2216	0.8826
2207	0.882
2198	0.8827
2189	0.8855
2180	0.8855
2171	0.8856
2162	0.8841
2153	0.8832
2144	0.8815
2135	0.8798
2126	0.8793
2117	0.879
2108	0.879
2099	0.8795
2090	0.88
2081	0.8805
2072	0.8807
2063	0.8804
2054	0.881
2045	0.8798
2036	0.8797
2027	0.8802
2018	0.8805
2009	0.8803
2000	0.8807
1991	0.8827
1982	0.8779
1973	0.8701
1964	0.8737
1955	0.8799
1946	0.8798
1937	0.8825
1928	0.8803
1919	0.8733
1910	0.8249
1901	0.793
1892	0.8438
1883	0.8683
1874	0.8763
1865	0.8785
1856	0.879
1847	0.8759
1838	0.8701
1829	0.857
1820	0.8201
1811	0.7759
1802	0.8188
1793	0.8452
1784	0.8387
1775	0.851
1766	0.8739
1757	0.8824
1748	0.8838
1739	0.8781
1730	0.8823
1721	0.8844
1712	0.8869
1703	0.8862
1694	0.8839
1685	0.879
1676	0.8637
1667	0.8008
1658	0.8371
1649	0.8528
1640	0.8347
1631	0.3054
1622	0.7918
1613	0.7159
1604	0.7968
1595	0.7944
1586	0.7711
1577	0.7503
1568	0.7187
1559	0.6293
1550	0.6464
1541	0.6758
1532	0.7128
1523	0.7147
1514	0.089
1505	0.5694
1496	0.7355
1487	0.7165
1478	0.4815
1469	0.5127
1460	0.5227
1451	0.6729
1442	0.7561
1433	0.7969
1424	0.789
1415	0.7829
1406	0.5313
1397	0.5968
1388	0.7904
1379	0.8129
1370	0.6074
1361	0.488
1352	0.7797
1343	0.8219
1334	0.8412
1325	0.8185
1316	0.7811
1307	0.8165
1298	0.7784
1289	0.7435
1280	0.7021
1271	0.5302
1262	0.5349
1253	0.7862
1244	0.8216
1235	0.8266
1226	0.8267
1217	0.8291
1208	0.7731
1199	0.6738
1190	0.7875
1181	0.8202
1172	0.8516
1163	0.8795
1154	0.8734
1145	0.8747
1136	0.8611
1127	0.6799
1118	0.7289
1109	0.3994
1100	0.7219
1091	0.8466
1082	0.8716
1073	0.8692
1064	0.8673
1055	0.8669
1046	0.8614
1037	0.8452
1028	0.7739
1019	0.7228
1010	0.5541
1001	0.7869
992	0.749
983	0.1106
974	0.7318
965	0.8153
956	0.8266
947	0.828
938	0.8211
929	0.7997
920	0.7695
911	0.6426
902	0.1199
893	0.3963
884	0.7602
875	0.8018
866	0.8027
857	0.7788
848	0.6826
839	0.142
830	0.2969
821	0.7606
812	0.8339
803	0.8659
794	0.8784
785	0.889
776	0.8967
767	0.9014
758	0.9002
749	0.8927
740	0.9043
731	0.9091
722	0.9117
713	0.9106
704	0.9097
695	0.9172
686	0.9174
677	0.9207
668	0.9256
659	0.91
650	0.808
641	0.7411
632	0.805
623	0.8652
614	0.8911
605	0.8941
596	0.897
587	0.8983
578	0.8955
569	0.8882
560	0.8726
551	0.8461
542	0.788
533	0.5594
524	0.3951
515	0.7203
506	0.8165
497	0.8642
488	0.8733
479	0.8728
470	0.8656
461	0.8532
452	0.833
443	0.8124
434	0.791
425	0.7644
416	0.7235
407	0.5572
398	0.3158
389	0.1911
