Infrared Spectrum: 2-Amino-6-fluorobenzylamine
Formula: C 7 H 9 F N 2
CAS: 175277-93-7
State: gas
Origin: EPA-IR VAPOR PHASE LIBRARY
1/CM	ABSORBANCE
549.8	0.015914
559.445	0.017574
569.09	0.016174
578.734	0.015074
588.379	0.013444
598.024	0.012574
607.669	0.011264
617.313	0.012674
626.958	0.011584
636.603	0.011664
646.248	0.012364
655.893	0.012124
665.537	0.013824
675.182	0.015334
684.827	0.015534
694.472	0.015564
704.116	0.018744
713.761	0.024384
723.406	0.030714
733.051	0.022174
742.695	0.015834
752.34	0.014634
761.985	0.021354
771.63	0.030494
781.275	0.032274
790.919	0.027724
800.564	0.022404
810.209	0.021474
819.854	0.024614
829.498	0.027044
839.143	0.023924
848.788	0.018554
858.433	0.014444
868.078	0.012664
877.722	0.011584
887.367	0.011234
897.012	0.011824
906.657	0.013854
916.301	0.017264
925.946	0.016574
935.591	0.013134
945.236	0.009234
954.88	0.008544
964.525	0.008444
974.17	0.008994
983.815	0.010334
993.46	0.011774
1003.1	0.014394
1012.75	0.017484
1022.39	0.017014
1032.04	0.014764
1041.68	0.012384
1051.33	0.012334
1060.97	0.011464
1070.62	0.007614
1080.26	0.004744
1089.91	0.004304
1099.55	0.005244
1109.2	0.007554
1118.84	0.010674
1128.49	0.013454
1138.13	0.014364
1147.78	0.014964
1157.42	0.012674
1167.07	0.010104
1176.71	0.008574
1186.36	0.008594
1196	0.007254
1205.64	0.007024
1215.29	0.008654
1224.93	0.010324
1234.58	0.017034
1244.22	0.023954
1253.87	0.023954
1263.51	0.016294
1273.16	0.011324
1282.8	0.010874
1292.45	0.011854
1302.09	0.015474
1311.74	0.015304
1321.38	0.012084
1331.03	0.008194
1340.67	0.006424
1350.32	0.005984
1359.96	0.006644
1369.61	0.008774
1379.25	0.011734
1388.9	0.012284
1398.54	0.009204
1408.18	0.005854
1417.83	0.004794
1427.47	0.004834
1437.12	0.006404
1446.76	0.010774
1456.41	0.028534
1466.05	0.054124
1475.7	0.056364
1485.34	0.030914
1494.99	0.014274
1504.63	0.008554
1514.28	0.006824
1523.92	0.007404
1533.57	0.008964
1543.21	0.011824
1552.86	0.015264
1562.5	0.019204
1572.15	0.024444
1581.79	0.031344
1591.44	0.035704
1601.08	0.037164
1610.73	0.048644
1620.37	0.067364
1630.01	0.068384
1639.66	0.046884
1649.3	0.022614
1658.95	0.012344
1668.59	0.007844
1678.24	0.005254
1687.88	0.004694
1697.53	0.004564
1707.17	0.003814
1716.82	0.003204
1726.46	0.002964
1736.11	0.002764
1745.75	0.002604
1755.4	0.002414
1765.04	0.002214
1774.69	0.002094
1784.33	0.002434
1793.98	0.002714
1803.62	0.002614
1813.27	0.002054
1822.91	0.001964
1832.55	0.001804
1842.2	0.001954
1851.84	0.001824
1861.49	0.001634
1871.13	0.001814
1880.78	0.002124
1890.42	0.002944
1900.07	0.002844
1909.71	0.002274
1919.36	0.001534
1929	0.001544
1938.65	0.001844
1948.29	0.001624
1957.94	0.0014764
1967.58	0.0014635
1977.23	0.0012902
1986.87	0.0012406
1996.52	0.0011564
2006.16	0.0012271
2015.81	0.0012126
2025.45	0.0013563
2035.1	0.0013208
2044.74	0.0010989
2054.38	0.001481
2064.03	0.0011929
2073.67	0.0013959
2083.32	0.0012224
2092.96	0.0012228
2102.61	0.0012558
2112.25	0.0013086
2121.9	0.0013725
2131.54	0.001554
2141.19	0.0015155
2150.83	0.001534
2160.48	0.001244
2170.12	0.0013182
2179.77	0.0014713
2189.41	0.0010528
2199.06	0.0013743
2208.7	0.0010931
2218.35	0.0013016
2227.99	0.0010668
2237.64	0.0012121
2247.28	0.0014041
2256.92	0.001554
2266.57	0.0013806
2276.21	0.001544
2285.86	0.0012921
2295.5	0.0014134
2305.15	0.0012275
2314.79	0.0013642
2324.44	0.0014437
2334.08	0.0009999
2343.73	0.0012551
2353.37	0.001194
2363.02	0.0012331
2372.66	0.0010834
2382.31	0.0010864
2391.95	0.0010283
2401.6	0.001132
2411.24	0.0010043
2420.89	0.0011674
2430.53	0.00136
2440.18	0.0013186
2449.82	0.0010831
2459.47	0.001458
2469.11	0.0013641
2478.75	0.0012871
2488.4	0.0011506
2498.04	0.0012669
2507.69	0.0013334
2517.33	0.0011445
2526.98	0.0009904
2536.62	0.0010689
2546.27	0.0008544
2555.91	0.0012867
2565.56	0.0010607
2575.2	0.0010652
2584.85	0.0011356
2594.49	0.0011299
2604.14	0.0013055
2613.78	0.0010414
2623.43	0.0013288
2633.07	0.0013686
2642.72	0.0014059
2652.36	0.001604
2662.01	0.0012541
2671.65	0.0013254
2681.29	0.0009197
2690.94	0.0011784
2700.58	0.0006761
2710.23	0.0012155
2719.87	0.000862
2729.52	0.0010212
2739.16	0.001644
2748.81	0.001794
2758.45	0.002254
2768.1	0.002194
2777.74	0.0014537
2787.39	0.001704
2797.03	0.001864
2806.68	0.001764
2816.32	0.001624
2825.97	0.002104
2835.61	0.002684
2845.26	0.002904
2854.9	0.003514
2864.55	0.004994
2874.19	0.006334
2883.84	0.009824
2893.48	0.011944
2903.12	0.007734
2912.77	0.005604
2922.41	0.004884
2932.06	0.006454
2941.7	0.007154
2951.35	0.007074
2960.99	0.007344
2970.64	0.006524
2980.28	0.004234
2989.93	0.003194
2999.57	0.002194
3009.22	0.002864
3018.86	0.003854
3028.51	0.005564
3038.15	0.008044
3047.8	0.007964
3057.44	0.007114
3067.09	0.006784
3076.73	0.007804
3086.38	0.006384
3096.02	0.003944
3105.67	0.002274
3115.31	0.001754
3124.95	0.0009954
3134.6	0.001804
3144.24	0.001894
3153.89	0.0014718
3163.53	0.001894
3173.18	0.001584
3182.82	0.0015223
3192.47	0.001954
3202.11	0.001644
3211.76	0.002384
3221.4	0.002054
3231.05	0.002274
3240.69	0.002304
3250.34	0.001734
3259.98	0.002334
3269.63	0.002484
3279.27	0.002254
3288.92	0.002554
3298.56	0.002934
3308.21	0.002764
3317.85	0.003704
3327.49	0.004944
3337.14	0.007564
3346.78	0.011654
3356.43	0.015104
3366.07	0.014214
3375.72	0.011234
3385.36	0.008054
3395.01	0.005784
3404.65	0.005234
3414.3	0.004324
3423.94	0.002944
3433.59	0.003674
3443.23	0.002674
3452.88	0.003594
3462.52	0.005704
3472.17	0.009104
3481.81	0.011994
3491.46	0.009234
3501.1	0.005534
3510.75	0.003044
3520.39	0.002534
3530.04	0.0013508
3539.68	0.001804
3549.32	0.001814
3558.97	0.0012746
3568.61	0.001844
3578.26	0.001604
3587.9	0.001524
3597.55	0.0012794
3607.19	0.0015054
3616.84	0.0006488
3626.48	0.0010054
3636.13	0.0011746
3645.77	0.000821
3655.42	0.0011306
3665.06	0.0008749
3674.71	0.000143
3684.35	0.0009633
3694	0.0011963
3703.64	0.0012865
3713.29	0.0007312
3722.93	0.0012168
3732.58	0.000355
3742.22	0.0008599
3751.86	0.0010376
3761.51	0.00053728
3771.15	0.0009389
3780.8	0.0008975
3790.44	0.001554
3800.09	0.00058871
3809.73	0.001004
3819.38	0.0006619
3829.02	0.0006685
3838.67	0.0008474
3848.31	0.0008361
3857.96	0.0004937
3867.6	0.0011112
3877.25	0.0010553
3886.89	0.0011037
3896.54	0.0009905
3906.18	0.0010377
3915.83	0.0014272
3925.47	0.0011245
3935.12	9.9e-05
3944.76	0.0008068
3954.41	0
3964.05	0.0006695
3973.69	0.0011784
3983.34	0.0013203
3992.98	0.0009067
