Infrared Spectrum: SILANE, TRIMETHOXY-[3[N-(2-AMINOETHYL)]AMINOPROPYL]-
Formula: C8 H22 N2 O3 Si
CAS: 1760-24-3
State: SOLUTION (5% IN CCl4 FOR 3800-900, 2.8% IN CS2 FOR 900-600, AND 5% IN CCl4 FOR 600-250 CM^-^1) VS. SOLVENT
Class: COBLENTZ III
Instrument: PERKIN-ELMER 521 (GRATING)
Instrument parameters: FILTERS AT 3150, 2500, 2000, 1150, 700, 410 AND GRATING CHANGES AT 2000, 630 CM^-^1
Sampling: TRANSMISSION
Path length: 0.011, 0.011, AND 0.020 CM (CsBr CELL)
Resolution: 4
Origin: DOW CORNING CORP.
1/CM	TRANSMITTANCE
242.396	0.649
251.613	0.672
260.829	0.696
270.046	0.704
279.262	0.721
288.479	0.737
297.696	0.735
306.912	0.733
316.129	0.719
325.345	0.703
334.562	0.672
343.779	0.644
352.995	0.649
362.212	0.642
371.429	0.641
380.645	0.633
389.862	0.658
399.078	0.66
408.295	0.667
417.512	0.644
426.728	0.584
435.945	0.555
445.161	0.587
454.378	0.602
463.595	0.616
472.811	0.673
482.028	0.71
491.244	0.72
500.461	0.727
509.678	0.752
518.894	0.77
528.111	0.784
537.327	0.806
546.544	0.821
555.761	0.827
564.977	0.832
574.194	0.833
583.41	0.837
592.627	0.82
601.844	0.806
611.06	0.797
620.277	0.805
629.494	0.805
638.71	0.805
647.927	0.804
657.143	0.804
666.36	0.802
675.577	0.802
684.793	0.802
694.01	0.791
703.226	0.785
712.443	0.782
721.66	0.769
730.876	0.752
740.093	0.713
749.309	0.66
758.526	0.587
767.743	0.538
776.959	0.465
786.176	0.455
795.392	0.449
804.609	0.397
813.826	0.344
823.042	0.361
832.259	0.489
841.476	0.689
850.692	0.725
859.909	0.725
869.125	0.725
878.342	0.725
887.559	0.725
896.775	0.725
905.992	0.725
915.208	0.725
924.425	0.725
933.642	0.725
942.858	0.712
952.075	0.71
961.291	0.689
970.508	0.667
979.725	0.652
988.941	0.621
998.158	0.57
1007.37	0.508
1016.59	0.484
1025.81	0.469
1035.02	0.426
1044.24	0.381
1053.46	0.326
1062.67	0.202
1071.89	0.092
1081.11	0.02
1090.32	0.018
1099.54	0.049
1108.76	0.082
1117.97	0.171
1127.19	0.282
1136.41	0.369
1145.62	0.437
1154.84	0.475
1164.06	0.458
1173.27	0.406
1182.49	0.281
1191.71	0.264
1200.92	0.42
1210.14	0.536
1219.36	0.628
1228.57	0.673
1237.79	0.681
1247.01	0.666
1256.22	0.664
1265.44	0.713
1274.66	0.737
1283.87	0.744
1293.09	0.75
1302.31	0.739
1311.52	0.762
1320.74	0.784
1329.96	0.765
1339.17	0.743
1348.39	0.744
1357.61	0.756
1366.82	0.761
1376.04	0.769
1385.26	0.775
1394.47	0.772
1403.69	0.735
1412.91	0.745
1422.12	0.769
1431.34	0.702
1440.56	0.613
1449.77	0.564
1458.99	0.536
1468.2	0.607
1477.42	0.699
1486.64	0.76
1495.85	0.786
1505.07	0.796
1514.29	0.801
1523.5	0.804
1532.72	0.808
1541.94	0.805
1551.15	0.804
1560.37	0.8
1569.59	0.79
1578.8	0.786
1588.02	0.785
1597.24	0.782
1606.45	0.775
1615.67	0.786
1624.89	0.808
1634.1	0.828
1643.32	0.836
1652.54	0.845
1661.75	0.852
1670.97	0.859
1680.19	0.86
1689.4	0.859
1698.62	0.857
1707.84	0.863
1717.05	0.865
1726.27	0.86
1735.49	0.863
1744.7	0.868
1753.92	0.871
1763.14	0.872
1772.35	0.876
1781.57	0.872
1790.79	0.875
1800	0.877
1809.22	0.878
1818.44	0.872
1827.65	0.87
1836.87	0.87
1846.09	0.869
1855.3	0.867
1864.52	0.862
1873.74	0.854
1882.95	0.855
1892.17	0.857
1901.39	0.857
1910.6	0.854
1919.82	0.857
1929.04	0.862
1938.25	0.869
1947.47	0.869
1956.69	0.873
1965.9	0.872
1975.12	0.877
1984.33	0.873
1993.55	0.877
2002.77	0.8545
2011.98	0.8565
2021.2	0.8595
2030.42	0.859
2039.63	0.8615
2048.85	0.857
2058.07	0.856
2067.28	0.8581
2076.5	0.86
2085.72	0.8596
2094.93	0.857
2104.15	0.86
2113.37	0.859
2122.58	0.8578
2131.8	0.853
2141.02	0.853
2150.23	0.852
2159.45	0.8524
2168.67	0.852
2177.88	0.855
2187.1	0.857
2196.32	0.857
2205.53	0.862
2214.75	0.865
2223.97	0.864
2233.18	0.867
2242.4	0.8643
2251.62	0.865
2260.83	0.865
2270.05	0.8656
2279.27	0.865
2288.48	0.867
2297.7	0.869
2306.92	0.869
2316.13	0.8708
2325.35	0.8702
2334.57	0.868
2343.78	0.8677
2353	0.8654
2362.22	0.867
2371.43	0.8602
2380.65	0.863
2389.87	0.862
2399.08	0.8628
2408.3	0.861
2417.52	0.86
2426.73	0.862
2435.95	0.86
2445.17	0.8573
2454.38	0.857
2463.6	0.8531
2472.82	0.8511
2482.03	0.8521
2491.25	0.847
2500.46	0.851
2509.68	0.8481
2518.9	0.849
2528.11	0.848
2537.33	0.8451
2546.55	0.845
2555.76	0.841
2564.98	0.843
2574.2	0.836
2583.41	0.832
2592.63	0.83
2601.85	0.829
2611.06	0.822
2620.28	0.82
2629.5	0.81
2638.71	0.8069
2647.93	0.8
2657.15	0.799
2666.36	0.798
2675.58	0.7939
2684.8	0.7899
2694.01	0.7851
2703.23	0.7809
2712.45	0.7717
2721.66	0.7635
2730.88	0.7387
2740.1	0.722
2749.31	0.7221
2758.53	0.7193
2767.75	0.6962
2776.96	0.6593
2786.18	0.6022
2795.4	0.5432
2804.61	0.4748
2813.83	0.4528
2823.05	0.4406
2832.26	0.3911
2841.48	0.148
2850.7	0.3749
2859.91	0.4264
2869.13	0.4352
2878.35	0.4214
2887.56	0.396
2896.78	0.3948
2906	0.3532
2915.21	0.3102
2924.43	0.2683
2933.65	0.2144
2942.86	0.1306
2952.08	0.2245
2961.3	0.3217
2970.51	0.3863
2979.73	0.453
2988.95	0.5724
2998.16	0.6423
3007.38	0.6717
3016.59	0.7074
3025.81	0.7294
3035.03	0.7567
3044.24	0.7701
3053.46	0.7828
3062.68	0.7983
3071.89	0.8082
3081.11	0.8206
3090.33	0.8274
3099.54	0.8318
3108.76	0.835
3117.98	0.8374
3127.19	0.8492
3136.41	0.857
3145.63	0.86
3154.84	0.859
3164.06	0.857
3173.28	0.857
3182.49	0.8605
3191.71	0.861
3200.93	0.8605
3210.14	0.859
3219.36	0.857
3228.58	0.859
3237.79	0.855
3247.01	0.856
3256.23	0.856
3265.44	0.853
3274.66	0.8534
3283.88	0.851
3293.09	0.849
3302.31	0.8458
3311.53	0.841
3320.74	0.838
3329.96	0.8448
3339.18	0.8536
3348.39	0.857
3357.61	0.8646
3366.83	0.863
3376.04	0.8577
3385.26	0.8553
3394.48	0.846
3403.69	0.863
3412.91	0.8723
3422.13	0.8797
3431.34	0.884
3440.56	0.8877
3449.78	0.89
3458.99	0.892
3468.21	0.892
3477.43	0.8927
3486.64	0.891
3495.86	0.891
3505.08	0.893
3514.29	0.892
3523.51	0.8928
3532.73	0.892
3541.94	0.8944
3551.16	0.892
3560.37	0.892
3569.59	0.898
3578.81	0.892
3588.02	0.8996
3597.24	0.895
3606.46	0.895
3615.67	0.893
3624.89	0.8976
3634.11	0.8937
3643.32	0.892
3652.54	0.896
3661.76	0.8922
3670.97	0.9008
3680.19	0.8981
3689.41	0.899
3698.62	0.8939
3707.84	0.8999
3717.06	0.8953
3726.27	0.8959
3735.49	0.901
3744.71	0.9088
3753.92	0.9042
3763.14	0.899
3772.36	0.898
3781.57	0.9
3790.79	0.896
