Infrared Spectrum: Silane, ethoxytrimethyl-,
Formula: C5 H14 O Si
CAS: 1825-62-3
State: SOLUTION (10% CCl4 FOR 3800-1300, 2% CS2 FOR 1300-650, AND 10% CCl4 FOR 650-250)
Boiling point: 75 C
Class: COBLENTZ III
Instrument: PERKIN-ELMER 521 (GRATING)
Instrument parameters: FILTERS AT 3150, 2500, 2000, 1150, 700, 410. GRATING CHANGES: 2000, 630
Path length: 0.012 CM, 0.011 CM, AND 0.011 CM
Resolution: 2
Origin: DOW CORNING CORP.
1/CM	TRANSMITTANCE
245	0.6656
254	0.6628
263	0.6525
272	0.6376
281	0.6247
290	0.6109
299	0.6215
308	0.6271
317	0.6321
326	0.7195
335	0.7981
344	0.8523
353	0.8664
362	0.8718
371	0.8708
380	0.8685
389	0.8639
398	0.8539
407	0.8341
416	0.8033
425	0.7828
434	0.7976
443	0.8255
452	0.8576
461	0.866
470	0.856
479	0.8801
488	0.9137
497	0.9237
506	0.9245
515	0.924
524	0.9234
533	0.922
542	0.9191
551	0.9188
560	0.9207
569	0.9266
578	0.9267
587	0.9239
596	0.9164
605	0.9171
614	0.9285
623	0.9166
632	0.9107
641	0.9027
650	0.9099
659	0.93
668	0.9189
677	0.8915
686	0.8218
695	0.8386
704	0.8558
713	0.8289
722	0.8074
731	0.8175
740	0.788
749	0.6082
758	0.6116
767	0.8087
776	0.8632
785	0.8748
794	0.869
803	0.8423
812	0.8064
821	0.7497
830	0.5692
839	0.1204
848	0.179
857	0.217
866	0.4551
875	0.6589
884	0.8137
893	0.8478
902	0.8616
911	0.8566
920	0.8185
929	0.7372
938	0.57
947	0.4655
956	0.6704
965	0.8441
974	0.8893
983	0.9009
992	0.9078
1001	0.9103
1010	0.911
1019	0.9078
1028	0.8963
1037	0.8772
1046	0.8592
1055	0.8149
1064	0.7248
1073	0.5095
1082	0.4189
1091	0.5511
1100	0.5449
1109	0.2246
1118	0.512
1127	0.7335
1136	0.81
1145	0.81
1154	0.7667
1163	0.7339
1172	0.8181
1181	0.8765
1190	0.8863
1199	0.8874
1208	0.8804
1217	0.8711
1226	0.8556
1235	0.8037
1244	0.4517
1253	0.5413
1262	0.7531
1271	0.8363
1280	0.828
1289	0.8117
1298	0.8447
1307	0.6692
1316	0.7176
1325	0.7208
1334	0.7087
1343	0.6992
1352	0.6751
1361	0.6489
1370	0.6479
1379	0.5371
1388	0.1398
1397	0.4833
1406	0.5423
1415	0.5891
1424	0.5712
1433	0.4756
1442	0.4562
1451	0.5482
1460	0.6803
1469	0.7306
1478	0.6401
1487	0.7929
1496	0.8175
1505	0.8333
1514	0.8422
1523	0.8481
1532	0.8544
1541	0.8601
1550	0.8627
1559	0.865
1568	0.8654
1577	0.8653
1586	0.8653
1595	0.8651
1604	0.8623
1613	0.8585
1622	0.8558
1631	0.8526
1640	0.8495
1649	0.8464
1658	0.8431
1667	0.8402
1676	0.847
1685	0.8595
1694	0.8672
1703	0.8668
1712	0.8668
1721	0.8699
1730	0.8741
1739	0.8764
1748	0.8776
1757	0.8767
1766	0.8737
1775	0.8684
1784	0.8591
1793	0.8505
1802	0.8428
1811	0.8361
1820	0.8306
1829	0.836
1838	0.8484
1847	0.8415
1856	0.8474
1865	0.8624
1874	0.8723
1883	0.877
1892	0.8793
1901	0.878
1910	0.8704
1919	0.8614
1928	0.8481
1937	0.8453
1946	0.8569
1955	0.8664
1964	0.8678
1973	0.8699
1982	0.8747
1991	0.8767
2000	0.8834
2009	0.8927
2018	0.899
2027	0.9031
2036	0.9051
2045	0.9045
2054	0.903
2063	0.9005
2072	0.8978
2081	0.8947
2090	0.8887
2099	0.8807
2108	0.8851
2117	0.8914
2126	0.895
2135	0.8943
2144	0.8934
2153	0.8922
2162	0.8893
2171	0.8869
2180	0.885
2189	0.8868
2198	0.8912
2207	0.8961
2216	0.8984
2225	0.9004
2234	0.9019
2243	0.9033
2252	0.9044
2261	0.9054
2270	0.9063
2279	0.907
2288	0.9079
2297	0.9089
2306	0.91
2315	0.9108
2324	0.911
2333	0.9112
2342	0.9109
2351	0.9099
2360	0.9088
2369	0.9078
2378	0.9064
2387	0.9045
2396	0.9027
2405	0.9007
2414	0.8988
2423	0.8968
2432	0.8947
2441	0.8924
2450	0.892
2459	0.8953
2468	0.8921
2477	0.8863
2486	0.8836
2495	0.8886
2504	0.9004
2513	0.9038
2522	0.9044
2531	0.9042
2540	0.9027
2549	0.9007
2558	0.8985
2567	0.8961
2576	0.8935
2585	0.8909
2594	0.8887
2603	0.8862
2612	0.8812
2621	0.871
2630	0.8701
2639	0.8716
2648	0.8733
2657	0.8741
2666	0.8741
2675	0.8728
2684	0.8704
2693	0.8677
2702	0.8592
2711	0.8233
2720	0.8026
2729	0.7422
2738	0.719
2747	0.8067
2756	0.7956
2765	0.767
2774	0.7975
2783	0.7998
2792	0.7826
2801	0.7588
2810	0.7337
2819	0.7075
2828	0.6733
2837	0.6196
2846	0.5654
2855	0.4898
2864	0.3632
2873	0.2002
2882	0.1846
2891	0.2138
2900	0.164
2909	0.1878
2918	0.282
2927	0.2241
2936	0.2485
2945	0.2489
2954	0.1531
2963	0.042
2972	0.0254
2981	0.0377
2990	0.2082
2999	0.3903
3008	0.5966
3017	0.6921
3026	0.7354
3035	0.7669
3044	0.7873
3053	0.801
3062	0.8104
3071	0.8181
3080	0.825
3089	0.8306
3098	0.835
3107	0.8394
3116	0.8477
3125	0.8616
3134	0.8698
3143	0.8722
3152	0.873
3161	0.8734
3170	0.8747
3179	0.8761
3188	0.8775
3197	0.8794
3206	0.882
3215	0.8846
3224	0.8874
3233	0.89
3242	0.8906
3251	0.8956
3260	0.8981
3269	0.8996
3278	0.9006
3287	0.9016
3296	0.9026
3305	0.9032
3314	0.903
3323	0.9023
3332	0.9014
3341	0.8997
3350	0.8982
3359	0.8978
3368	0.8976
3377	0.8977
3386	0.8977
3395	0.8979
3404	0.8985
3413	0.8991
3422	0.8998
3431	0.9003
3440	0.9009
3449	0.9015
3458	0.9021
3467	0.9031
3476	0.9031
3485	0.9018
3494	0.9006
3503	0.8985
3512	0.8984
3521	0.8993
3530	0.8999
3539	0.898
3548	0.8957
3557	0.894
3566	0.8923
3575	0.8906
3584	0.8892
3593	0.8891
3602	0.8923
3611	0.8917
3620	0.8877
3629	0.8835
3638	0.8793
3647	0.8756
3656	0.8748
3665	0.8813
3674	0.8851
3683	0.886
3692	0.8841
3701	0.8795
3710	0.8757
3719	0.8768
3728	0.8771
3737	0.8695
3746	0.8655
3755	0.8657
3764	0.8758
3773	0.8821
3782	0.8833
3791	0.8825
3800	0.8813
3809	0.8801
