Infrared Spectrum: Octadecanamine, hydrochloride
Formula: C18 H40 Cl N
CAS: 1838-08-0
State: SOLID (KBr DISC)
Class: COBLENTZ
Instrument: PERKIN-ELMER 157
Sampling: TRANSMISSION
Resolution: 2
Origin: BRITISH PETROLEUM CO. LTD., ENGLAND
1/CM	TRANSMITTANCE
668	0.9391
677	0.9158
686	0.8841
695	0.8448
704	0.7808
713	0.5904
722	0.2419
731	0.5426
740	0.7108
749	0.7582
758	0.7193
767	0.7263
776	0.6437
785	0.7336
794	0.7032
803	0.7667
812	0.758
821	0.7198
830	0.7492
839	0.7447
848	0.7051
857	0.6945
866	0.72
875	0.704
884	0.6558
893	0.6277
902	0.6201
911	0.6553
920	0.5389
929	0.5169
938	0.6348
947	0.6492
956	0.6101
965	0.6224
974	0.5851
983	0.4911
992	0.562
1001	0.5929
1010	0.4841
1019	0.5241
1028	0.5846
1037	0.5905
1046	0.5726
1055	0.5965
1064	0.5622
1073	0.6041
1082	0.5982
1091	0.5301
1100	0.6188
1109	0.6346
1118	0.6015
1127	0.5414
1136	0.5748
1145	0.3432
1154	0.5308
1163	0.5856
1172	0.592
1181	0.5923
1190	0.5761
1199	0.5833
1208	0.5998
1217	0.5792
1226	0.6019
1235	0.5824
1244	0.5931
1253	0.5809
1262	0.5821
1271	0.5657
1280	0.5724
1289	0.5566
1298	0.5362
1307	0.5089
1316	0.5427
1325	0.5489
1334	0.5467
1343	0.5427
1352	0.5475
1361	0.5247
1370	0.4795
1379	0.4594
1388	0.4639
1397	0.4054
1406	0.4663
1415	0.522
1424	0.5067
1433	0.4694
1442	0.4161
1451	0.3123
1460	0.1616
1469	0.0459
1478	0.1565
1487	0.2408
1496	0.2676
1505	0.2275
1514	0.1377
1523	0.1501
1532	0.2781
1541	0.3672
1550	0.3738
1559	0.3397
1568	0.2983
1577	0.258
1586	0.2467
1595	0.2311
1604	0.2271
1613	0.2167
1622	0.3871
1631	0.4111
1640	0.4243
1649	0.4553
1658	0.4692
1667	0.4747
1676	0.4776
1685	0.479
1694	0.479
1703	0.4786
1712	0.4782
1721	0.4779
1730	0.4777
1739	0.4776
1748	0.4774
1757	0.4768
1766	0.4762
1775	0.4757
1784	0.4749
1793	0.4737
1802	0.4722
1811	0.4699
1820	0.4668
1829	0.4626
1838	0.4592
1847	0.4546
1856	0.4501
1865	0.4473
1874	0.4445
1883	0.4375
1892	0.4302
1901	0.4273
1910	0.427
1919	0.4277
1928	0.427
1937	0.4252
1946	0.4233
1955	0.4201
1964	0.4154
1973	0.4099
1982	0.4039
1991	0.3996
2000	0.385
2009	0.3657
2018	0.3408
2027	0.3238
2036	0.3081
2045	0.2976
2054	0.2969
2063	0.3161
2072	0.3547
2081	0.3859
2090	0.4022
2099	0.4039
2108	0.4047
2117	0.4053
2126	0.4058
2135	0.4064
2144	0.4071
2153	0.4084
2162	0.4103
2171	0.4123
2180	0.4097
2189	0.4075
2198	0.4066
2207	0.4067
2216	0.4074
2225	0.4065
2234	0.4024
2243	0.3972
2252	0.3942
2261	0.3931
2270	0.3902
2279	0.3829
2288	0.3766
2297	0.3728
2306	0.3661
2315	0.36
2324	0.3546
2333	0.3494
2342	0.3434
2351	0.3409
2360	0.3394
2369	0.3387
2378	0.3375
2387	0.3312
2396	0.3189
2405	0.3109
2414	0.3049
2423	0.3038
2432	0.3034
2441	0.303
2450	0.2989
2459	0.2916
2468	0.2799
2477	0.2658
2486	0.2514
2495	0.2406
2504	0.2306
2513	0.2262
2522	0.2257
2531	0.226
2540	0.2252
2549	0.2227
2558	0.2164
2567	0.2096
2576	0.1995
2585	0.1922
2594	0.1851
2603	0.1776
2612	0.17
2621	0.1623
2630	0.1545
2639	0.1492
2648	0.1465
2657	0.1451
2666	0.1434
2675	0.1377
2684	0.1283
2693	0.1185
2702	0.1081
2711	0.0973
2720	0.0875
2729	0.0792
2738	0.0727
2747	0.0661
2756	0.0591
2765	0.0519
2774	0.0447
2783	0.0374
2792	0.0298
2801	0.0221
2810	0.0209
2819	0.0207
2828	0.0206
2837	0.0206
2846	0.0205
2855	0.0205
2864	0.0206
2873	0.0206
2882	0.0208
2891	0.0209
2900	0.021
2909	0.0211
2918	0.0213
2927	0.0214
2936	0.0216
2945	0.0219
2954	0.0221
2963	0.0224
2972	0.0227
2981	0.023
2990	0.0232
2999	0.0235
3008	0.0237
3017	0.0239
3026	0.0239
3035	0.024
3044	0.026
3053	0.0295
3062	0.0326
3071	0.0347
3080	0.0363
3089	0.0378
3098	0.0386
3107	0.0393
3116	0.0406
3125	0.047
3134	0.0507
3143	0.0532
3152	0.0549
3161	0.0556
3170	0.0562
3179	0.0569
3188	0.0602
3197	0.0759
3206	0.0811
3215	0.0856
3224	0.0904
3233	0.0959
3242	0.1018
3251	0.11
3260	0.1154
3269	0.1186
3278	0.1214
3287	0.1232
3296	0.1243
3305	0.1247
3314	0.1251
3323	0.1256
3332	0.1259
3341	0.1261
3350	0.1263
3359	0.1265
3368	0.1266
3377	0.1268
3386	0.127
3395	0.1272
3404	0.1273
3413	0.1275
3422	0.1276
3431	0.1278
3440	0.1279
3449	0.1281
3458	0.1285
3467	0.1288
3476	0.1294
3485	0.1318
3494	0.1359
3503	0.1387
3512	0.1409
3521	0.1414
3530	0.1417
3539	0.142
3548	0.1422
3557	0.1425
3566	0.1426
3575	0.1428
3584	0.1429
3593	0.1431
3602	0.1432
3611	0.1433
3620	0.1435
3629	0.1437
3638	0.1437
3647	0.1438
3656	0.1439
3665	0.1439
3674	0.144
3683	0.1441
3692	0.1441
3701	0.144
3710	0.1435
3719	0.1429
3728	0.1424
3737	0.1418
3746	0.1404
3755	0.1389
3764	0.1373
3773	0.1346
3782	0.1312
3791	0.1291
3800	0.1277
3809	0.1269
3818	0.1266
3827	0.1264
3836	0.1262
3845	0.1261
3854	0.1259
3863	0.1258
3872	0.1257
3881	0.1257
3890	0.1256
3899	0.1256
3908	0.1255
3917	0.1255
3926	0.1255
3935	0.1256
3944	0.1256
3953	0.1257
3962	0.1257
3971	0.1258
3980	0.1258
3989	0.1259
3998	0.1259
