Infrared Spectrum: 3-Fluoro-5-(trifluoromethyl)benzyl alcohol
Formula: C 8 H 6 F 4 O
CAS: 184970-29-4
State: gas
Origin: EPA-IR VAPOR PHASE LIBRARY
1/CM	ABSORBANCE
549.8	0.004426
559.445	0.003456
569.09	0.004416
578.734	0.002246
588.379	0.004216
598.024	0.003236
607.669	0.003996
617.313	0.005456
626.958	0.008226
636.603	0.008676
646.248	0.008686
655.893	0.008396
665.537	0.006906
675.182	0.005986
684.827	0.011056
694.472	0.023846
704.116	0.029286
713.761	0.040636
723.406	0.033906
733.051	0.007136
742.695	0.003126
752.34	0.003036
761.985	0.002306
771.63	0.002466
781.275	0.001946
790.919	0.0014178
800.564	0.001886
810.209	0.002896
819.854	0.003156
829.498	0.004736
839.143	0.006256
848.788	0.012566
858.433	0.032576
868.078	0.074446
877.722	0.103306
887.367	0.049716
897.012	0.020406
906.657	0.013066
916.301	0.010996
925.946	0.012896
935.591	0.017386
945.236	0.030666
954.88	0.047926
964.525	0.052156
974.17	0.045146
983.815	0.035716
993.46	0.025756
1003.1	0.021636
1012.75	0.022716
1022.39	0.025606
1032.04	0.029956
1041.68	0.032206
1051.33	0.028406
1060.97	0.022996
1070.62	0.020896
1080.26	0.026546
1089.91	0.060286
1099.55	0.066446
1109.2	0.034066
1118.84	0.034716
1128.49	0.068116
1138.13	0.182156
1147.78	0.361126
1157.42	0.270916
1167.07	0.167446
1176.71	0.311386
1186.36	0.201926
1196	0.076446
1205.64	0.052166
1215.29	0.066696
1224.93	0.145016
1234.58	0.175636
1244.22	0.085796
1253.87	0.048976
1263.51	0.033126
1273.16	0.024906
1282.8	0.020276
1292.45	0.019796
1302.09	0.022356
1311.74	0.026706
1321.38	0.040376
1331.03	0.103666
1340.67	0.276036
1350.32	0.356236
1359.96	0.174716
1369.61	0.076096
1379.25	0.053596
1388.9	0.038816
1398.54	0.031006
1408.18	0.026766
1417.83	0.023456
1427.47	0.024996
1437.12	0.036826
1446.76	0.066786
1456.41	0.089486
1466.05	0.066136
1475.7	0.033726
1485.34	0.016696
1494.99	0.010546
1504.63	0.007636
1514.28	0.006726
1523.92	0.006116
1533.57	0.005646
1543.21	0.005216
1552.86	0.005776
1562.5	0.006796
1572.15	0.009506
1581.79	0.014506
1591.44	0.026696
1601.08	0.044476
1610.73	0.048966
1620.37	0.034086
1630.01	0.017766
1639.66	0.007846
1649.3	0.004796
1658.95	0.003786
1668.59	0.003416
1678.24	0.003056
1687.88	0.002636
1697.53	0.002496
1707.17	0.002176
1716.82	0.002386
1726.46	0.002756
1736.11	0.003856
1745.75	0.007276
1755.4	0.008656
1765.04	0.006076
1774.69	0.003986
1784.33	0.003206
1793.98	0.002756
1803.62	0.002226
1813.27	0.001876
1822.91	0.0015098
1832.55	0.0015868
1842.2	0.0015308
1851.84	0.0016253
1861.49	0.0016928
1871.13	0.0015153
1880.78	0.001627
1890.42	0.0015192
1900.07	0.001137
1909.71	0.0009457
1919.36	0.0009694
1929	0.0010348
1938.65	0.001196
1948.29	0.0012274
1957.94	0.0011174
1967.58	0.0010945
1977.23	0.0011046
1986.87	0.0012172
1996.52	0.0013299
2006.16	0.0012973
2015.81	0.0016692
2025.45	0.0017423
2035.1	0.0016252
2044.74	0.0015635
2054.38	0.001806
2064.03	0.0016677
2073.67	0.0016367
2083.32	0.0017043
2092.96	0.001806
2102.61	0.002026
2112.25	0.0017336
2121.9	0.0014201
2131.54	0.0011145
2141.19	0.0012472
2150.83	0.00084198
2160.48	0.0010505
2170.12	0.0010341
2179.77	0.0012614
2189.41	0.0013106
2199.06	0.0015971
2208.7	0.0014376
2218.35	0.0017733
2227.99	0.0016659
2237.64	0.0014532
2247.28	0.0013783
2256.92	0.0012968
2266.57	0.0016257
2276.21	0.001806
2285.86	0.002116
2295.5	0.001976
2305.15	0.0016815
2314.79	0.001936
2324.44	0.002106
2334.08	0.001906
2343.73	0.001906
2353.37	0.001906
2363.02	0.0016986
2372.66	0.001916
2382.31	0.0015579
2391.95	0.0015679
2401.6	0.0014545
2411.24	0.0013699
2420.89	0.00139
2430.53	0.0013531
2440.18	0.0012031
2449.82	0.0012075
2459.47	0.0015585
2469.11	0.0016193
2478.75	0.001786
2488.4	0.0013559
2498.04	0.0011647
2507.69	0.0011638
2517.33	0.0014115
2526.98	0.0009807
2536.62	0.0010932
2546.27	0.0011877
2555.91	0.0008586
2565.56	0.001304
2575.2	0.0013777
2584.85	0.0015891
2594.49	0.0012268
2604.14	0.0009867
2613.78	0.0009742
2623.43	0.0014726
2633.07	0.0012103
2642.72	0.00085745
2652.36	0.0010598
2662.01	0.0010173
2671.65	0.0013136
2681.29	0.0011667
2690.94	0.0013908
2700.58	0.0009343
2710.23	0.0012436
2719.87	0.001166
2729.52	0.0010773
2739.16	0.0013593
2748.81	0.0014079
2758.45	0.0015221
2768.1	0.0014789
2777.74	0.0014728
2787.39	0.002076
2797.03	0.002326
2806.68	0.002376
2816.32	0.002846
2825.97	0.003366
2835.61	0.004686
2845.26	0.005846
2854.9	0.007246
2864.55	0.009416
2874.19	0.012146
2883.84	0.016026
2893.48	0.016676
2903.12	0.014906
2912.77	0.014106
2922.41	0.014586
2932.06	0.014476
2941.7	0.014246
2951.35	0.012366
2960.99	0.010106
2970.64	0.007416
2980.28	0.005226
2989.93	0.003616
2999.57	0.002086
3009.22	0.0014563
3018.86	0.0009493
3028.51	0.00085441
3038.15	0.002226
3047.8	0.001956
3057.44	0.002176
3067.09	0.002066
3076.73	0.002526
3086.38	0.002316
3096.02	0.003216
3105.67	0.001986
3115.31	0.0011389
3124.95	0.0011536
3134.6	0.000446
3144.24	0.00038
3153.89	0.0009324
3163.53	0.0009313
3173.18	0.000552
3182.82	0.000519
3192.47	0.000281
3202.11	0.000199
3211.76	0.00081524
3221.4	0.000546
3231.05	0.00087882
3240.69	0.000152
3250.34	0.000128
3259.98	0.0011317
3269.63	0.0010518
3279.27	0.000555
3288.92	0.000516
3298.56	0.000614
3308.21	0.0010153
3317.85	0.0009215
3327.49	0.000364
3337.14	0.000557
3346.78	0.000314
3356.43	0.000591
3366.07	0.0009119
3375.72	0.00084708
3385.36	0.0008922
3395.01	0.000125
3404.65	0.000793409
3414.3	0.00085737
3423.94	0.00083788
3433.59	0.0013089
3443.23	0.00084822
3452.88	0.00087509
3462.52	0.0011027
3472.17	0.0015331
3481.81	0.0011017
3491.46	0.0007307
3501.1	0.0014532
3510.75	0.00087794
3520.39	0.0010168
3530.04	0.0011998
3539.68	0.0015057
3549.32	0.0011137
3558.97	0.0010324
3568.61	0.0013703
3578.26	0.0015079
3587.9	0.001816
3597.55	0.001996
3607.19	0.002506
3616.84	0.003186
3626.48	0.004736
3636.13	0.006476
3645.77	0.010866
3655.42	0.015236
3665.06	0.016156
3674.71	0.013186
3684.35	0.009676
3694	0.005456
3703.64	0.003436
3713.29	0.001906
3722.93	0.002016
3732.58	0.0015653
3742.22	0.0011502
3751.86	0.0015989
3761.51	0.0015237
3771.15	0.00079675
3780.8	0.0008307
3790.44	0.0011529
3800.09	0.001786
3809.73	0.0011925
3819.38	0.0011875
3829.02	0.0012353
3838.67	0.0017527
3848.31	0.001419
3857.96	0.000505
3867.6	0.0014395
3877.25	0.0016415
3886.89	0.0013074
3896.54	0.0013473
3906.18	0.0008893
3915.83	0.0012527
3925.47	0.0010158
3935.12	0.0007211
3944.76	0.000624
3954.41	0.0010537
3964.05	0.00078168
3973.69	0.000642
3983.34	0.000503
3992.98	0.0009472
