Infrared Spectrum: 3-Fluoro-5-(trifluoromethyl)benzaldehyde
Formula: C 8 H 4 F 4 O
CAS: 188815-30-7
State: gas
Origin: EPA-IR VAPOR PHASE LIBRARY
1/CM	ABSORBANCE
549.8	0.0011951
559.445	0.000439
569.09	0.0018332
578.734	0.003637
588.379	0.008927
598.024	0.004747
607.669	0.002047
617.313	0.003357
626.958	0.005947
636.603	0.008127
646.248	0.005597
655.893	0.006047
665.537	0.014687
675.182	0.035257
684.827	0.067797
694.472	0.063747
704.116	0.022677
713.761	0.012437
723.406	0.030887
733.051	0.039567
742.695	0.017707
752.34	0.006627
761.985	0.003637
771.63	0.003147
781.275	0.002057
790.919	0.002847
800.564	0.0018346
810.209	0.002667
819.854	0.002937
829.498	0.003927
839.143	0.003707
848.788	0.005147
858.433	0.010957
868.078	0.041107
877.722	0.091657
887.367	0.073537
897.012	0.051057
906.657	0.027997
916.301	0.009307
925.946	0.004857
935.591	0.004247
945.236	0.005027
954.88	0.013987
964.525	0.031297
974.17	0.030527
983.815	0.032557
993.46	0.027027
1003.1	0.010877
1012.75	0.006827
1022.39	0.004907
1032.04	0.004207
1041.68	0.005137
1051.33	0.004947
1060.97	0.004567
1070.62	0.008477
1080.26	0.024507
1089.91	0.062597
1099.55	0.046077
1109.2	0.021947
1118.84	0.045387
1128.49	0.105717
1138.13	0.140227
1147.78	0.267357
1157.42	0.406677
1167.07	0.223567
1176.71	0.276277
1186.36	0.263937
1196	0.100017
1205.64	0.053137
1215.29	0.091727
1224.93	0.271227
1234.58	0.279007
1244.22	0.106317
1253.87	0.048587
1263.51	0.023147
1273.16	0.013147
1282.8	0.011457
1292.45	0.014007
1302.09	0.017877
1311.74	0.025017
1321.38	0.036527
1331.03	0.102747
1340.67	0.323927
1350.32	0.376867
1359.96	0.108467
1369.61	0.041667
1379.25	0.067977
1388.9	0.064377
1398.54	0.032627
1408.18	0.027157
1417.83	0.031687
1427.47	0.032267
1437.12	0.032917
1446.76	0.055797
1456.41	0.093617
1466.05	0.083847
1475.7	0.033677
1485.34	0.013407
1494.99	0.007917
1504.63	0.006537
1514.28	0.006577
1523.92	0.006957
1533.57	0.006177
1543.21	0.004897
1552.86	0.004387
1562.5	0.005117
1572.15	0.008667
1581.79	0.015917
1591.44	0.032167
1601.08	0.051487
1610.73	0.045707
1620.37	0.029657
1630.01	0.019727
1639.66	0.011527
1649.3	0.010307
1658.95	0.009307
1668.59	0.006877
1678.24	0.007437
1687.88	0.011167
1697.53	0.018547
1707.17	0.045237
1716.82	0.117847
1726.46	0.249577
1736.11	0.160257
1745.75	0.027717
1755.4	0.012647
1765.04	0.010237
1774.69	0.011307
1784.33	0.010897
1793.98	0.006957
1803.62	0.006547
1813.27	0.006607
1822.91	0.005017
1832.55	0.003267
1842.2	0.003077
1851.84	0.003827
1861.49	0.004437
1871.13	0.003587
1880.78	0.002457
1890.42	0.002187
1900.07	0.002187
1909.71	0.001977
1919.36	0.002127
1929	0.002117
1938.65	0.0017842
1948.29	0.0018872
1957.94	0.0017622
1967.58	0.0016498
1977.23	0.0016056
1986.87	0.0013036
1996.52	0.0013283
2006.16	0.0012886
2015.81	0.0014595
2025.45	0.0014091
2035.1	0.0015122
2044.74	0.0016003
2054.38	0.0018095
2064.03	0.0017365
2073.67	0.002037
2083.32	0.002167
2092.96	0.002197
2102.61	0.002317
2112.25	0.002237
2121.9	0.001937
2131.54	0.0017656
2141.19	0.001374
2150.83	0.0011039
2160.48	0.0011279
2170.12	0.0011535
2179.77	0.0012599
2189.41	0.001477
2199.06	0.0018494
2208.7	0.002027
2218.35	0.002377
2227.99	0.002377
2237.64	0.002427
2247.28	0.002247
2256.92	0.002207
2266.57	0.001835
2276.21	0.0017506
2285.86	0.002177
2295.5	0.002187
2305.15	0.002317
2314.79	0.002157
2324.44	0.002297
2334.08	0.002207
2343.73	0.002187
2353.37	0.002347
2363.02	0.002297
2372.66	0.001957
2382.31	0.0015914
2391.95	0.0015571
2401.6	0.0012844
2411.24	0.0015163
2420.89	0.0012587
2430.53	0.0014344
2440.18	0.0017438
2449.82	0.0016063
2459.47	0.0015922
2469.11	0.001947
2478.75	0.0017569
2488.4	0.0016387
2498.04	0.00142
2507.69	0.0013392
2517.33	0.0014346
2526.98	0.0012171
2536.62	0.0014835
2546.27	0.001937
2555.91	0.0019016
2565.56	0.002377
2575.2	0.002307
2584.85	0.002087
2594.49	0.002007
2604.14	0.002087
2613.78	0.002557
2623.43	0.002757
2633.07	0.002057
2642.72	0.002327
2652.36	0.002067
2662.01	0.002237
2671.65	0.002987
2681.29	0.003977
2690.94	0.005447
2700.58	0.008567
2710.23	0.018987
2719.87	0.023477
2729.52	0.018027
2739.16	0.017497
2748.81	0.013887
2758.45	0.006987
2768.1	0.005587
2777.74	0.005877
2787.39	0.008937
2797.03	0.020237
2806.68	0.048927
2816.32	0.054837
2825.97	0.026757
2835.61	0.015647
2845.26	0.013657
2854.9	0.010477
2864.55	0.005397
2874.19	0.003007
2883.84	0.002617
2893.48	0.002727
2903.12	0.003057
2912.77	0.002847
2922.41	0.002797
2932.06	0.002297
2941.7	0.002447
2951.35	0.002207
2960.99	0.002297
2970.64	0.002007
2980.28	0.0013802
2989.93	0.001555
2999.57	0.0016306
3009.22	0.0008395
3018.86	0.0016173
3028.51	0.0016749
3038.15	0.0015412
3047.8	0.002007
3057.44	0.002607
3067.09	0.003457
3076.73	0.004427
3086.38	0.006907
3096.02	0.006317
3105.67	0.003617
3115.31	0.002157
3124.95	0.0011278
3134.6	0.000703
3144.24	0.000599
3153.89	0.000579
3163.53	0.0011891
3173.18	0.0014831
3182.82	0.00098955
3192.47	0.0008211
3202.11	0.00093007
3211.76	0.00096765
3221.4	0.001087
3231.05	0.00094536
3240.69	0.0013115
3250.34	0.000807
3259.98	0.000735
3269.63	0.000604
3279.27	0.00075
3288.92	0.001069
3298.56	0.000419
3308.21	0.0012442
3317.85	0.000248
3327.49	0.0008807
3337.14	0.0013608
3346.78	0.0008525
3356.43	0.000715
3366.07	0.000706
3375.72	0.0011465
3385.36	0.0011679
3395.01	0.0011087
3404.65	0.0011578
3414.3	0.002297
3423.94	0.005267
3433.59	0.005847
3443.23	0.003567
3452.88	0.002447
3462.52	0.0017653
3472.17	0.000808
3481.81	0.0010729
3491.46	0.0011475
3501.1	0.0015899
3510.75	0.0011967
3520.39	0.000759
3530.04	0.00071
3539.68	0.000579
3549.32	0.000492
3558.97	0.00096587
3568.61	0.0008862
3578.26	0.0011076
3587.9	0.000596
3597.55	0.000796
3607.19	0.000763
3616.84	0.000196
3626.48	0.000319
3636.13	0.000875
3645.77	0.0008833
3655.42	2.9e-05
3665.06	0.000388
3674.71	0.00039
3684.35	0.000145
3694	0.000793
3703.64	0.000433
3713.29	0.000763
3722.93	0.0007
3732.58	0.0012498
3742.22	0.001089
3751.86	0.000745
3761.51	0.000618
3771.15	0.000529
3780.8	0.000433
3790.44	0.000349
3800.09	0.000472
3809.73	0.0011358
3819.38	0.000304
3829.02	0.0011919
3838.67	0.000736
3848.31	0.000742
3857.96	0.000747
3867.6	0.000482
3877.25	0.0008911
3886.89	0.000417
3896.54	0.00100717
3906.18	0.000706
3915.83	0.000154
3925.47	0.00055
3935.12	0.000345
3944.76	0.0008693
3954.41	0.001957
3964.05	0.000333
3973.69	0.0008346
3983.34	0.000584
3992.98	0.0013504
