Infrared Spectrum: 2,3,6-Trifluorobenzoyl chloride
Formula: C 7 H 2 Cl F 3 O
CAS: 189807-20-3
State: gas
Origin: EPA-IR VAPOR PHASE LIBRARY
1/CM	ABSORBANCE
549.8	0.004894
559.445	0.003284
569.09	0.001934
578.734	0.003644
588.379	0.007674
598.024	0.015544
607.669	0.013294
617.313	0.008804
626.958	0.008434
636.603	0.005014
646.248	0.006174
655.893	0.007304
665.537	0.007494
675.182	0.003134
684.827	0.003224
694.472	0.003374
704.116	0.004444
713.761	0.006024
723.406	0.010124
733.051	0.011324
742.695	0.010664
752.34	0.011114
761.985	0.007424
771.63	0.009454
781.275	0.017994
790.919	0.034804
800.564	0.055244
810.209	0.079864
819.854	0.084984
829.498	0.062654
839.143	0.030774
848.788	0.010494
858.433	0.005014
868.078	0.003974
877.722	0.003814
887.367	0.002804
897.012	0.002784
906.657	0.002674
916.301	0.002464
925.946	0.002904
935.591	0.005094
945.236	0.010254
954.88	0.019084
964.525	0.028344
974.17	0.034294
983.815	0.032954
993.46	0.022894
1003.1	0.012514
1012.75	0.008174
1022.39	0.007404
1032.04	0.015654
1041.68	0.024754
1051.33	0.011164
1060.97	0.003434
1070.62	0.003074
1080.26	0.0012148
1089.91	0.0007285
1099.55	0.000949
1109.2	0.0012167
1118.84	0.000563
1128.49	0.003944
1138.13	0.005964
1147.78	0.014004
1157.42	0.014044
1167.07	0.004474
1176.71	0.003044
1186.36	0.003124
1196	0.006404
1205.64	0.009934
1215.29	0.027474
1224.93	0.033344
1234.58	0.020074
1244.22	0.019204
1253.87	0.050234
1263.51	0.089594
1273.16	0.054224
1282.8	0.017024
1292.45	0.007974
1302.09	0.006924
1311.74	0.008814
1321.38	0.007804
1331.03	0.004564
1340.67	0.003444
1350.32	0.003084
1359.96	0.002544
1369.61	0.002014
1379.25	0.002134
1388.9	0.002094
1398.54	0.002204
1408.18	0.002734
1417.83	0.003164
1427.47	0.003874
1437.12	0.006174
1446.76	0.010584
1456.41	0.012724
1466.05	0.011024
1475.7	0.019274
1485.34	0.065264
1494.99	0.168464
1504.63	0.152994
1514.28	0.038364
1523.92	0.011214
1533.57	0.006704
1543.21	0.004624
1552.86	0.003944
1562.5	0.003624
1572.15	0.003764
1581.79	0.004604
1591.44	0.007394
1601.08	0.009494
1610.73	0.010564
1620.37	0.014884
1630.01	0.017974
1639.66	0.012164
1649.3	0.005414
1658.95	0.003154
1668.59	0.002344
1678.24	0.002134
1687.88	0.002344
1697.53	0.002564
1707.17	0.003104
1716.82	0.004114
1726.46	0.005104
1736.11	0.007034
1745.75	0.010754
1755.4	0.016854
1765.04	0.028114
1774.69	0.044934
1784.33	0.055894
1793.98	0.060314
1803.62	0.065304
1813.27	0.043864
1822.91	0.020714
1832.55	0.012134
1842.2	0.008944
1851.84	0.007834
1861.49	0.006064
1871.13	0.004474
1880.78	0.003444
1890.42	0.002454
1900.07	0.002124
1909.71	0.001824
1919.36	0.0015412
1929	0.0015758
1938.65	0.0016894
1948.29	0.0017835
1957.94	0.0014806
1967.58	0.0017364
1977.23	0.0015656
1986.87	0.0015768
1996.52	0.0014907
2006.16	0.0015088
2015.81	0.001573
2025.45	0.001376
2035.1	0.0012343
2044.74	0.0012034
2054.38	0.0011446
2064.03	0.0011168
2073.67	0.0012339
2083.32	0.0010854
2092.96	0.0011375
2102.61	0.0011655
2112.25	0.001345
2121.9	0.0011275
2131.54	0.0009298
2141.19	0.0012878
2150.83	0.0011035
2160.48	0.00085139
2170.12	0.00077862
2179.77	0.0011086
2189.41	0.0011186
2199.06	0.0011193
2208.7	0.0011102
2218.35	0.0012925
2227.99	0.0011242
2237.64	0.0013432
2247.28	0.0010117
2256.92	0.0010824
2266.57	0.0012227
2276.21	0.0009558
2285.86	0.0015239
2295.5	0.0016056
2305.15	0.001637
2314.79	0.0013074
2324.44	0.0011899
2334.08	0.0012496
2343.73	0.0011552
2353.37	0.0010537
2363.02	0.0012816
2372.66	0.0016111
2382.31	0.0010998
2391.95	0.0012745
2401.6	0.0010121
2411.24	0.000773
2420.89	0.0011351
2430.53	0.0009693
2440.18	0.0010482
2449.82	0.001168
2459.47	0.001068
2469.11	0.0009565
2478.75	0.0012873
2488.4	0.0012729
2498.04	0.0012371
2507.69	0.0007694
2517.33	0.001007
2526.98	0.0015142
2536.62	0.0017014
2546.27	0.0012277
2555.91	0.0011426
2565.56	0.00085571
2575.2	0.0014023
2584.85	0.0013965
2594.49	0.0013381
2604.14	0.0010206
2613.78	0.00087536
2623.43	0.0010852
2633.07	0.000664
2642.72	0.001182
2652.36	0.0007066
2662.01	0.0009195
2671.65	0.0009221
2681.29	0.000788064
2690.94	0.00079817
2700.58	0.00083457
2710.23	0.0009085
2719.87	0.0010789
2729.52	0.0010271
2739.16	0.0009875
2748.81	0.00085505
2758.45	0.0010397
2768.1	0.0013704
2777.74	0.0009528
2787.39	0.0007477
2797.03	0.0010885
2806.68	0.00083415
2816.32	0.0013081
2825.97	0.0009554
2835.61	0.0010524
2845.26	0.0007383
2854.9	0.0007464
2864.55	0.0010636
2874.19	0.0013722
2883.84	0.0013635
2893.48	0.00084518
2903.12	0.000535
2912.77	0.00087325
2922.41	0.0010093
2932.06	0.0011166
2941.7	0.0009574
2951.35	0.000558
2960.99	0.0009252
2970.64	0.00056
2980.28	0.00083893
2989.93	0.00083663
2999.57	0.000586
3009.22	0.0013377
3018.86	0.00078055
3028.51	0.0012935
3038.15	0.0010716
3047.8	0.00077978
3057.44	0.0010022
3067.09	0.0017003
3076.73	0.0014784
3086.38	0.0013918
3096.02	0.0014371
3105.67	0.0009479
3115.31	0.000561
3124.95	0.0007467
3134.6	0.00079875
3144.24	0.0007142
3153.89	0.0016613
3163.53	0.0010037
3173.18	0.000605
3182.82	0.0007312
3192.47	0.0007165
3202.11	0
3211.76	0.000569
3221.4	0.0009135
3231.05	0.00083223
3240.69	0.0011282
3250.34	0.0013833
3259.98	0.0009199
3269.63	0.0011062
3279.27	0.0011837
3288.92	0.001401
3298.56	0.0016645
3308.21	0.000498
3317.85	0.00073
3327.49	0.000907
3337.14	0.0010146
3346.78	0.000514
3356.43	0.001225
3366.07	0.000847
3375.72	0.000615
3385.36	0.001077
3395.01	0.0014068
3404.65	0.00087695
3414.3	0.0007295
3423.94	0.0011718
3433.59	0.0012044
3443.23	0.0010764
3452.88	0.00083337
3462.52	0.0011058
3472.17	0.0011794
3481.81	0.0016551
3491.46	0.0015603
3501.1	0.001623
3510.75	0.0014521
3520.39	0.0017094
3530.04	0.0011336
3539.68	0.001894
3549.32	0.0017171
3558.97	0.002264
3568.61	0.002344
3578.26	0.0012516
3587.9	0.002034
3597.55	0.0014987
3607.19	0.0017273
3616.84	0.0013999
3626.48	0.0016827
3636.13	0.0012171
3645.77	0.000415
3655.42	0.0009271
3665.06	0.00127
3674.71	0.0006946
3684.35	0.0010673
3694	0.0017053
3703.64	0.0013617
3713.29	0.0009417
3722.93	0.0013082
3732.58	0.0014059
3742.22	0.00082375
3751.86	0.0014842
3761.51	0.0011301
3771.15	0.0014
3780.8	0.0015294
3790.44	0.000369
3800.09	0.0014137
3809.73	0.0013324
3819.38	0.0007694
3829.02	0.0006944
3838.67	0.002004
3848.31	0.001288
3857.96	0.0017545
3867.6	0.000206
3877.25	0.0017705
3886.89	0.001904
3896.54	0.0014765
3906.18	0.0007362
3915.83	1.8e-05
3925.47	0.0009081
3935.12	0.0009596
3944.76	0.0016745
3954.41	0.00077463
3964.05	0.00079927
3973.69	0.00159
3983.34	0.0016773
3992.98	0.0011166
