Infrared Spectrum: 4-Fluoro-2-(trifluoromethyl)benzoyl chloride
Formula: C 8 H 3 Cl F 4 O
CAS: 189807-21-4
State: gas
Origin: EPA-IR VAPOR PHASE LIBRARY
1/CM	ABSORBANCE
549.8	0.002322
559.445	0.00141
569.09	0.00286
578.734	0.00204
588.379	0.00113
598.024	0.002318
607.669	0.0035545
617.313	0.00538
626.958	0.00767
636.603	0.0063
646.248	0.0040236
655.893	0.0038966
665.537	0.0033302
675.182	0.002954
684.827	0.0035909
694.472	0.0032065
704.116	0.003099
713.761	0.002424
723.406	0.002935
733.051	0.0038014
742.695	0.00429
752.34	0.0035515
761.985	0.002537
771.63	0.0038831
781.275	0.002844
790.919	0.0031911
800.564	0.002478
810.209	0.0042269
819.854	0.00731
829.498	0.00849
839.143	0.00794
848.788	0.00845
858.433	0.0068
868.078	0.0041579
877.722	0.003758
887.367	0.006
897.012	0.0048
906.657	0.00482
916.301	0.00691
925.946	0.00911
935.591	0.00689
945.236	0.00447
954.88	0.0038957
964.525	0.0035864
974.17	0.0034677
983.815	0.002409
993.46	0.0032128
1003.1	0.003102
1012.75	0.003982
1022.39	0.0037524
1032.04	0.00444
1041.68	0.0040088
1051.33	0.00645
1060.97	0.00445
1070.62	0.00336959
1080.26	0.00304
1089.91	0.002868
1099.55	0.00206
1109.2	0.002955
1118.84	0.00122
1128.49	0.00524
1138.13	0.00482
1147.78	0.00555
1157.42	0.01182
1167.07	0.01864
1176.71	0.02449
1186.36	0.01597
1196	0.01058
1205.64	0.002292
1215.29	0.00183
1224.93	0
1234.58	0.00127
1244.22	0.002425
1253.87	0.002453
1263.51	0.00495
1273.16	0.00488
1282.8	0.00507
1292.45	0.00604
1302.09	0.00874
1311.74	0.01554
1321.38	0.01285
1331.03	0.0057
1340.67	0.0037193
1350.32	0.0035102
1359.96	0.0032462
1369.61	0.0034849
1379.25	0.0034003
1388.9	0.0034484
1398.54	0.003417
1408.18	0.00494
1417.83	0.0068
1427.47	0.00709
1437.12	0.004163
1446.76	0.0036079
1456.41	0.003598
1466.05	0.0038471
1475.7	0.003594
1485.34	0.00486
1494.99	0.00558
1504.63	0.00473
1514.28	0.0038479
1523.92	0.0036397
1533.57	0.0037372
1543.21	0.0034758
1552.86	0.0035983
1562.5	0.0033522
1572.15	0.0040937
1581.79	0.00429
1591.44	0.00511
1601.08	0.00524
1610.73	0.0055
1620.37	0.00486
1630.01	0.0039345
1639.66	0.0038986
1649.3	0.00330372
1658.95	0.00333528
1668.59	0.003049
1678.24	0.003143
1687.88	0.003163
1697.53	0.002952
1707.17	0.0035444
1716.82	0.0032591
1726.46	0.0032524
1736.11	0.0035317
1745.75	0.0034118
1755.4	0.0038269
1765.04	0.00447
1774.69	0.0049
1784.33	0.00565
1793.98	0.00794
1803.62	0.01285
1813.27	0.01064
1822.91	0.00605
1832.55	0.0042309
1842.2	0.0037295
1851.84	0.0036517
1861.49	0.0035525
1871.13	0.0032063
1880.78	0.0032086
1890.42	0.0035457
1900.07	0.0036025
1909.71	0.0034806
1919.36	0.0035426
1929	0.0032412
1938.65	0.00334718
1948.29	0.0034806
1957.94	0.0034267
1967.58	0.0035731
1977.23	0.00327539
1986.87	0.0033879
1996.52	0.0034905
2006.16	0.0035093
2015.81	0.0034343
2025.45	0.003525
2035.1	0.0031839
2044.74	0.0034994
2054.38	0.0035161
2064.03	0.00329892
2073.67	0.0033911
2083.32	0.0034209
2092.96	0.0036628
2102.61	0.0035239
2112.25	0.00336724
2121.9	0.00335837
2131.54	0.0037387
2141.19	0.00326205
2150.83	0.0033736
2160.48	0.0037373
2170.12	0.0035838
2179.77	0.0034838
2189.41	0.00328655
2199.06	0.0036087
2208.7	0.0036849
2218.35	0.0037557
2227.99	0.0036915
2237.64	0.0035628
2247.28	0.0034787
2256.92	0.0034021
2266.57	0.0035297
2276.21	0.0035785
2285.86	0.00351
2295.5	0.0039498
2305.15	0.003543
2314.79	0.003161
2324.44	0.0037082
2334.08	0.0034971
2343.73	0.0038334
2353.37	0.0036108
2363.02	0.0035763
2372.66	0.003683
2382.31	0.0038033
2391.95	0.0035665
2401.6	0.003523
2411.24	0.0036424
2420.89	0.0036808
2430.53	0.003515
2440.18	0.0034522
2449.82	0.00328101
2459.47	0.0038035
2469.11	0.0033922
2478.75	0.0035917
2488.4	0.0033755
2498.04	0.0033876
2507.69	0.00336595
2517.33	0.0036805
2526.98	0.0037724
2536.62	0.0039252
2546.27	0.0038624
2555.91	0.0037256
2565.56	0.0037243
2575.2	0.0039507
2584.85	0.0040369
2594.49	0.0039828
2604.14	0.0035888
2613.78	0.0038382
2623.43	0.0034984
2633.07	0.0037214
2642.72	0.0036596
2652.36	0.0037851
2662.01	0.0034592
2671.65	0.0041105
2681.29	0.0037248
2690.94	0.0038247
2700.58	0.0038769
2710.23	0.0037032
2719.87	0.00427
2729.52	0.003727
2739.16	0.0035035
2748.81	0.0035811
2758.45	0.0037856
2768.1	0.004146
2777.74	0.0040469
2787.39	0.0037963
2797.03	0.0033959
2806.68	0.0038429
2816.32	0.0037615
2825.97	0.0035697
2835.61	0.0036046
2845.26	0.0034994
2854.9	0.00376
2864.55	0.0040493
2874.19	0.0039197
2883.84	0.0034511
2893.48	0.0039043
2903.12	0.0035982
2912.77	0.0039658
2922.41	0.0038574
2932.06	0.0041778
2941.7	0.0036166
2951.35	0.0038534
2960.99	0.0044
2970.64	0.00439
2980.28	0.003574
2989.93	0.0041838
2999.57	0.0041109
3009.22	0.0037644
3018.86	0.003756
3028.51	0.0035361
3038.15	0.002981
3047.8	0.0040605
3057.44	0.00335847
3067.09	0.0035118
3076.73	0.0041624
3086.38	0.00333354
3096.02	0.0041527
3105.67	0.003042
3115.31	0.0039478
3124.95	0.0035592
3134.6	0.0038149
3144.24	0.0041435
3153.89	0.0036967
3163.53	0.0032858
3173.18	0.0036918
3182.82	0.0035177
3192.47	0.0035212
3202.11	0.00327045
3211.76	0.0037682
3221.4	0.0039482
3231.05	0.00445
3240.69	0.0036898
3250.34	0.0042143
3259.98	0.0037065
3269.63	0.0040574
3279.27	0.00330314
3288.92	0.0035753
3298.56	0.0031778
3308.21	0.0035907
3317.85	0.003658
3327.49	0.0038431
3337.14	0.0037065
3346.78	0.00449
3356.43	0.0040612
3366.07	0.0037714
3375.72	0.004098
3385.36	0.00334981
3395.01	0.0040605
3404.65	0.00269
3414.3	0.003097
3423.94	0.0040526
3433.59	0.00335472
3443.23	0.0037454
3452.88	0.00327972
3462.52	0.0038408
3472.17	0.0040131
3481.81	0.0039223
3491.46	0.0035716
3501.1	0.0036022
3510.75	0.0035039
3520.39	0.003561
3530.04	0.00428
3539.68	0.0032057
3549.32	0.0031915
3558.97	0.0038046
3568.61	0.0035274
3578.26	0.00333958
3587.9	0.0039053
3597.55	0.0040024
3607.19	0.003063
3616.84	0.0031828
3626.48	0.002995
3636.13	0.0041927
3645.77	0.0037966
3655.42	0.003249
3665.06	0.003009
3674.71	0.002525
3684.35	0.00329646
3694	0.0042572
3703.64	0.0039885
3713.29	0.0034501
3722.93	0.0037368
3732.58	0.002922
3742.22	0.0034554
3751.86	0.00466
3761.51	0.0037978
3771.15	0.0036556
3780.8	0.0038529
3790.44	0.003051
3800.09	0.0037198
3809.73	0.0035793
3819.38	0.0040469
3829.02	0.002946
3838.67	0.00331846
3848.31	0.0036767
3857.96	0.00446
3867.6	0.0038916
3877.25	0.0036824
3886.89	0.0034067
3896.54	0.00328949
3906.18	0.0034612
3915.83	0.0040248
3925.47	0.002931
3935.12	0.0036861
3944.76	0.004005
3954.41	0.003001
3964.05	0.0034815
3973.69	0.0039686
3983.34	0.0038069
3992.98	0.002949
