Infrared Spectrum: 2-Methoxy-4-nitrophenyl isothiocyanate
Formula: C 8 H 6 N 2 O 3 S
CAS: 190774-55-1
State: gas
Origin: EPA-IR VAPOR PHASE LIBRARY
1/CM	ABSORBANCE
549.8	0.003019
559.445	0.002559
569.09	0.002649
578.734	0.002399
588.379	0.002539
598.024	0.002689
607.669	0.002469
617.313	0.002499
626.958	0.002329
636.603	0.002519
646.248	0.003279
655.893	0.003109
665.537	0.003219
675.182	0.002409
684.827	0.002469
694.472	0.002199
704.116	0.001469
713.761	0.0007623
723.406	0.0008289
733.051	0.0009361
742.695	0.0011661
752.34	0.0013075
761.985	0.0013364
771.63	0.0012145
781.275	0.001609
790.919	0.003809
800.564	0.008889
810.209	0.008859
819.854	0.008709
829.498	0.006779
839.143	0.002919
848.788	0.002699
858.433	0.003429
868.078	0.003289
877.722	0.003359
887.367	0.003329
897.012	0.002839
906.657	0.002319
916.301	0.002129
925.946	0.001869
935.591	0.003129
945.236	0.006219
954.88	0.006989
964.525	0.003899
974.17	0.002669
983.815	0.001869
993.46	0.001909
1003.1	0.001919
1012.75	0.003109
1022.39	0.005899
1032.04	0.010579
1041.68	0.009789
1051.33	0.004349
1060.97	0.003519
1070.62	0.005699
1080.26	0.005829
1089.91	0.003579
1099.55	0.002489
1109.2	0.002289
1118.84	0.001869
1128.49	0.002389
1138.13	0.003639
1147.78	0.003389
1157.42	0.003749
1167.07	0.004669
1176.71	0.005159
1186.36	0.004749
1196	0.004109
1205.64	0.005609
1215.29	0.012229
1224.93	0.024899
1234.58	0.018539
1244.22	0.008959
1253.87	0.011649
1263.51	0.017869
1273.16	0.025789
1282.8	0.023679
1292.45	0.019279
1302.09	0.019549
1311.74	0.019729
1321.38	0.014899
1331.03	0.011259
1340.67	0.013869
1350.32	0.016459
1359.96	0.011949
1369.61	0.006379
1379.25	0.004349
1388.9	0.003599
1398.54	0.003489
1408.18	0.004099
1417.83	0.005079
1427.47	0.005819
1437.12	0.007319
1446.76	0.009919
1456.41	0.007839
1466.05	0.009789
1475.7	0.011239
1485.34	0.018979
1494.99	0.037509
1504.63	0.032429
1514.28	0.020189
1523.92	0.019249
1533.57	0.023049
1543.21	0.036459
1552.86	0.042879
1562.5	0.028459
1572.15	0.025009
1581.79	0.015669
1591.44	0.008899
1601.08	0.006009
1610.73	0.005609
1620.37	0.005219
1630.01	0.003619
1639.66	0.002579
1649.3	0.001969
1658.95	0.0014179
1668.59	0.0011404
1678.24	0.0008094
1687.88	0.0008482
1697.53	0.0008955
1707.17	0.0008917
1716.82	0.0006042
1726.46	0.0006875
1736.11	0.0008012
1745.75	0.0011412
1755.4	0.0014323
1765.04	0.002099
1774.69	0.003329
1784.33	0.002989
1793.98	0.002849
1803.62	0.002839
1813.27	0.001489
1822.91	0.0013739
1832.55	0.0013076
1842.2	0.001499
1851.84	0.001609
1861.49	0.001689
1871.13	0.001809
1880.78	0.002109
1890.42	0.002509
1900.07	0.002989
1909.71	0.003339
1919.36	0.003729
1929	0.004659
1938.65	0.005719
1948.29	0.007459
1957.94	0.009779
1967.58	0.013219
1977.23	0.017749
1986.87	0.023639
1996.52	0.031199
2006.16	0.041099
2015.81	0.053269
2025.45	0.066839
2035.1	0.082799
2044.74	0.097509
2054.38	0.093389
2064.03	0.075369
2073.67	0.062229
2083.32	0.057779
2092.96	0.056949
2102.61	0.048799
2112.25	0.035569
2121.9	0.026489
2131.54	0.022749
2141.19	0.020429
2150.83	0.016519
2160.48	0.012539
2170.12	0.009459
2179.77	0.007659
2189.41	0.006379
2199.06	0.006009
2208.7	0.006079
2218.35	0.005959
2227.99	0.006149
2237.64	0.007139
2247.28	0.009479
2256.92	0.011779
2266.57	0.011939
2276.21	0.010869
2285.86	0.008849
2295.5	0.006779
2305.15	0.006039
2314.79	0.006219
2324.44	0.006619
2334.08	0.006159
2343.73	0.005629
2353.37	0.005989
2363.02	0.007629
2372.66	0.005959
2382.31	0.002879
2391.95	0.0013817
2401.6	0.0013014
2411.24	0.0010996
2420.89	0.0010473
2430.53	0.0009535
2440.18	0.001037
2449.82	0.0010487
2459.47	0.0009031
2469.11	0.0008775
2478.75	0.0009128
2488.4	0.001032
2498.04	0.0010899
2507.69	0.0014588
2517.33	0.0014401
2526.98	0.001479
2536.62	0.001559
2546.27	0.001559
2555.91	0.0014156
2565.56	0.0014104
2575.2	0.0013369
2584.85	0.0012575
2594.49	0.0009853
2604.14	0.0009125
2613.78	0.0008575
2623.43	0.0008902
2633.07	0.0009172
2642.72	0.0010324
2652.36	0.0010412
2662.01	0.0009534
2671.65	0.001022
2681.29	0.0011608
2690.94	0.0013938
2700.58	0.001469
2710.23	0.001469
2719.87	0.0012769
2729.52	0.0010899
2739.16	0.0010672
2748.81	0.0009918
2758.45	0.0009501
2768.1	0.0009227
2777.74	0.000834
2787.39	0.0009295
2797.03	0.0009948
2806.68	0.0010654
2816.32	0.0011543
2825.97	0.0014069
2835.61	0.001899
2845.26	0.003589
2854.9	0.003959
2864.55	0.002389
2874.19	0.001889
2883.84	0.001819
2893.48	0.002009
2903.12	0.002459
2912.77	0.003039
2922.41	0.003259
2932.06	0.003119
2941.7	0.004669
2951.35	0.005759
2960.99	0.004999
2970.64	0.004409
2980.28	0.003039
2989.93	0.002359
2999.57	0.002259
3009.22	0.003289
3018.86	0.004779
3028.51	0.002689
3038.15	0.001469
3047.8	0.001267
3057.44	0.0013011
3067.09	0.0013673
3076.73	0.0012332
3086.38	0.0014239
3096.02	0.001402
3105.67	0.0009661
3115.31	0.0006096
3124.95	0.0006908
3134.6	0.00047423
3144.24	0.0004206
3153.89	0.000299
3163.53	0.000291
3173.18	0.000309
3182.82	0.000233
3192.47	0.000186
3202.11	0.000236
3211.76	0.00015
3221.4	7.4e-05
3231.05	0.000217
3240.69	0.0004041
3250.34	0.000207
3259.98	7.2e-05
3269.63	0.000141
3279.27	2.3e-05
3288.92	0.00018
3298.56	0.000231
3308.21	0.000161
3317.85	6.4e-05
3327.49	0.00027
3337.14	0.000146
3346.78	0.000124
3356.43	4.6e-05
3366.07	0.000284
3375.72	0.00012
3385.36	0.000219
3395.01	8.4e-05
3404.65	0.000339
3414.3	0.000262
3423.94	0.000321
3433.59	0.000276
3443.23	0.000222
3452.88	0.000175
3462.52	0.00049674
3472.17	0.000351
3481.81	0.000212
3491.46	0.00027
3501.1	0.000459323
3510.75	0.00049378
3520.39	0.000244
3530.04	0.00031
3539.68	0.000271
3549.32	0.000252
3558.97	0.000284
3568.61	0.000222
3578.26	0.000175
3587.9	0.000288
3597.55	0.000286
3607.19	0.000283
3616.84	0.000319
3626.48	0.000318
3636.13	0.000265
3645.77	0.000422
3655.42	0.00023
3665.06	0.000324
3674.71	0.000326
3684.35	0.000429
3694	0.0004374
3703.64	0.000329
3713.29	0.0004242
3722.93	0.0004059
3732.58	0.0005626
3742.22	0.0004052
3751.86	0.0003683
3761.51	0.00051207
3771.15	0.000291
3780.8	0.0004467
3790.44	0.00048594
3800.09	0.0004355
3809.73	0.000395
3819.38	0.000153
3829.02	0.000122
3838.67	0.000321
3848.31	0.0003734
3857.96	0.000183
3867.6	0.0004321
3877.25	0.000354
3886.89	0.000309
3896.54	0.00032
3906.18	0.0003608
3915.83	0.00045029
3925.47	0.0003873
3935.12	0.00052612
3944.76	0.0005798
3954.41	0.0003949
3964.05	0.0004146
3973.69	0.000462061
3983.34	0.0006713
3992.98	0.0007215
