Infrared Spectrum: 2-Methoxy-5-methylphenyl isothiocyanate
Formula: C 9 H 9 N O S
CAS: 190774-56-2
State: gas
Origin: EPA-IR VAPOR PHASE LIBRARY
1/CM	ABSORBANCE
549.8	0.009076
559.445	0.009096
569.09	0.011036
578.734	0.012776
588.379	0.009256
598.024	0.006626
607.669	0.004276
617.313	0.004636
626.958	0.004726
636.603	0.003376
646.248	0.002426
655.893	0.002406
665.537	0.003786
675.182	0.006326
684.827	0.007746
694.472	0.004336
704.116	0.002366
713.761	0.003616
723.406	0.007406
733.051	0.017286
742.695	0.016996
752.34	0.007576
761.985	0.005196
771.63	0.004146
781.275	0.005046
790.919	0.011676
800.564	0.022766
810.209	0.025106
819.854	0.028686
829.498	0.028636
839.143	0.014126
848.788	0.006116
858.433	0.006236
868.078	0.010276
877.722	0.007596
887.367	0.003676
897.012	0.003076
906.657	0.003716
916.301	0.003916
925.946	0.003626
935.591	0.003116
945.236	0.003156
954.88	0.005456
964.525	0.011656
974.17	0.015616
983.815	0.011876
993.46	0.011626
1003.1	0.015996
1012.75	0.023106
1022.39	0.028396
1032.04	0.029266
1041.68	0.024316
1051.33	0.013426
1060.97	0.006366
1070.62	0.004026
1080.26	0.002866
1089.91	0.002596
1099.55	0.003006
1109.2	0.003466
1118.84	0.008816
1128.49	0.021396
1138.13	0.026146
1147.78	0.017506
1157.42	0.012846
1167.07	0.010386
1176.71	0.007306
1186.36	0.007396
1196	0.007316
1205.64	0.008276
1215.29	0.015186
1224.93	0.031926
1234.58	0.051266
1244.22	0.043486
1253.87	0.029046
1263.51	0.044996
1273.16	0.061556
1282.8	0.055996
1292.45	0.046226
1302.09	0.029206
1311.74	0.014536
1321.38	0.007536
1331.03	0.005026
1340.67	0.003826
1350.32	0.003376
1359.96	0.003296
1369.61	0.003376
1379.25	0.003676
1388.9	0.004136
1398.54	0.004616
1408.18	0.006676
1417.83	0.010206
1427.47	0.012576
1437.12	0.015806
1446.76	0.017166
1456.41	0.016186
1466.05	0.019136
1475.7	0.017346
1485.34	0.022116
1494.99	0.057466
1504.63	0.096636
1514.28	0.068576
1523.92	0.027706
1533.57	0.013956
1543.21	0.010006
1552.86	0.008246
1562.5	0.007836
1572.15	0.009456
1581.79	0.011876
1591.44	0.014556
1601.08	0.020646
1610.73	0.022516
1620.37	0.011966
1630.01	0.005046
1639.66	0.003546
1649.3	0.002976
1658.95	0.002586
1668.59	0.002286
1678.24	0.002176
1687.88	0.001926
1697.53	0.001956
1707.17	0.002186
1716.82	0.002586
1726.46	0.003006
1736.11	0.003416
1745.75	0.003226
1755.4	0.002716
1765.04	0.002476
1774.69	0.002556
1784.33	0.002756
1793.98	0.003376
1803.62	0.003736
1813.27	0.003536
1822.91	0.003496
1832.55	0.003786
1842.2	0.004466
1851.84	0.004976
1861.49	0.005146
1871.13	0.005556
1880.78	0.005846
1890.42	0.006206
1900.07	0.007126
1909.71	0.009126
1919.36	0.012436
1929	0.017796
1938.65	0.025016
1948.29	0.034246
1957.94	0.046316
1967.58	0.063586
1977.23	0.087116
1986.87	0.112126
1996.52	0.132756
2006.16	0.157286
2015.81	0.199786
2025.45	0.277556
2035.1	0.365946
2044.74	0.359726
2054.38	0.285016
2064.03	0.226136
2073.67	0.185406
2083.32	0.169206
2092.96	0.186996
2102.61	0.217486
2112.25	0.217466
2121.9	0.174206
2131.54	0.123616
2141.19	0.090836
2150.83	0.071226
2160.48	0.058976
2170.12	0.046846
2179.77	0.032916
2189.41	0.021976
2199.06	0.015726
2208.7	0.011976
2218.35	0.009316
2227.99	0.007736
2237.64	0.007136
2247.28	0.006896
2256.92	0.006686
2266.57	0.005766
2276.21	0.004896
2285.86	0.004536
2295.5	0.004176
2305.15	0.003566
2314.79	0.003296
2324.44	0.003206
2334.08	0.003016
2343.73	0.002566
2353.37	0.002246
2363.02	0.002106
2372.66	0.002136
2382.31	0.002326
2391.95	0.002756
2401.6	0.002946
2411.24	0.003126
2420.89	0.003326
2430.53	0.003386
2440.18	0.003436
2449.82	0.003196
2459.47	0.002956
2469.11	0.002886
2478.75	0.002956
2488.4	0.003216
2498.04	0.003666
2507.69	0.004076
2517.33	0.004346
2526.98	0.004516
2536.62	0.004546
2546.27	0.004986
2555.91	0.004876
2565.56	0.004616
2575.2	0.004386
2584.85	0.004256
2594.49	0.004186
2604.14	0.003646
2613.78	0.003066
2623.43	0.002846
2633.07	0.002576
2642.72	0.002326
2652.36	0.002036
2662.01	0.001656
2671.65	0.001756
2681.29	0.001836
2690.94	0.001926
2700.58	0.002146
2710.23	0.002296
2719.87	0.002496
2729.52	0.003136
2739.16	0.003496
2748.81	0.003436
2758.45	0.002696
2768.1	0.002306
2777.74	0.002376
2787.39	0.002586
2797.03	0.003046
2806.68	0.003676
2816.32	0.004336
2825.97	0.006256
2835.61	0.010546
2845.26	0.015366
2854.9	0.014166
2864.55	0.012716
2874.19	0.014156
2883.84	0.013846
2893.48	0.013306
2903.12	0.015296
2912.77	0.018446
2922.41	0.023206
2932.06	0.031546
2941.7	0.034506
2951.35	0.029646
2960.99	0.024406
2970.64	0.017646
2980.28	0.012956
2989.93	0.012426
2999.57	0.014946
3009.22	0.018936
3018.86	0.017416
3028.51	0.014126
3038.15	0.015376
3047.8	0.014766
3057.44	0.010576
3067.09	0.007256
3076.73	0.007086
3086.38	0.005996
3096.02	0.004466
3105.67	0.003186
3115.31	0.002656
3124.95	0.001996
3134.6	0.0013072
3144.24	0.0009329
3153.89	0.0005863
3163.53	0.0007064
3173.18	0.0005557
3182.82	0.00049532
3192.47	0.000417
3202.11	0.000275
3211.76	0.000285
3221.4	0.000175
3231.05	0.000297
3240.69	0.000306
3250.34	0.000316
3259.98	0.00019
3269.63	0.000197
3279.27	3.7e-05
3288.92	0.000303
3298.56	0.000299
3308.21	0.000197
3317.85	0.000156
3327.49	0.0003666
3337.14	4.3e-05
3346.78	3.2e-05
3356.43	8.6e-05
3366.07	5.6e-05
3375.72	0.000177
3385.36	0.0003731
3395.01	0.00046753
3404.65	0.000265
3414.3	0.000208
3423.94	0.000172
3433.59	0.000335
3443.23	0.0003486
3452.88	0.000197
3462.52	0.000181
3472.17	0.000231
3481.81	0.000197
3491.46	0.0005618
3501.1	0.000171
3510.75	0.000247
3520.39	0.000237
3530.04	0.0004247
3539.68	0.0003379
3549.32	0.0003645
3558.97	0.000156
3568.61	0.000168
3578.26	0.000158
3587.9	0.000124
3597.55	0.00026
3607.19	0.000283
3616.84	7.4e-05
3626.48	0.00032
3636.13	0.000175
3645.77	0.000151
3655.42	0.0003846
3665.06	0.000229
3674.71	0.000303
3684.35	0.00051524
3694	0.000325
3703.64	0.000302
3713.29	0.00044402
3722.93	0.00053225
3732.58	0.00028
3742.22	0.000356
3751.86	0.000713
3761.51	0.00046414
3771.15	0.00053319
3780.8	0.0003505
3790.44	0.0004084
3800.09	0.00042897
3809.73	0.00047569
3819.38	0.00041
3829.02	0.00045014
3838.67	0.0005584
3848.31	0.0006076
3857.96	0.00052489
3867.6	0.0007642
3877.25	0.0008855
3886.89	0.0007063
3896.54	0.0007613
3906.18	0.0008893
3915.83	0.0010333
3925.47	0.000975
3935.12	0.0010448
3944.76	0.0013021
3954.41	0.0012268
3964.05	0.0012343
3973.69	0.0014206
3983.34	0.001586
3992.98	0.0014248
