Infrared Spectrum: N-n-Butyl-p-Toluenesulfonamide
Formula: C11 H17 N O2 S
CAS: 1907-65-9
State: SOLID (SPLIT MULL)
Melting point: 41 C
Class: COBLENTZ II
Instrument: DOW KBr FOREPRISM-GRATING
Instrument parameters: BLAZED AT 3.5, 12.0, 20.0 MICRON AND CHANGED AT 5.0, 7.5, 14.9 MICRON
Sampling: TRANSMISSION
Resolution: 2
Origin: DOW CHEMICAL COMPANY
1/CM	TRANSMITTANCE
3800	0.71
3791	0.7115
3782	0.7135
3773	0.7154
3764	0.7172
3755	0.719
3746	0.7205
3737	0.7218
3728	0.7221
3719	0.7224
3710	0.7249
3701	0.7278
3692	0.7237
3683	0.7234
3674	0.7301
3665	0.7338
3656	0.7335
3647	0.7318
3638	0.7298
3629	0.731
3620	0.7331
3611	0.7361
3602	0.7376
3593	0.7389
3584	0.74
3575	0.7408
3566	0.7418
3557	0.7418
3548	0.7406
3539	0.74
3530	0.7425
3521	0.7422
3512	0.7421
3503	0.7425
3494	0.7431
3485	0.7439
3476	0.7447
3467	0.7453
3458	0.746
3449	0.7533
3440	0.7532
3431	0.7531
3422	0.7531
3413	0.7538
3404	0.7555
3395	0.7564
3386	0.7574
3377	0.7597
3368	0.7625
3359	0.7642
3350	0.7646
3341	0.7668
3332	0.7708
3323	0.774
3314	0.7751
3305	0.7703
3296	0.7628
3287	0.7468
3278	0.6476
3269	0.6106
3260	0.4293
3251	0.1711
3242	0.2905
3233	0.481
3224	0.5743
3215	0.614
3206	0.6425
3197	0.6639
3188	0.6812
3179	0.6957
3170	0.7021
3161	0.7028
3152	0.7011
3143	0.7099
3134	0.7211
3125	0.731
3116	0.7385
3107	0.7444
3098	0.7483
3089	0.7508
3080	0.7528
3071	0.7528
3062	0.7438
3053	0.7425
3044	0.7433
3035	0.7543
3026	0.7578
3017	0.7618
3008	0.7668
2999	0.7714
2990	0.7708
2981	0.592
2972	0.5835
2963	0.5831
2954	0.6408
2945	0.5419
2936	0.5221
2927	0.6004
2918	0.6411
2909	0.6687
2900	0.6889
2891	0.6962
2882	0.6858
2873	0.5722
2864	0.5773
2855	0.6484
2846	0.6921
2837	0.7168
2828	0.7322
2819	0.7471
2810	0.7555
2801	0.7625
2792	0.7668
2783	0.7701
2774	0.7734
2765	0.7765
2756	0.7799
2747	0.7828
2738	0.7858
2729	0.7887
2720	0.7915
2711	0.7942
2702	0.7969
2693	0.7997
2684	0.8019
2675	0.8042
2666	0.8065
2657	0.8078
2648	0.809
2639	0.81
2630	0.8103
2621	0.8105
2612	0.8098
2603	0.8097
2594	0.8103
2585	0.8118
2576	0.8128
2567	0.8162
2558	0.8212
2549	0.8231
2540	0.8232
2531	0.8233
2522	0.8237
2513	0.8241
2504	0.8245
2495	0.8253
2486	0.8265
2477	0.8275
2468	0.8284
2459	0.8286
2450	0.8281
2441	0.8275
2432	0.827
2423	0.8266
2414	0.8262
2405	0.8256
2396	0.8263
2387	0.83
2378	0.8368
2369	0.8405
2360	0.8421
2351	0.8387
2342	0.8342
2333	0.8294
2324	0.8257
2315	0.8237
2306	0.8242
2297	0.8285
2288	0.8308
2279	0.8328
2270	0.8354
2261	0.8378
2252	0.8411
2243	0.8446
2234	0.8494
2225	0.8538
2216	0.8575
2207	0.8571
2198	0.8565
2189	0.8561
2180	0.856
2171	0.8593
2162	0.8628
2153	0.8656
2144	0.8675
2135	0.869
2126	0.8698
2117	0.8706
2108	0.8717
2099	0.8727
2090	0.8741
2081	0.8758
2072	0.8775
2063	0.8789
2054	0.8797
2045	0.8807
2036	0.8821
2027	0.884
2018	0.8871
2009	0.8878
2000	0.8814
1991	0.8742
1982	0.8778
1973	0.8786
1964	0.8763
1955	0.8773
1946	0.8783
1937	0.8771
1928	0.875
1919	0.8541
1910	0.8714
1901	0.8768
1892	0.8793
1883	0.879
1874	0.8785
1865	0.8799
1856	0.8818
1847	0.8833
1838	0.8846
1829	0.886
1820	0.8859
1811	0.8803
1802	0.8744
1793	0.8811
1784	0.8825
1775	0.8831
1766	0.8808
1757	0.879
1748	0.8791
1739	0.88
1730	0.8583
1721	0.8334
1712	0.8664
1703	0.8832
1694	0.89
1685	0.8946
1676	0.8925
1667	0.8952
1658	0.8898
1649	0.8807
1640	0.8907
1631	0.8897
1622	0.889
1613	0.8916
1604	0.8597
1595	0.7868
1586	0.8684
1577	0.8816
1568	0.8866
1559	0.8908
1550	0.8875
1541	0.8878
1532	0.8874
1523	0.884
1514	0.8825
1505	0.8753
1496	0.8005
1487	0.8491
1478	0.8258
1469	0.7337
1460	0.7531
1451	0.7434
1442	0.6989
1433	0.5033
1424	0.6407
1415	0.7203
1406	0.7731
1397	0.7861
1388	0.8176
1379	0.8081
1370	0.8278
1361	0.8221
1352	0.8015
1343	0.6571
1334	0.4439
1325	0.2095
1316	0.3759
1307	0.5444
1298	0.6846
1289	0.5923
1280	0.7662
1271	0.8108
1262	0.8122
1253	0.8555
1244	0.8725
1235	0.8845
1226	0.8551
1217	0.8799
1208	0.8868
1199	0.8906
1190	0.8308
1181	0.841
1172	0.7065
1163	0.1394
1154	0.1629
1145	0.549
1136	0.7525
1127	0.6362
1118	0.7724
1109	0.8148
1100	0.7449
1091	0.3755
1082	0.7611
1073	0.7475
1064	0.5539
1055	0.8051
1046	0.8534
1037	0.8556
1028	0.8703
1019	0.8788
1010	0.8887
1001	0.8986
992	0.9032
983	0.8945
974	0.8941
965	0.8937
956	0.8959
947	0.8653
938	0.8193
929	0.6435
920	0.7781
911	0.8668
902	0.9
893	0.9121
884	0.8547
875	0.6465
866	0.785
857	0.8432
848	0.8757
839	0.8886
830	0.8885
821	0.8627
812	0.3234
803	0.8383
794	0.8677
785	0.8921
776	0.8881
767	0.8797
758	0.8647
749	0.8406
740	0.7533
731	0.7756
722	0.7053
713	0.6534
704	0.6995
695	0.6192
686	0.4819
677	0.4374
668	0.466
659	0.6411
650	0.8148
641	0.8853
632	0.8736
623	0.8648
614	0.874
605	0.88
596	0.8744
587	0.7925
578	0.6269
569	0.8708
560	0.6348
551	0.6582
542	0.8785
533	0.9012
524	0.9018
515	0.7054
506	0.8487
497	0.8795
488	0.8046
479	0.8868
470	0.8978
461	0.9045
