Infrared Spectrum: 4-Fluoro-2-(trifluoromethyl)benzonitrile
Formula: C 8 H 3 F 4 N
CAS: 194853-86-6
State: gas
Origin: EPA-IR VAPOR PHASE LIBRARY
1/CM	ABSORBANCE
549.8	0.01655
559.445	0.01218
569.09	0.00606
578.734	0.00375
588.379	0.0028
598.024	0.00402
607.669	0.00382
617.313	0.0025613
626.958	0.0024161
636.603	0.00333
646.248	0.00311
655.893	0.00397
665.537	0.01108
675.182	0.01284
684.827	0.0097
694.472	0.00805
704.116	0.00738
713.761	0.01692
723.406	0.01944
733.051	0.00958
742.695	0.01176
752.34	0.01499
761.985	0.00481
771.63	0.002114
781.275	0.0015254
790.919	0.001476
800.564	0.0020444
810.209	0.00389
819.854	0.01158
829.498	0.03024
839.143	0.02596
848.788	0.00985
858.433	0.00425
868.078	0.00554
877.722	0.016
887.367	0.03838
897.012	0.02968
906.657	0.03768
916.301	0.05661
925.946	0.02477
935.591	0.00631
945.236	0.00282
954.88	0.0028
964.525	0.00291
974.17	0.0020304
983.815	0.00327
993.46	0.0024686
1003.1	0.00316
1012.75	0.0039
1022.39	0.0049
1032.04	0.0113
1041.68	0.03905
1051.33	0.0474
1060.97	0.01786
1070.62	0.00759
1080.26	0.00498
1089.91	0.00606
1099.55	0.00451
1109.2	0.00899
1118.84	0.02384
1128.49	0.03387
1138.13	0.03888
1147.78	0.08574
1157.42	0.16927
1167.07	0.2522
1176.71	0.30934
1186.36	0.27351
1196	0.16005
1205.64	0.07707
1215.29	0.05846
1224.93	0.05837
1234.58	0.03493
1244.22	0.02765
1253.87	0.04316
1263.51	0.05983
1273.16	0.06169
1282.8	0.05576
1292.45	0.05066
1302.09	0.07788
1311.74	0.23397
1321.38	0.27109
1331.03	0.07063
1340.67	0.01085
1350.32	0.00584
1359.96	0.0051
1369.61	0.00632
1379.25	0.01189
1388.9	0.01482
1398.54	0.01148
1408.18	0.0168
1417.83	0.03946
1427.47	0.09456
1437.12	0.07669
1446.76	0.01311
1456.41	0.00593
1466.05	0.00602
1475.7	0.01303
1485.34	0.04263
1494.99	0.09049
1504.63	0.07117
1514.28	0.0215
1523.92	0.00852
1533.57	0.00549
1543.21	0.00393
1552.86	0.00511
1562.5	0.00744
1572.15	0.0104
1581.79	0.01458
1591.44	0.02117
1601.08	0.02839
1610.73	0.04435
1620.37	0.04133
1630.01	0.01575
1639.66	0.00633
1649.3	0.00365
1658.95	0.00417
1668.59	0.0043
1678.24	0.0029
1687.88	0.0019473
1697.53	0.0017776
1707.17	0.0018204
1716.82	0.0021446
1726.46	0.0021375
1736.11	0.0018169
1745.75	0.00158175
1755.4	0.001803
1765.04	0.00341
1774.69	0.00514
1784.33	0.00458
1793.98	0.0025151
1803.62	0.00160163
1813.27	0.001336
1822.91	0.001311
1832.55	0.001203
1842.2	0.001427
1851.84	0.001435
1861.49	0.0015276
1871.13	0.0017363
1880.78	0.00157596
1890.42	0.002034
1900.07	0.00346
1909.71	0.00423
1919.36	0.00322
1929	0.0022879
1938.65	0.0021254
1948.29	0.0017942
1957.94	0.0018276
1967.58	0.001263
1977.23	0.001162
1986.87	0.001313
1996.52	0.001131
2006.16	0.001062
2015.81	0.001239
2025.45	0.00138
2035.1	0.001316
2044.74	0.001298
2054.38	0.0015006
2064.03	0.0017348
2073.67	0.00159517
2083.32	0.0015747
2092.96	0.001273
2102.61	0.001283
2112.25	0.0015287
2121.9	0.00166072
2131.54	0.0022518
2141.19	0.0023733
2150.83	0.0017634
2160.48	0.00116
2170.12	0.001247
2179.77	0.001246
2189.41	0.001254
2199.06	0.001442
2208.7	0.001203
2218.35	0.0018417
2227.99	0.0025686
2237.64	0.00379
2247.28	0.00262
2256.92	0.00163416
2266.57	0.0015368
2276.21	0.001289
2285.86	0.001479
2295.5	0.0015208
2305.15	0.00157
2314.79	0.0017502
2324.44	0.0018823
2334.08	0.001926
2343.73	0.0018448
2353.37	0.0021919
2363.02	0.0023907
2372.66	0.0021522
2382.31	0.001712
2391.95	0.001458
2401.6	0.0018696
2411.24	0.0017425
2420.89	0.0018305
2430.53	0.0015374
2440.18	0.0015248
2449.82	0.0015449
2459.47	0.001125
2469.11	0.001449
2478.75	0.00161744
2488.4	0.0018437
2498.04	0.0021143
2507.69	0.0022165
2517.33	0.001831
2526.98	0.0022642
2536.62	0.0025115
2546.27	0.00216
2555.91	0.0017429
2565.56	0.001522
2575.2	0.0014838
2584.85	0.00145
2594.49	0.001245
2604.14	0.001179
2613.78	0.0012
2623.43	0.000893
2633.07	0.000931
2642.72	0.000791
2652.36	0.001027
2662.01	0.001219
2671.65	0.001208
2681.29	0.001217
2690.94	0.000921
2700.58	0.001108
2710.23	0.001204
2719.87	0.000652
2729.52	0.001361
2739.16	0.000927
2748.81	0.000917
2758.45	0.000918
2768.1	0.00038
2777.74	0.000732
2787.39	0.000674
2797.03	0.001134
2806.68	0.000761
2816.32	0.000617
2825.97	0.00087
2835.61	0.000944
2845.26	0.001061
2854.9	0.000928
2864.55	0.001159
2874.19	0.001229
2883.84	0.000941
2893.48	0.001451
2903.12	0.000774
2912.77	0.000724
2922.41	0.000689
2932.06	0.00028
2941.7	0.00051
2951.35	0.001066
2960.99	0.00056
2970.64	0.00042
2980.28	0.000717
2989.93	0.000996
2999.57	0.000899
3009.22	0.000764
3018.86	0.000893
3028.51	0.000606
3038.15	0.000943
3047.8	0.000766
3057.44	0.001029
3067.09	0.001329
3076.73	0.0020375
3086.38	0.0038
3096.02	0.00423
3105.67	0.00269
3115.31	0.00164015
3124.95	0.001264
3134.6	0.000615
3144.24	0.00052
3153.89	0.000872
3163.53	0.000759
3173.18	0.00049
3182.82	0.001363
3192.47	0.001267
3202.11	0.001306
3211.76	0.000836
3221.4	0.001295
3231.05	0.000716
3240.69	0.00046
3250.34	0.000644
3259.98	0.001013
3269.63	0.000642
3279.27	0.000623
3288.92	0.00026
3298.56	0.000799
3308.21	0.000657
3317.85	0.001183
3327.49	0.000892
3337.14	0.000777
3346.78	0.00073
3356.43	0.00043
3366.07	0.001414
3375.72	0.001098
3385.36	0.00053
3395.01	0.000968
3404.65	0.001136
3414.3	0.0014949
3423.94	0.000609
3433.59	0.001052
3443.23	0.000912
3452.88	0.000955
3462.52	0.001387
3472.17	0.000998
3481.81	0.000895
3491.46	0.001032
3501.1	0.00057
3510.75	0.000921
3520.39	0.000903
3530.04	0.000926
3539.68	0.001116
3549.32	0.000889
3558.97	0.00035
3568.61	0.000822
3578.26	0.0015242
3587.9	0.000969
3597.55	0.000775
3607.19	0.000691
3616.84	0.001014
3626.48	0.000622
3636.13	0.000759
3645.77	0.000857
3655.42	0.000937
3665.06	0.00033
3674.71	0.001046
3684.35	0.00035
3694	0.000719
3703.64	0.000964
3713.29	0.00042
3722.93	0.001356
3732.58	0.000626
3742.22	0.000935
3751.86	0.001072
3761.51	0.000676
3771.15	0.00163949
3780.8	0.000711
3790.44	0.000802
3800.09	0.00131
3809.73	0.00062
3819.38	0.001001
3829.02	0.001466
3838.67	0.001225
3848.31	0.000811
3857.96	0.001238
3867.6	0.000761
3877.25	0.00058
3886.89	0.001045
3896.54	0.00091
3906.18	0.001019
3915.83	0.00047
3925.47	0.00038
3935.12	0.00067
3944.76	0.000645
3954.41	0.00036
3964.05	0.000756
3973.69	0.00121
3983.34	0.001128
3992.98	0
