Infrared Spectrum: ANILINE, N-BENZOYL-4-NITRO-3-PHENYLSULFONYL-
Formula: C19 H14 N2 O5 S
CAS: 19770-93-5
State: SOLID (1.5% IN KBr DISC)
Melting point: 255 C
Class: COBLENTZ II
Instrument: BECKMAN IR-12 (GRATING)
Instrument parameters: GRATING CHANGES AT 300, 650, 2000 CM^-^1
Sampling: TRANSMISSION
Resolution: 4
Origin: EASTMAN KODAK COMPANY
1/CM	TRANSMITTANCE
302.111	0.729
312.005	0.667
321.9	0.679
331.794	0.699
341.689	0.706
351.583	0.667
361.478	0.71
371.372	0.716
381.267	0.72
391.161	0.714
401.056	0.707
410.95	0.721
420.845	0.714
430.739	0.726
440.634	0.692
450.528	0.745
460.423	0.803
470.317	0.839
480.212	0.825
490.106	0.867
500.001	0.871
509.895	0.797
519.79	0.869
529.684	0.751
539.579	0.722
549.473	0.872
559.368	0.803
569.262	0.665
579.157	0.801
589.051	0.413
598.946	0.617
608.84	0.642
618.735	0.604
628.629	0.777
638.524	0.835
648.418	0.834
658.313	0.839
668.207	0.709
678.101	0.7309
687.996	0.417
697.89	0.485
707.785	0.605
717.679	0.813
727.574	0.779
737.468	0.404
747.363	0.599
757.257	0.795
767.152	0.928
777.046	0.958
786.941	0.962
796.835	0.852
806.73	0.957
816.624	0.963
826.519	0.934
836.413	0.512
846.308	0.6529
856.202	0.883
866.097	0.956
875.991	0.959
885.886	0.919
895.78	0.741
905.675	0.71
915.569	0.916
925.464	0.907
935.358	0.937
945.253	0.967
955.147	0.974
965.042	0.966
974.936	0.914
984.831	0.944
994.725	0.918
1004.62	0.908
1014.51	0.902
1024.41	0.737
1034.3	0.876
1044.2	0.739
1054.09	0.815
1063.99	0.832
1073.88	0.6
1083.78	0.5589
1093.67	0.645
1103.56	0.737
1113.46	0.815
1123.35	0.761
1133.25	0.4419
1143.14	0.384
1153.04	0.2329
1162.93	0.537
1172.83	0.766
1182.72	0.724
1192.61	0.796
1202.51	0.836
1212.4	0.806
1222.3	0.715
1232.19	0.4189
1242.09	0.158
1251.98	0.379
1261.88	0.4711
1271.77	0.638
1281.67	0.3309
1291.56	0.1891
1301.45	0.2699
1311.35	0.2791
1321.24	0.278
1331.14	0.1
1341.03	0.0682
1350.93	0.261
1360.82	0.5251
1370.72	0.675
1380.61	0.5759
1390.5	0.65
1400.4	0.728
1410.29	0.794
1420.19	0.841
1430.08	0.86
1439.98	0.832
1449.87	0.5602
1459.77	0.834
1469.66	0.749
1479.55	0.472
1489.45	0.3799
1499.34	0.3821
1509.24	0.288
1519.13	0.044
1529.03	0.1281
1538.92	0.085
1548.82	0.1931
1558.71	0.619
1568.61	0.736
1578.5	0.6059
1588.39	0.27
1598.29	0.4901
1608.18	0.703
1618.08	0.843
1627.97	0.889
1637.87	0.895
1647.76	0.894
1657.66	0.881
1667.55	0.841
1677.44	0.6939
1687.34	0.132
1697.23	0.6091
1707.13	0.815
1717.02	0.87
1726.92	0.901
1736.81	0.913
1746.71	0.937
1756.6	0.948
1766.49	0.943
1776.39	0.956
1786.28	0.963
1796.18	0.96
1806.07	0.955
1815.97	0.947
1825.86	0.959
1835.76	0.97
1845.65	0.975
1855.55	0.979
1865.44	0.981
1875.33	0.975
1885.23	0.971
1895.12	0.958
1905.02	0.967
1914.91	0.962
1924.81	0.968
1934.7	0.971
1944.6	0.963
1954.49	0.953
1964.38	0.952
1974.28	0.957
1984.17	0.961
1994.07	0.965
2003.96	0.972
2013.86	0.971
2023.75	0.9681
2033.65	0.969
2043.54	0.97
2053.44	0.968
2063.33	0.97
2073.22	0.969
2083.12	0.968
2093.01	0.969
2102.91	0.969
2112.8	0.969
2122.7	0.969
2132.59	0.965
2142.49	0.966
2152.38	0.9604
2162.27	0.9588
2172.17	0.96
2182.06	0.959
2191.96	0.9582
2201.85	0.958
2211.75	0.959
2221.64	0.955
2231.54	0.955
2241.43	0.956
2251.32	0.956
2261.22	0.9607
2271.11	0.9593
2281.01	0.962
2290.9	0.96
2300.8	0.9646
2310.69	0.962
2320.59	0.9589
2330.48	0.9514
2340.38	0.954
2350.27	0.954
2360.16	0.954
2370.06	0.954
2379.95	0.954
2389.85	0.9535
2399.74	0.9525
2409.64	0.955
2419.53	0.955
2429.43	0.952
2439.32	0.9525
2449.21	0.948
2459.11	0.9545
2469	0.954
2478.9	0.9504
2488.79	0.9506
2498.69	0.946
2508.58	0.945
2518.48	0.949
2528.37	0.951
2538.26	0.949
2548.16	0.9473
2558.05	0.9473
2567.95	0.935
2577.84	0.9297
2587.74	0.9233
2597.63	0.9343
2607.53	0.939
2617.42	0.933
2627.32	0.9237
2637.21	0.9263
2647.1	0.9342
2657	0.938
2666.89	0.9388
2676.79	0.937
2686.68	0.938
2696.58	0.936
2706.47	0.939
2716.37	0.94
2726.26	0.938
2736.15	0.937
2746.05	0.9359
2755.94	0.934
2765.84	0.929
2775.73	0.929
2785.63	0.9281
2795.52	0.9269
2805.42	0.9261
2815.31	0.9279
2825.21	0.921
2835.1	0.9149
2844.99	0.9069
2854.89	0.893
2864.78	0.892
2874.68	0.894
2884.57	0.896
2894.47	0.894
2904.36	0.8871
2914.26	0.8684
2924.15	0.8472
2934.04	0.8528
2943.94	0.8677
2953.83	0.877
2963.73	0.878
2973.62	0.8751
2983.52	0.8722
2993.41	0.8702
3003.31	0.852
3013.2	0.8398
3023.09	0.832
3032.99	0.7906
3042.88	0.751
3052.78	0.7477
3062.67	0.7578
3072.57	0.7422
3082.46	0.7535
3092.36	0.76
3102.25	0.742
3112.15	0.6925
3122.04	0.6784
3131.93	0.7227
3141.83	0.7493
3151.72	0.7773
3161.62	0.789
3171.51	0.7856
3181.41	0.7875
3191.3	0.7838
3201.2	0.7892
3211.09	0.7956
3220.98	0.8076
3230.88	0.8104
3240.77	0.812
3250.67	0.8171
3260.56	0.8165
3270.46	0.813
3280.35	0.8095
3290.25	0.809
3300.14	0.807
3310.03	0.7975
3319.93	0.7906
3329.82	0.786
3339.72	0.7837
3349.61	0.7624
3359.51	0.7232
3369.4	0.7112
3379.3	0.6076
3389.19	0.4224
3399.09	0.5825
3408.98	0.7616
3418.87	0.8071
3428.77	0.829
3438.66	0.841
3448.56	0.8493
3458.45	0.8533
3468.35	0.859
3478.24	0.8613
3488.14	0.865
3498.03	0.866
3507.92	0.8662
3517.82	0.87
3527.71	0.8679
3537.61	0.8732
3547.5	0.8732
3557.4	0.878
3567.29	0.8812
3577.19	0.884
3587.08	0.8863
3596.97	0.8901
3606.87	0.8911
3616.76	0.895
3626.66	0.8979
3636.55	0.896
3646.45	0.898
3656.34	0.8991
3666.24	0.901
3676.13	0.905
3686.03	0.908
3695.92	0.902
3705.81	0.899
3715.71	0.902
3725.6	0.906
3735.5	0.901
3745.39	0.906
3755.29	0.903
3765.18	0.9
3775.08	0.9009
3784.97	0.9011
3794.86	0.901
3804.76	0.899
3814.65	0.9019
3824.55	0.9019
3834.44	0.8981
3844.34	0.9037
3854.23	0.899
3864.13	0.9002
3874.02	0.8972
3883.92	0.897
3893.81	0.896
3903.7	0.896
3913.6	0.895
3923.49	0.8942
3933.39	0.8933
3943.28	0.893
3953.18	0.893
3963.07	0.892
3972.97	0.891
3982.86	0.891
3992.75	0.89
