Infrared Spectrum: 2-Fluoro-5-(trifluoromethyl)benzophenone
Formula: C 14 H 8 F 4 O
CAS: 199292-40-5
State: gas
Origin: EPA-IR VAPOR PHASE LIBRARY
1/CM	ABSORBANCE
549.8	0.002194
559.445	0.002204
569.09	0.002244
578.734	0.004234
588.379	0.007494
598.024	0.020664
607.669	0.039304
617.313	0.011154
626.958	0.012714
636.603	0.026154
646.248	0.011444
655.893	0.007954
665.537	0.008374
675.182	0.007944
684.827	0.012914
694.472	0.017514
704.116	0.022504
713.761	0.010934
723.406	0.006494
733.051	0.006314
742.695	0.009144
752.34	0.007844
761.985	0.004844
771.63	0.003774
781.275	0.003104
790.919	0.004964
800.564	0.011174
810.209	0.005934
819.854	0.008984
829.498	0.026834
839.143	0.024474
848.788	0.014054
858.433	0.004514
868.078	0.003094
877.722	0.002314
887.367	0.003354
897.012	0.005004
906.657	0.012094
916.301	0.010534
925.946	0.004934
935.591	0.005544
945.236	0.010914
954.88	0.019914
964.525	0.010814
974.17	0.003524
983.815	0.001914
993.46	0.002174
1003.1	0.003654
1012.75	0.002074
1022.39	0.003294
1032.04	0.004424
1041.68	0.002924
1051.33	0.004614
1060.97	0.009754
1070.62	0.031864
1080.26	0.020894
1089.91	0.009184
1099.55	0.014144
1109.2	0.039864
1118.84	0.041894
1128.49	0.031554
1138.13	0.075284
1147.78	0.166954
1157.42	0.092864
1167.07	0.075344
1176.71	0.127054
1186.36	0.060054
1196	0.019884
1205.64	0.015264
1215.29	0.019404
1224.93	0.041494
1234.58	0.080584
1244.22	0.088314
1253.87	0.112864
1263.51	0.114344
1273.16	0.135774
1282.8	0.052074
1292.45	0.037134
1302.09	0.032284
1311.74	0.042064
1321.38	0.061604
1331.03	0.136974
1340.67	0.071434
1350.32	0.019824
1359.96	0.013884
1369.61	0.008944
1379.25	0.007024
1388.9	0.005514
1398.54	0.005034
1408.18	0.005304
1417.83	0.005634
1427.47	0.004884
1437.12	0.005344
1446.76	0.012224
1456.41	0.009224
1466.05	0.004754
1475.7	0.005604
1485.34	0.009974
1494.99	0.020254
1504.63	0.016574
1514.28	0.006254
1523.92	0.003704
1533.57	0.003524
1543.21	0.003944
1552.86	0.004014
1562.5	0.005004
1572.15	0.007244
1581.79	0.011724
1591.44	0.018684
1601.08	0.025464
1610.73	0.029604
1620.37	0.029434
1630.01	0.014704
1639.66	0.009294
1649.3	0.008224
1658.95	0.010624
1668.59	0.015354
1678.24	0.032514
1687.88	0.063074
1697.53	0.055854
1707.17	0.027824
1716.82	0.011974
1726.46	0.006744
1736.11	0.004354
1745.75	0.003534
1755.4	0.003584
1765.04	0.003214
1774.69	0.003194
1784.33	0.002764
1793.98	0.002704
1803.62	0.003204
1813.27	0.003494
1822.91	0.002694
1832.55	0.002024
1842.2	0.001864
1851.84	0.001844
1861.49	0.002084
1871.13	0.001904
1880.78	0.001934
1890.42	0.002714
1900.07	0.003924
1909.71	0.003594
1919.36	0.002404
1929	0.0017647
1938.65	0.001804
1948.29	0.002054
1957.94	0.002604
1967.58	0.002284
1977.23	0.001884
1986.87	0.0013761
1996.52	0.0013189
2006.16	0.0012771
2015.81	0.0011756
2025.45	0.0013891
2035.1	0.0010787
2044.74	0.0011587
2054.38	0.0011646
2064.03	0.0013333
2073.67	0.0013196
2083.32	0.0014939
2092.96	0.0015461
2102.61	0.0013914
2112.25	0.0012891
2121.9	0.0011166
2131.54	0.0011222
2141.19	0.0011998
2150.83	0.0012379
2160.48	0.0012025
2170.12	0.0012018
2179.77	0.0012989
2189.41	0.0011818
2199.06	0.0012844
2208.7	0.0014745
2218.35	0.001551
2227.99	0.0014532
2237.64	0.0013446
2247.28	0.0016505
2256.92	0.00119
2266.57	0.0015981
2276.21	0.0016658
2285.86	0.001894
2295.5	0.0017137
2305.15	0.0015846
2314.79	0.0017232
2324.44	0.0016294
2334.08	0.0016221
2343.73	0.002064
2353.37	0.0017269
2363.02	0.001239
2372.66	0.0010152
2382.31	0.0011162
2391.95	0.0017427
2401.6	0.0015412
2411.24	0.0013773
2420.89	0.0014874
2430.53	0.0014659
2440.18	0.0013132
2449.82	0.0015714
2459.47	0.0016268
2469.11	0.0015161
2478.75	0.0016402
2488.4	0.0015614
2498.04	0.0016771
2507.69	0.0014276
2517.33	0.0013017
2526.98	0.0011316
2536.62	0.0011787
2546.27	0.001206
2555.91	0.001162
2565.56	0.0012687
2575.2	0.0013003
2584.85	0.0015957
2594.49	0.0016801
2604.14	0.0014135
2613.78	0.000995
2623.43	0.0016593
2633.07	0.0013237
2642.72	0.0015058
2652.36	0.0011113
2662.01	0.0012837
2671.65	0.001096
2681.29	0.0011284
2690.94	0.0012035
2700.58	0.0012093
2710.23	0.0012211
2719.87	0.0010938
2729.52	0.0015193
2739.16	0.0013855
2748.81	0.001431
2758.45	0.0011821
2768.1	0.0013135
2777.74	0.000985
2787.39	0.001044
2797.03	0.001016
2806.68	0.0009731
2816.32	0.0010908
2825.97	0.0015546
2835.61	0.000661
2845.26	0.0015875
2854.9	0.0012739
2864.55	0.0011565
2874.19	0.001329
2883.84	0.0015077
2893.48	0.0015941
2903.12	0.0012526
2912.77	0.001447
2922.41	0.0014467
2932.06	0.001236
2941.7	0.0009471
2951.35	0.001202
2960.99	0.0009147
2970.64	0.0012681
2980.28	0.0010879
2989.93	0.0012434
2999.57	0.0017425
3009.22	0.001761
3018.86	0.002844
3028.51	0.003964
3038.15	0.005164
3047.8	0.004584
3057.44	0.005264
3067.09	0.009684
3076.73	0.012014
3086.38	0.009064
3096.02	0.006724
3105.67	0.003894
3115.31	0.001964
3124.95	0.001984
3134.6	0.002104
3144.24	0.000966
3153.89	0.0013671
3163.53	0.0011749
3173.18	0.0012478
3182.82	0.000757
3192.47	0.0014372
3202.11	0.00082736
3211.76	0.001438
3221.4	0.0012137
3231.05	0.0011431
3240.69	0.0010751
3250.34	0.000679
3259.98	0.0009976
3269.63	0.00087926
3279.27	0.0009296
3288.92	0.0014463
3298.56	0.0009365
3308.21	0.000784358
3317.85	0.0010034
3327.49	0.0007528
3337.14	0.0012677
3346.78	0.0011642
3356.43	0.0014176
3366.07	0.002184
3375.72	0.001864
3385.36	0.0016577
3395.01	0.0012021
3404.65	0.00080734
3414.3	0.0007148
3423.94	0.00087354
3433.59	0.0010664
3443.23	0.0009296
3452.88	0.00083056
3462.52	0.0014527
3472.17	0.0009278
3481.81	0.0012858
3491.46	0.0011506
3501.1	0.0011526
3510.75	0.0011255
3520.39	0.000998
3530.04	0.000471
3539.68	0.0006973
3549.32	0.0006859
3558.97	0.0009119
3568.61	0.000578
3578.26	0.00086851
3587.9	0.000767
3597.55	0.0007264
3607.19	0.0012151
3616.84	0.000793458
3626.48	0.0008971
3636.13	0.0009833
3645.77	0.0011826
3655.42	0.000653
3665.06	0.0010687
3674.71	0.0008847
3684.35	0.0011889
3694	0.0010837
3703.64	0.00086073
3713.29	0.0010638
3722.93	0.0009565
3732.58	0.0010535
3742.22	0.000519
3751.86	0.0011847
3761.51	0.000232
3771.15	0.000426
3780.8	0.00085803
3790.44	0.0009796
3800.09	0.000653
3809.73	0.000483
3819.38	0.000229
3829.02	0.0007278
3838.67	0.000789264
3848.31	0.0011666
3857.96	0.0010596
3867.6	0.0009151
3877.25	0.0006936
3886.89	0.00077724
3896.54	0.0007133
3906.18	0.0010552
3915.83	0.00061
3925.47	0.000435
3935.12	0.00068
3944.76	0.001022
3954.41	0.0015298
3964.05	0.00015
3973.69	0.00081293
3983.34	0.0009432
3992.98	0.0010441
