Infrared Spectrum: 2-Fluoro-5-(trifluoromethyl)benzylamine
Formula: C 8 H 7 F 4 N
CAS: 199296-61-2
State: gas
Origin: EPA-IR VAPOR PHASE LIBRARY
1/CM	ABSORBANCE
549.8	0.00527
559.445	0.00391
569.09	0.0065
578.734	0.00501
588.379	0.00589
598.024	0.00623
607.669	0.00993
617.313	0.02413
626.958	0.0174
636.603	0.00713
646.248	0.00565
655.893	0.00646
665.537	0.00732
675.182	0.00701
684.827	0.00704
694.472	0.00774
704.116	0.00939
713.761	0.01158
723.406	0.01434
733.051	0.01907
742.695	0.01637
752.34	0.01479
761.985	0.01497
771.63	0.01338
781.275	0.01243
790.919	0.01392
800.564	0.01454
810.209	0.01784
819.854	0.02501
829.498	0.02649
839.143	0.01403
848.788	0.00693
858.433	0.0052
868.078	0.00524
877.722	0.00671
887.367	0.0091
897.012	0.01133
906.657	0.01083
916.301	0.0082
925.946	0.00498
935.591	0.00345
945.236	0.00256
954.88	0.00287
964.525	0.00292
974.17	0.00245
983.815	0.00264
993.46	0.00217
1003.1	0.00264
1012.75	0.00292
1022.39	0.00349
1032.04	0.00485
1041.68	0.00572
1051.33	0.00728
1060.97	0.01284
1070.62	0.03008
1080.26	0.0279
1089.91	0.01746
1099.55	0.02033
1109.2	0.03398
1118.84	0.03689
1128.49	0.05634
1138.13	0.11633
1147.78	0.15849
1157.42	0.10598
1167.07	0.14935
1176.71	0.1446
1186.36	0.05868
1196	0.02297
1205.64	0.01751
1215.29	0.01454
1224.93	0.01755
1234.58	0.02275
1244.22	0.02433
1253.87	0.02972
1263.51	0.0375
1273.16	0.03464
1282.8	0.02106
1292.45	0.01473
1302.09	0.01971
1311.74	0.0415
1321.38	0.13514
1331.03	0.20568
1340.67	0.07127
1350.32	0.02113
1359.96	0.01557
1369.61	0.01211
1379.25	0.00957
1388.9	0.00835
1398.54	0.00721
1408.18	0.00664
1417.83	0.00815
1427.47	0.0077
1437.12	0.00485
1446.76	0.00362
1456.41	0.00385
1466.05	0.00454
1475.7	0.00492
1485.34	0.00683
1494.99	0.01623
1504.63	0.02587
1514.28	0.01331
1523.92	0.00412
1533.57	0.00321
1543.21	0.00331
1552.86	0.00304
1562.5	0.00327
1572.15	0.00464
1581.79	0.00675
1591.44	0.01191
1601.08	0.01726
1610.73	0.01727
1620.37	0.01641
1630.01	0.01307
1639.66	0.00937
1649.3	0.00646
1658.95	0.00487
1668.59	0.00348
1678.24	0.00254
1687.88	0.0024
1697.53	0.00231
1707.17	0.00206
1716.82	0.0019865
1726.46	0.002009
1736.11	0.00213
1745.75	0.00211
1755.4	0.00247
1765.04	0.00285
1774.69	0.00281
1784.33	0.00233
1793.98	0.00226
1803.62	0.00221
1813.27	0.0019094
1822.91	0.0016388
1832.55	0.0013768
1842.2	0.0015935
1851.84	0.0015975
1861.49	0.0016686
1871.13	0.0016528
1880.78	0.00236
1890.42	0.00269
1900.07	0.00209
1909.71	0.0016703
1919.36	0.001429
1929	0.0011913
1938.65	0.0011664
1948.29	0.0009659
1957.94	0.0009273
1967.58	0.00105747
1977.23	0.0011365
1986.87	0.0011765
1996.52	0.0014661
2006.16	0.0012687
2015.81	0.0012143
2025.45	0.00110442
2035.1	0.0010878
2044.74	0.00107113
2054.38	0.0014398
2064.03	0.0013577
2073.67	0.0013736
2083.32	0.00108146
2092.96	0.0009929
2102.61	0.000734
2112.25	0.000884
2121.9	0.00105061
2131.54	0.000899
2141.19	0.000916
2150.83	0.000666
2160.48	0.000838
2170.12	0.000894
2179.77	0.000809
2189.41	0.000837
2199.06	0.00104313
2208.7	0.0014008
2218.35	0.0011973
2227.99	0.0013222
2237.64	0.0012151
2247.28	0.0013494
2256.92	0.0012511
2266.57	0.0014763
2276.21	0.0016506
2285.86	0.0011338
2295.5	0.00106385
2305.15	0.000812
2314.79	0.0011378
2324.44	0.00105634
2334.08	0.0009911
2343.73	0.0013565
2353.37	0.0014788
2363.02	0.000808
2372.66	0.00110321
2382.31	0.0009384
2391.95	0.00087
2401.6	0.00108268
2411.24	0.0011312
2420.89	0.000816
2430.53	0.000745
2440.18	0.000829
2449.82	0.000834
2459.47	0.00110182
2469.11	0.00102923
2478.75	0.0011844
2488.4	0.00079
2498.04	0.000757
2507.69	0.000696
2517.33	0.000794
2526.98	0.000668
2536.62	0.000729
2546.27	0.000697
2555.91	0.000735
2565.56	0.00101212
2575.2	0.000561
2584.85	0.000849
2594.49	0.00106304
2604.14	0.000816
2613.78	0.0009632
2623.43	0.00084
2633.07	0.0008
2642.72	0.0012946
2652.36	0.00103201
2662.01	0.000762
2671.65	0.0009414
2681.29	0.0011399
2690.94	0.0009832
2700.58	0.000539
2710.23	0.000735
2719.87	0.0011818
2729.52	0.0009237
2739.16	0.00092
2748.81	0.0012373
2758.45	0.0012365
2768.1	0.000723
2777.74	0.00108807
2787.39	0.0014657
2797.03	0.00109066
2806.68	0.0012937
2816.32	0.0015818
2825.97	0.0017548
2835.61	0.0018203
2845.26	0.00275
2854.9	0.00336
2864.55	0.00458
2874.19	0.00526
2883.84	0.00546
2893.48	0.00502
2903.12	0.00466
2912.77	0.00436
2922.41	0.00553
2932.06	0.00594
2941.7	0.00605
2951.35	0.00546
2960.99	0.00529
2970.64	0.00362
2980.28	0.00279
2989.93	0.0019496
2999.57	0.00167
3009.22	0.0015751
3018.86	0.00102948
3028.51	0.000698
3038.15	0.0009902
3047.8	0.000723
3057.44	0.0009712
3067.09	0.0011832
3076.73	0.0013254
3086.38	0.001703
3096.02	0.0017963
3105.67	0.000385
3115.31	0.0009952
3124.95	0.000811
3134.6	0.0009328
3144.24	0.000482
3153.89	0.0009209
3163.53	0.000321
3173.18	0.000596
3182.82	0.00111873
3192.47	0.00106057
3202.11	0.0010013
3211.76	0.000915
3221.4	0.001309
3231.05	0.000638
3240.69	0.0014275
3250.34	0.000919
3259.98	0.000403
3269.63	0.0016048
3279.27	0.000761
3288.92	0.000672
3298.56	0.00102307
3308.21	0.000242
3317.85	0.000809
3327.49	0.000625
3337.14	0.0011213
3346.78	0.000857
3356.43	0.000776
3366.07	0.000517
3375.72	0.0014196
3385.36	0.0011749
3395.01	0.0009296
3404.65	0.0013923
3414.3	0.0013554
3423.94	0.0018712
3433.59	0.0009621
3443.23	0.0013113
3452.88	0.00108062
3462.52	0.0015638
3472.17	0.00108587
3481.81	0.0011636
3491.46	0.0016331
3501.1	0.001469
3510.75	0.000881
3520.39	0.00101656
3530.04	0.0014153
3539.68	0.000611
3549.32	0.0013351
3558.97	0.000744
3568.61	0.000837
3578.26	0.00102107
3587.9	0.00101108
3597.55	0.000632
3607.19	0.00101892
3616.84	0.000736
3626.48	0.000633
3636.13	0.000878
3645.77	0.0009538
3655.42	0.0013749
3665.06	0.000592
3674.71	0.00102311
3684.35	0.00109612
3694	0.000676
3703.64	0.0011248
3713.29	0.000651
3722.93	0.0012061
3732.58	0.00107378
3742.22	0.00101674
3751.86	0.00105154
3761.51	0.000752
3771.15	0.0009428
3780.8	0.000697
3790.44	0.000645
3800.09	0.0013505
3809.73	0.000787
3819.38	0.000885
3829.02	0.000268
3838.67	0.00084
3848.31	0.0009974
3857.96	0.000393
3867.6	0.000187
3877.25	0.000556
3886.89	0.000821
3896.54	0.000805
3906.18	0.000749
3915.83	0.0012413
3925.47	0.000862
3935.12	0.000273
3944.76	0.000681
3954.41	0.0014501
3964.05	0.000315
3973.69	0.0013489
3983.34	0.000879
3992.98	0.000876
