Infrared Spectrum: 2-Pentane isothiocyanate
Formula: C 6 H 11 N S
CAS: 201224-94-4
State: gas
Origin: EPA-IR VAPOR PHASE LIBRARY
1/CM	ABSORBANCE
549.8	0.017232
559.445	0.014282
569.09	0.011262
578.734	0.008202
588.379	0.005602
598.024	0.004462
607.669	0.003902
617.313	0.003502
626.958	0.002942
636.603	0.002662
646.248	0.002892
655.893	0.002812
665.537	0.002582
675.182	0.002502
684.827	0.002992
694.472	0.003232
704.116	0.002592
713.761	0.002092
723.406	0.001832
733.051	0.002742
742.695	0.004772
752.34	0.006752
761.985	0.005812
771.63	0.003102
781.275	0.002082
790.919	0.0012464
800.564	0.001442
810.209	0.0012561
819.854	0.0011856
829.498	0.001632
839.143	0.002152
848.788	0.002712
858.433	0.002892
868.078	0.003802
877.722	0.004032
887.367	0.003492
897.012	0.003662
906.657	0.004862
916.301	0.004792
925.946	0.003582
935.591	0.002642
945.236	0.002292
954.88	0.003302
964.525	0.006732
974.17	0.011472
983.815	0.010652
993.46	0.006412
1003.1	0.004852
1012.75	0.005322
1022.39	0.005012
1032.04	0.004182
1041.68	0.003892
1051.33	0.004152
1060.97	0.003462
1070.62	0.003532
1080.26	0.003332
1089.91	0.004022
1099.55	0.006072
1109.2	0.007922
1118.84	0.011032
1128.49	0.013872
1138.13	0.015072
1147.78	0.017722
1157.42	0.015312
1167.07	0.009242
1176.71	0.005182
1186.36	0.004012
1196	0.003122
1205.64	0.002482
1215.29	0.002832
1224.93	0.004002
1234.58	0.005282
1244.22	0.005152
1253.87	0.004562
1263.51	0.006122
1273.16	0.007292
1282.8	0.008452
1292.45	0.010012
1302.09	0.014242
1311.74	0.023662
1321.38	0.042262
1331.03	0.065962
1340.67	0.064862
1350.32	0.042642
1359.96	0.024212
1369.61	0.017882
1379.25	0.018002
1388.9	0.017092
1398.54	0.010772
1408.18	0.006152
1417.83	0.005002
1427.47	0.005752
1437.12	0.008052
1446.76	0.011602
1456.41	0.014542
1466.05	0.013972
1475.7	0.010022
1485.34	0.005752
1494.99	0.003582
1504.63	0.002792
1514.28	0.002382
1523.92	0.001912
1533.57	0.001712
1543.21	0.001492
1552.86	0.001432
1562.5	0.001422
1572.15	0.001422
1581.79	0.001442
1591.44	0.001442
1601.08	0.0013173
1610.73	0.0013548
1620.37	0.0013641
1630.01	0.0012853
1639.66	0.0013094
1649.3	0.0012517
1658.95	0.0013119
1668.59	0.0013707
1678.24	0.0013198
1687.88	0.0013216
1697.53	0.0013035
1707.17	0.0013414
1716.82	0.0013027
1726.46	0.0013514
1736.11	0.001412
1745.75	0.0013272
1755.4	0.0012777
1765.04	0.001375
1774.69	0.001412
1784.33	0.001542
1793.98	0.001622
1803.62	0.001772
1813.27	0.001832
1822.91	0.001872
1832.55	0.002012
1842.2	0.002262
1851.84	0.002562
1861.49	0.003172
1871.13	0.003922
1880.78	0.004992
1890.42	0.006472
1900.07	0.008332
1909.71	0.011052
1919.36	0.014632
1929	0.019252
1938.65	0.024972
1948.29	0.032022
1957.94	0.040662
1967.58	0.052432
1977.23	0.068762
1986.87	0.090412
1996.52	0.117902
2006.16	0.152032
2015.81	0.192542
2025.45	0.240322
2035.1	0.293352
2044.74	0.338422
2054.38	0.358572
2064.03	0.346462
2073.67	0.305692
2083.32	0.249262
2092.96	0.194362
2102.61	0.151502
2112.25	0.124312
2121.9	0.109762
2131.54	0.101072
2141.19	0.092152
2150.83	0.081052
2160.48	0.069302
2170.12	0.057882
2179.77	0.046822
2189.41	0.038152
2199.06	0.030832
2208.7	0.024442
2218.35	0.018582
2227.99	0.013842
2237.64	0.010732
2247.28	0.008682
2256.92	0.007332
2266.57	0.006342
2276.21	0.005382
2285.86	0.004892
2295.5	0.004132
2305.15	0.003362
2314.79	0.002732
2324.44	0.002322
2334.08	0.001982
2343.73	0.001832
2353.37	0.001722
2363.02	0.001682
2372.66	0.001712
2382.31	0.001652
2391.95	0.001802
2401.6	0.001742
2411.24	0.001732
2420.89	0.001822
2430.53	0.001752
2440.18	0.001582
2449.82	0.001542
2459.47	0.001542
2469.11	0.001582
2478.75	0.001752
2488.4	0.001662
2498.04	0.001702
2507.69	0.001772
2517.33	0.001792
2526.98	0.001822
2536.62	0.001942
2546.27	0.002042
2555.91	0.002122
2565.56	0.002402
2575.2	0.002602
2584.85	0.002562
2594.49	0.002712
2604.14	0.002562
2613.78	0.002402
2623.43	0.002322
2633.07	0.002342
2642.72	0.002452
2652.36	0.002652
2662.01	0.002922
2671.65	0.003402
2681.29	0.003622
2690.94	0.004282
2700.58	0.005022
2710.23	0.005662
2719.87	0.005942
2729.52	0.006072
2739.16	0.005792
2748.81	0.005372
2758.45	0.004582
2768.1	0.004052
2777.74	0.003612
2787.39	0.003702
2797.03	0.003732
2806.68	0.004002
2816.32	0.004442
2825.97	0.004972
2835.61	0.005942
2845.26	0.008512
2854.9	0.012402
2864.55	0.017012
2874.19	0.024482
2883.84	0.032042
2893.48	0.031622
2903.12	0.030522
2912.77	0.039502
2922.41	0.051772
2932.06	0.066942
2941.7	0.079582
2951.35	0.071192
2960.99	0.064392
2970.64	0.078342
2980.28	0.081682
2989.93	0.064162
2999.57	0.033072
3009.22	0.013572
3018.86	0.008712
3028.51	0.006342
3038.15	0.005142
3047.8	0.004292
3057.44	0.003652
3067.09	0.003102
3076.73	0.002852
3086.38	0.002742
3096.02	0.002512
3105.67	0.002322
3115.31	0.002012
3124.95	0.001862
3134.6	0.001602
3144.24	0.001592
3153.89	0.001512
3163.53	0.001251
3173.18	0.0013225
3182.82	0.0011748
3192.47	0.0012452
3202.11	0.0010063
3211.76	0.0010132
3221.4	0.0010744
3231.05	0.0008266
3240.69	0.0005573
3250.34	0.0005837
3259.98	0.000281
3269.63	0.00043029
3279.27	0.000401238
3288.92	0.000372
3298.56	0.0003234
3308.21	0.0003275
3317.85	0.0003441
3327.49	0.00043282
3337.14	0.00041459
3346.78	0.00039761
3356.43	0.00049803
3366.07	0.00021
3375.72	0.0003825
3385.36	0.000263
3395.01	0.0003173
3404.65	0.00045319
3414.3	0.000356
3423.94	0.000228
3433.59	0.000184
3443.23	0.000402644
3452.88	0.00042071
3462.52	0.0003177
3472.17	0.000297
3481.81	0.000184
3491.46	9e-05
3501.1	0.000204
3510.75	0.000146
3520.39	0.000194
3530.04	0.00013
3539.68	0.00014
3549.32	0.000129
3558.97	0.000167
3568.61	0.000173
3578.26	0.00017
3587.9	4.9e-05
3597.55	0.000183
3607.19	0.000247
3616.84	0.000232
3626.48	0.000273
3636.13	0.000181
3645.77	0.00029
3655.42	0.000277
3665.06	0.000297
3674.71	0.000279
3684.35	0.0003118
3694	0.0003906
3703.64	0.000226
3713.29	0.0005126
3722.93	0.000192
3732.58	0.000269
3742.22	0.00039782
3751.86	0.0003789
3761.51	0.00045308
3771.15	0.0005789
3780.8	0.00046052
3790.44	0.0005258
3800.09	0.00046527
3809.73	0.0005148
3819.38	0.00041818
3829.02	0.0005076
3838.67	0.0003758
3848.31	0.0005093
3857.96	0.0005274
3867.6	0.0005898
3877.25	0.0006373
3886.89	0.0009158
3896.54	0.0007275
3906.18	0.0009913
3915.83	0.0009505
3925.47	0.0008378
3935.12	0.0010158
3944.76	0.0010779
3954.41	0.0012214
3964.05	0.0012368
3973.69	0.0012829
3983.34	0.001702
3992.98	0.001712
