Infrared Spectrum: 3-Methyl-2-butylisothiocyanate
Formula: C 6 H 11 N S
CAS: 201224-92-2
State: gas
Origin: EPA-IR VAPOR PHASE LIBRARY
1/CM	ABSORBANCE
549.8	0.011805
559.445	0.010575
569.09	0.010125
578.734	0.009105
588.379	0.008075
598.024	0.006445
607.669	0.005235
617.313	0.004355
626.958	0.004095
636.603	0.004115
646.248	0.004375
655.893	0.005175
665.537	0.006665
675.182	0.007965
684.827	0.008705
694.472	0.007995
704.116	0.006405
713.761	0.004145
723.406	0.002435
733.051	0.001905
742.695	0.002205
752.34	0.003045
761.985	0.006555
771.63	0.009935
781.275	0.008325
790.919	0.005355
800.564	0.003445
810.209	0.001775
819.854	0.001215
829.498	0.0008355
839.143	0.0007313
848.788	0.0006233
858.433	0.000637
868.078	0.0007936
877.722	0.001465
887.367	0.004125
897.012	0.007865
906.657	0.007705
916.301	0.004725
925.946	0.003985
935.591	0.004115
945.236	0.005145
954.88	0.008165
964.525	0.011535
974.17	0.011615
983.815	0.010595
993.46	0.010285
1003.1	0.009755
1012.75	0.008455
1022.39	0.008635
1032.04	0.008315
1041.68	0.007905
1051.33	0.007625
1060.97	0.007825
1070.62	0.010335
1080.26	0.012235
1089.91	0.012755
1099.55	0.012315
1109.2	0.014575
1118.84	0.015285
1128.49	0.011895
1138.13	0.009935
1147.78	0.011805
1157.42	0.010655
1167.07	0.006545
1176.71	0.003895
1186.36	0.003805
1196	0.002905
1205.64	0.002945
1215.29	0.003175
1224.93	0.003115
1234.58	0.003795
1244.22	0.004325
1253.87	0.005505
1263.51	0.008895
1273.16	0.013975
1282.8	0.017575
1292.45	0.021015
1302.09	0.030145
1311.74	0.037165
1321.38	0.040265
1331.03	0.046265
1340.67	0.061415
1350.32	0.057805
1359.96	0.034365
1369.61	0.022085
1379.25	0.027635
1388.9	0.032415
1398.54	0.023805
1408.18	0.011085
1417.83	0.006905
1427.47	0.006835
1437.12	0.008815
1446.76	0.013215
1456.41	0.018795
1466.05	0.020735
1475.7	0.017045
1485.34	0.010295
1494.99	0.005615
1504.63	0.003625
1514.28	0.002745
1523.92	0.002245
1533.57	0.001965
1543.21	0.001885
1552.86	0.001735
1562.5	0.001725
1572.15	0.001625
1581.79	0.001665
1591.44	0.001585
1601.08	0.001645
1610.73	0.001665
1620.37	0.001665
1630.01	0.001625
1639.66	0.001695
1649.3	0.001745
1658.95	0.001775
1668.59	0.001885
1678.24	0.001905
1687.88	0.001845
1697.53	0.001895
1707.17	0.002215
1716.82	0.002925
1726.46	0.002905
1736.11	0.002115
1745.75	0.001505
1755.4	0.001215
1765.04	0.0011071
1774.69	0.0008671
1784.33	0.0007475
1793.98	0.0008198
1803.62	0.0009932
1813.27	0.001155
1822.91	0.001365
1832.55	0.001635
1842.2	0.002055
1851.84	0.002615
1861.49	0.003165
1871.13	0.003985
1880.78	0.004975
1890.42	0.006425
1900.07	0.008525
1909.71	0.011595
1919.36	0.015725
1929	0.021095
1938.65	0.027875
1948.29	0.036315
1957.94	0.046435
1967.58	0.059205
1977.23	0.076895
1986.87	0.100265
1996.52	0.130505
2006.16	0.171545
2015.81	0.223395
2025.45	0.281085
2035.1	0.344125
2044.74	0.407275
2054.38	0.447535
2064.03	0.448885
2073.67	0.415345
2083.32	0.350075
2092.96	0.273765
2102.61	0.222055
2112.25	0.191305
2121.9	0.167045
2131.54	0.148025
2141.19	0.130485
2150.83	0.110115
2160.48	0.091325
2170.12	0.076485
2179.77	0.064245
2189.41	0.052595
2199.06	0.041845
2208.7	0.032415
2218.35	0.024195
2227.99	0.018535
2237.64	0.014925
2247.28	0.012385
2256.92	0.010115
2266.57	0.008325
2276.21	0.006975
2285.86	0.005665
2295.5	0.004625
2305.15	0.003755
2314.79	0.003165
2324.44	0.002795
2334.08	0.002505
2343.73	0.002195
2353.37	0.002055
2363.02	0.001915
2372.66	0.001815
2382.31	0.001845
2391.95	0.001835
2401.6	0.001875
2411.24	0.001855
2420.89	0.001965
2430.53	0.002035
2440.18	0.002005
2449.82	0.001915
2459.47	0.001955
2469.11	0.001825
2478.75	0.001865
2488.4	0.001865
2498.04	0.001965
2507.69	0.001925
2517.33	0.001915
2526.98	0.002065
2536.62	0.002235
2546.27	0.002495
2555.91	0.002755
2565.56	0.003125
2575.2	0.003585
2584.85	0.003725
2594.49	0.004025
2604.14	0.004165
2613.78	0.003925
2623.43	0.003835
2633.07	0.003775
2642.72	0.003755
2652.36	0.003825
2662.01	0.003715
2671.65	0.003465
2681.29	0.003255
2690.94	0.002945
2700.58	0.003115
2710.23	0.003285
2719.87	0.003805
2729.52	0.004685
2739.16	0.005595
2748.81	0.006005
2758.45	0.005895
2768.1	0.005525
2777.74	0.005275
2787.39	0.004805
2797.03	0.004495
2806.68	0.004445
2816.32	0.004625
2825.97	0.005125
2835.61	0.005655
2845.26	0.006265
2854.9	0.007715
2864.55	0.011765
2874.19	0.021855
2883.84	0.035265
2893.48	0.046785
2903.12	0.057315
2912.77	0.061025
2922.41	0.052955
2932.06	0.051005
2941.7	0.055745
2951.35	0.057145
2960.99	0.070835
2970.64	0.110265
2980.28	0.123305
2989.93	0.094425
2999.57	0.052435
3009.22	0.021855
3018.86	0.010145
3028.51	0.006605
3038.15	0.004865
3047.8	0.003985
3057.44	0.003645
3067.09	0.003705
3076.73	0.003375
3086.38	0.003165
3096.02	0.002855
3105.67	0.002685
3115.31	0.002385
3124.95	0.002385
3134.6	0.002295
3144.24	0.001995
3153.89	0.002085
3163.53	0.002285
3173.18	0.002175
3182.82	0.002295
3192.47	0.002025
3202.11	0.001855
3211.76	0.001575
3221.4	0.0010178
3231.05	0.0008775
3240.69	0.0006925
3250.34	0.0004995
3259.98	0.0004958
3269.63	0.0003026
3279.27	0.0003742
3288.92	0.0004071
3298.56	0.0002639
3308.21	0.0003732
3317.85	0.000136065
3327.49	0.00020085
3337.14	0.00021515
3346.78	0.00020627
3356.43	0.000364
3366.07	0.0003896
3375.72	0.0003126
3385.36	0.000313
3395.01	0.0004486
3404.65	0.0002542
3414.3	0.0002717
3423.94	0.00017154
3433.59	0.0003021
3443.23	0.0004126
3452.88	0.00022779
3462.52	0.0003323
3472.17	0.0004184
3481.81	0.000268
3491.46	0.00018995
3501.1	0.0002658
3510.75	0.0002485
3520.39	5.99e-05
3530.04	0.000446
3539.68	0.000137325
3549.32	0.0002417
3558.97	0.00012914
3568.61	0.00015768
3578.26	0.00019181
3587.9	0.0001171
3597.55	7.44e-05
3607.19	0.0002532
3616.84	0.0001111
3626.48	0.0001674
3636.13	0.00021949
3645.77	3e-05
3655.42	0.00016042
3665.06	5.75e-05
3674.71	0.00023402
3684.35	0.0003258
3694	0.00016313
3703.64	0.0002098
3713.29	0.00015838
3722.93	0.0002735
3732.58	0.0003696
3742.22	0.0003351
3751.86	9.42e-05
3761.51	0.00021709
3771.15	0.0003272
3780.8	0.0002729
3790.44	0.0002251
3800.09	0.000346
3809.73	0.0003567
3819.38	0.0005154
3829.02	0.0005848
3838.67	0.0006542
3848.31	0.0005845
3857.96	0.0007132
3867.6	0.000631
3877.25	0.000841
3886.89	0.0008645
3896.54	0.0009638
3906.18	0.0010094
3915.83	0.0010583
3925.47	0.000994
3935.12	0.001145
3944.76	0.001195
3954.41	0.001245
3964.05	0.001495
3973.69	0.001445
3983.34	0.001525
3992.98	0.001695
