Infrared Spectrum: 2-Bromo-6-chloro-4-fluoroaniline
Formula: C 6 H 4 Br Cl F N
CAS: 201849-14-1
State: gas
Origin: EPA-IR VAPOR PHASE LIBRARY
1/CM	ABSORBANCE
549.8	0.008808
559.445	0.010288
569.09	0.015058
578.734	0.014038
588.379	0.009728
598.024	0.009628
607.669	0.009958
617.313	0.011838
626.958	0.013778
636.603	0.016918
646.248	0.019548
655.893	0.021288
665.537	0.022098
675.182	0.023518
684.827	0.025858
694.472	0.033038
704.116	0.040818
713.761	0.036338
723.406	0.034968
733.051	0.033268
742.695	0.037688
752.34	0.069658
761.985	0.112468
771.63	0.104448
781.275	0.078548
790.919	0.054128
800.564	0.028998
810.209	0.010398
819.854	0.008428
829.498	0.009128
839.143	0.016548
848.788	0.053528
858.433	0.092018
868.078	0.032678
877.722	0.008338
887.367	0.006708
897.012	0.008458
906.657	0.010478
916.301	0.021798
925.946	0.085168
935.591	0.118538
945.236	0.047108
954.88	0.016298
964.525	0.010288
974.17	0.007728
983.815	0.006898
993.46	0.006908
1003.1	0.007218
1012.75	0.007788
1022.39	0.008938
1032.04	0.012138
1041.68	0.019088
1051.33	0.030898
1060.97	0.030428
1070.62	0.024378
1080.26	0.047628
1089.91	0.067048
1099.55	0.042248
1109.2	0.018198
1118.84	0.008928
1128.49	0.006218
1138.13	0.004528
1147.78	0.004788
1157.42	0.005428
1167.07	0.006238
1176.71	0.012458
1186.36	0.047088
1196	0.069038
1205.64	0.050908
1215.29	0.031908
1224.93	0.025118
1234.58	0.013278
1244.22	0.006238
1253.87	0.004588
1263.51	0.005408
1273.16	0.008298
1282.8	0.018848
1292.45	0.039338
1302.09	0.027478
1311.74	0.008638
1321.38	0.003858
1331.03	0.003778
1340.67	0.005478
1350.32	0.007258
1359.96	0.005888
1369.61	0.004698
1379.25	0.006218
1388.9	0.011128
1398.54	0.027278
1408.18	0.035418
1417.83	0.024748
1427.47	0.034908
1437.12	0.028578
1446.76	0.025938
1456.41	0.072218
1466.05	0.248188
1475.7	0.426388
1485.34	0.247268
1494.99	0.051578
1504.63	0.015818
1514.28	0.012098
1523.92	0.013908
1533.57	0.014468
1543.21	0.016298
1552.86	0.028938
1562.5	0.070978
1572.15	0.169298
1581.79	0.245038
1591.44	0.174258
1601.08	0.066688
1610.73	0.037908
1620.37	0.039608
1630.01	0.025308
1639.66	0.016648
1649.3	0.013368
1658.95	0.009538
1668.59	0.007518
1678.24	0.007248
1687.88	0.008828
1697.53	0.013648
1707.17	0.014988
1716.82	0.007878
1726.46	0.004068
1736.11	0.002948
1745.75	0.002558
1755.4	0.002718
1765.04	0.002608
1774.69	0.002388
1784.33	0.002248
1793.98	0.002198
1803.62	0.002278
1813.27	0.002268
1822.91	0.002178
1832.55	0.002038
1842.2	0.001968
1851.84	0.002018
1861.49	0.001938
1871.13	0.001858
1880.78	0.001798
1890.42	0.001608
1900.07	0.001828
1909.71	0.001888
1919.36	0.001918
1929	0.002098
1938.65	0.002108
1948.29	0.002158
1957.94	0.001878
1967.58	0.001788
1977.23	0.001918
1986.87	0.002078
1996.52	0.001868
2006.16	0.001558
2015.81	0.001608
2025.45	0.001418
2035.1	0.001738
2044.74	0.001958
2054.38	0.002088
2064.03	0.002168
2073.67	0.002128
2083.32	0.002378
2092.96	0.002198
2102.61	0.001858
2112.25	0.001468
2121.9	0.001848
2131.54	0.002148
2141.19	0.002248
2150.83	0.001728
2160.48	0.001458
2170.12	0.001598
2179.77	0.001368
2189.41	0.0011411
2199.06	0.001418
2208.7	0.001166
2218.35	0.0012157
2227.99	0.001498
2237.64	0.001958
2247.28	0.001598
2256.92	0.001398
2266.57	0.001498
2276.21	0.0012264
2285.86	0.001288
2295.5	0.0009884
2305.15	0.0010966
2314.79	0.0009815
2324.44	0.0010267
2334.08	0.0012381
2343.73	0.001478
2353.37	0.001308
2363.02	0.0011833
2372.66	0.001225
2382.31	0.001618
2391.95	0.002258
2401.6	0.002748
2411.24	0.002388
2420.89	0.001538
2430.53	0.0009545
2440.18	0.0007499
2449.82	0.0008072
2459.47	0.000741
2469.11	0.0011812
2478.75	0.001898
2488.4	0.002468
2498.04	0.002478
2507.69	0.002248
2517.33	0.001838
2526.98	0.001418
2536.62	0.0009394
2546.27	0.0007068
2555.91	0.0007293
2565.56	0.0007465
2575.2	0.0010022
2584.85	0.001428
2594.49	0.001668
2604.14	0.001288
2613.78	0.0011365
2623.43	0.0009973
2633.07	0.0009356
2642.72	0.0007991
2652.36	0.0007774
2662.01	0.00088
2671.65	0.0008936
2681.29	0.0007377
2690.94	0.0008423
2700.58	0.0007976
2710.23	0.0004984
2719.87	0.0007069
2729.52	0.0005978
2739.16	0.0005543
2748.81	0.0008712
2758.45	0.001258
2768.1	0.001388
2777.74	0.001588
2787.39	0.001348
2797.03	0.0008738
2806.68	0.0009902
2816.32	0.000886
2825.97	0.0008555
2835.61	0.000971
2845.26	0.001298
2854.9	0.001718
2864.55	0.001828
2874.19	0.001398
2883.84	0.000966
2893.48	0.0008896
2903.12	0.0006754
2912.77	0.0008283
2922.41	0.00055
2932.06	0.0007886
2941.7	0.0006648
2951.35	0.0006578
2960.99	0.0001725
2970.64	0.000250967
2980.28	0.0003928
2989.93	0.0006847
2999.57	0.0005537
3009.22	0.0005474
3018.86	0.0004394
3028.51	0.0006488
3038.15	0.0006392
3047.8	0.0009973
3057.44	0.001338
3067.09	0.001428
3076.73	0.001598
3086.38	0.003388
3096.02	0.004578
3105.67	0.001478
3115.31	0.0008185
3124.95	0.0006525
3134.6	0.000703
3144.24	0.0012049
3153.89	0.001948
3163.53	0.001898
3173.18	0.002058
3182.82	0.001518
3192.47	0.001328
3202.11	0.0011458
3211.76	0.000671
3221.4	0.0006832
3231.05	0.000526
3240.69	0.0007594
3250.34	0.00031963
3259.98	0.0003752
3269.63	0.0001524
3279.27	0.0003711
3288.92	0.0005298
3298.56	0.0006426
3308.21	0.0003813
3317.85	0.0004667
3327.49	0.0005245
3337.14	0.000147
3346.78	0.0006293
3356.43	0.0010102
3366.07	0.001388
3375.72	0.003248
3385.36	0.007148
3395.01	0.017068
3404.65	0.032658
3414.3	0.031028
3423.94	0.012658
3433.59	0.005208
3443.23	0.003288
3452.88	0.003918
3462.52	0.005408
3472.17	0.008658
3481.81	0.015498
3491.46	0.029488
3501.1	0.050498
3510.75	0.047168
3520.39	0.020438
3530.04	0.008828
3539.68	0.003568
3549.32	0.002428
3558.97	0.002108
3568.61	0.0009755
3578.26	0.0011237
3587.9	0.0005886
3597.55	0.0004162
3607.19	0.000222
3616.84	0.0004453
3626.48	0.0005688
3636.13	0
3645.77	0.00032995
3655.42	0.0003627
3665.06	0.0005112
3674.71	0.0007182
3684.35	0.0006267
3694	0.0009371
3703.64	0.0008023
3713.29	0.0006601
3722.93	6.7e-05
3732.58	9.8e-05
3742.22	0.0006838
3751.86	0.0009286
3761.51	0.0007537
3771.15	0.0006835
3780.8	0.0001517
3790.44	0.0008822
3800.09	0.0007115
3809.73	0.0009783
3819.38	0.0010987
3829.02	0.0009864
3838.67	0.001368
3848.31	0.001748
3857.96	0.001548
3867.6	0.002068
3877.25	0.001828
3886.89	0.001398
3896.54	0.0009914
3906.18	0.0009734
3915.83	0.0005739
3925.47	0.0008829
3935.12	0.00074
3944.76	0.0005956
3954.41	0.0009988
3964.05	0.0010407
3973.69	0.001037
3983.34	0.000938
3992.98	0.0010656
