Infrared Spectrum: 3-Pentane isothiocyanate
Formula: C 6 H 11 N S
CAS: 201224-89-7
State: gas
Origin: EPA-IR VAPOR PHASE LIBRARY
1/CM	ABSORBANCE
549.8	0.009883
559.445	0.008423
569.09	0.006813
578.734	0.005043
588.379	0.004033
598.024	0.003663
607.669	0.002743
617.313	0.002613
626.958	0.002003
636.603	0.002283
646.248	0.002023
655.893	0.002513
665.537	0.002343
675.182	0.002733
684.827	0.002703
694.472	0.002193
704.116	0.001643
713.761	0.00095
723.406	0.0008682
733.051	0.0013352
742.695	0.0010801
752.34	0.0014057
761.985	0.002143
771.63	0.002643
781.275	0.002873
790.919	0.004273
800.564	0.007863
810.209	0.013083
819.854	0.016753
829.498	0.017933
839.143	0.014863
848.788	0.010163
858.433	0.008093
868.078	0.007073
877.722	0.005513
887.367	0.004433
897.012	0.005273
906.657	0.007153
916.301	0.008113
925.946	0.006623
935.591	0.004873
945.236	0.002993
954.88	0.002503
964.525	0.001953
974.17	0.001943
983.815	0.0014734
993.46	0.001883
1003.1	0.002763
1012.75	0.003393
1022.39	0.003303
1032.04	0.003033
1041.68	0.003373
1051.33	0.003563
1060.97	0.002873
1070.62	0.002793
1080.26	0.003193
1089.91	0.004493
1099.55	0.004553
1109.2	0.004613
1118.84	0.005663
1128.49	0.006283
1138.13	0.006343
1147.78	0.006383
1157.42	0.005233
1167.07	0.003063
1176.71	0.001943
1186.36	0.001863
1196	0.001703
1205.64	0.0013761
1215.29	0.001793
1224.93	0.002223
1234.58	0.002823
1244.22	0.003723
1253.87	0.004393
1263.51	0.006093
1273.16	0.007943
1282.8	0.009263
1292.45	0.011383
1302.09	0.016813
1311.74	0.021643
1321.38	0.025373
1331.03	0.032143
1340.67	0.046103
1350.32	0.049713
1359.96	0.031733
1369.61	0.014293
1379.25	0.011183
1388.9	0.012043
1398.54	0.009303
1408.18	0.005033
1417.83	0.003793
1427.47	0.004033
1437.12	0.005563
1446.76	0.009463
1456.41	0.014203
1466.05	0.015193
1475.7	0.010973
1485.34	0.006013
1494.99	0.003553
1504.63	0.002633
1514.28	0.002323
1523.92	0.001993
1533.57	0.001833
1543.21	0.001863
1552.86	0.001963
1562.5	0.001963
1572.15	0.001893
1581.79	0.001733
1591.44	0.001593
1601.08	0.0015303
1610.73	0.0014428
1620.37	0.001418
1630.01	0.0014827
1639.66	0.0014582
1649.3	0.0014608
1658.95	0.0014562
1668.59	0.0013444
1678.24	0.0012461
1687.88	0.0012883
1697.53	0.001196
1707.17	0.0012145
1716.82	0.0010728
1726.46	0.0010495
1736.11	0.0009329
1745.75	0.0008917
1755.4	0.0009777
1765.04	0.0010336
1774.69	0.0010826
1784.33	0.0011719
1793.98	0.0012779
1803.62	0.0014354
1813.27	0.001673
1822.91	0.001843
1832.55	0.002003
1842.2	0.002193
1851.84	0.002433
1861.49	0.002743
1871.13	0.003343
1880.78	0.003913
1890.42	0.004843
1900.07	0.006053
1909.71	0.007643
1919.36	0.009903
1929	0.012843
1938.65	0.016643
1948.29	0.021833
1957.94	0.028863
1967.58	0.038523
1977.23	0.052043
1986.87	0.070733
1996.52	0.095663
2006.16	0.126923
2015.81	0.164393
2025.45	0.207033
2035.1	0.249563
2044.74	0.281543
2054.38	0.293563
2064.03	0.290863
2073.67	0.279343
2083.32	0.247973
2092.96	0.200853
2102.61	0.158453
2112.25	0.128693
2121.9	0.106683
2131.54	0.091303
2141.19	0.083393
2150.83	0.078213
2160.48	0.070793
2170.12	0.059773
2179.77	0.048503
2189.41	0.038763
2199.06	0.029563
2208.7	0.021293
2218.35	0.015513
2227.99	0.011643
2237.64	0.009553
2247.28	0.008143
2256.92	0.007173
2266.57	0.006163
2276.21	0.005243
2285.86	0.004403
2295.5	0.003393
2305.15	0.002573
2314.79	0.002123
2324.44	0.001793
2334.08	0.001603
2343.73	0.0015203
2353.37	0.0015171
2363.02	0.0014349
2372.66	0.0015093
2382.31	0.0014723
2391.95	0.0015338
2401.6	0.0015585
2411.24	0.001517
2420.89	0.001458
2430.53	0.0014594
2440.18	0.0015012
2449.82	0.0014664
2459.47	0.0014241
2469.11	0.001603
2478.75	0.001544
2488.4	0.001673
2498.04	0.0015506
2507.69	0.0014104
2517.33	0.0015556
2526.98	0.001653
2536.62	0.001653
2546.27	0.001893
2555.91	0.002033
2565.56	0.002263
2575.2	0.002403
2584.85	0.002373
2594.49	0.002523
2604.14	0.002473
2613.78	0.002403
2623.43	0.002343
2633.07	0.002283
2642.72	0.002323
2652.36	0.002373
2662.01	0.002713
2671.65	0.002843
2681.29	0.003293
2690.94	0.003373
2700.58	0.003673
2710.23	0.003983
2719.87	0.004023
2729.52	0.004063
2739.16	0.004023
2748.81	0.004123
2758.45	0.004053
2768.1	0.003633
2777.74	0.003213
2787.39	0.003233
2797.03	0.003193
2806.68	0.003503
2816.32	0.003473
2825.97	0.004033
2835.61	0.004673
2845.26	0.005963
2854.9	0.009023
2864.55	0.013803
2874.19	0.019393
2883.84	0.028913
2893.48	0.036613
2903.12	0.034103
2912.77	0.028133
2922.41	0.031623
2932.06	0.049873
2941.7	0.070203
2951.35	0.067503
2960.99	0.055053
2970.64	0.069373
2980.28	0.083533
2989.93	0.058603
2999.57	0.020593
3009.22	0.010463
3018.86	0.007543
3028.51	0.006053
3038.15	0.004833
3047.8	0.004193
3057.44	0.003683
3067.09	0.003533
3076.73	0.003603
3086.38	0.003393
3096.02	0.003023
3105.67	0.002573
3115.31	0.002053
3124.95	0.001803
3134.6	0.001853
3144.24	0.001663
3153.89	0.001653
3163.53	0.0014431
3173.18	0.0013621
3182.82	0.0012499
3192.47	0.0012111
3202.11	0.0010597
3211.76	0.0008376
3221.4	0.0005212
3231.05	0.0006815
3240.69	0.0004806
3250.34	0.0005431
3259.98	0.000273
3269.63	0.000359
3279.27	0.000385
3288.92	0.000184
3298.56	0.000328
3308.21	0.000101
3317.85	0.000187
3327.49	6.3e-05
3337.14	0.0005042
3346.78	0.000275
3356.43	0.000316
3366.07	0.0004945
3375.72	0.000305
3385.36	0.000335
3395.01	0.000265
3404.65	0.000355
3414.3	0.000274
3423.94	0.000315
3433.59	0.000317
3443.23	0.000318
3452.88	0.000416
3462.52	0.000388
3472.17	0.000241
3481.81	0.000412
3491.46	0.000305
3501.1	0.000292
3510.75	0.000328
3520.39	0.000282
3530.04	0.000199
3539.68	0.000385
3549.32	0.000116
3558.97	0.000176
3568.61	0.000327
3578.26	0.000274
3587.9	0.00024
3597.55	0.000349
3607.19	0.00023
3616.84	0.000372
3626.48	0.000374
3636.13	0.000348
3645.77	0.000272
3655.42	0.000261
3665.06	0.00012
3674.71	0.000285
3684.35	0.000385
3694	0.000302
3703.64	0.000387
3713.29	0.000403
3722.93	0.000344
3732.58	0.000386
3742.22	0.00056987
3751.86	0.0005428
3761.51	0.0007379
3771.15	0.000437
3780.8	0.000366
3790.44	0.000402
3800.09	0.0005251
3809.73	0.0004792
3819.38	0.0005379
3829.02	0.00065521
3838.67	0.0005986
3848.31	0.00061982
3857.96	0.00062566
3867.6	0.0005514
3877.25	0.000396
3886.89	0.00066506
3896.54	0.0008072
3906.18	0.0007593
3915.83	0.0008496
3925.47	0.0009388
3935.12	0.0010601
3944.76	0.0011823
3954.41	0.0011322
3964.05	0.001305
3973.69	0.0014948
3983.34	0.0015634
3992.98	0.0015129
