Infrared Spectrum: 4H-Cyclopenta[def]phenanthrene
Formula: C15 H10
CAS: 203-64-5
State: SOLUTION (10% CCl4 FOR 3800-1330, 10% CS2 FOR 1330-400 CM^-^1)
Class: COBLENTZ III
Instrument: BECKMAN IR-9 (GRATING)
Instrument parameters: ORDER CHANGES: 670, 1200, 2000 CM^-^1
Sampling: TRANSMISSION
Path length: 0.011 CM, 0.011 CM
Resolution: 2
Origin: DOW CHEMICAL COMPANY
1/CM	TRANSMITTANCE
3800	0.9068
3791	0.9076
3782	0.9051
3773	0.9056
3764	0.9048
3755	0.9043
3746	0.9043
3737	0.9058
3728	0.9057
3719	0.9041
3710	0.9059
3701	0.9071
3692	0.9061
3683	0.905
3674	0.9053
3665	0.9055
3656	0.9058
3647	0.9058
3638	0.9055
3629	0.905
3620	0.9062
3611	0.9058
3602	0.9046
3593	0.9052
3584	0.9051
3575	0.904
3566	0.9034
3557	0.9032
3548	0.9045
3539	0.9038
3530	0.904
3521	0.9023
3512	0.9023
3503	0.9022
3494	0.9022
3485	0.902
3476	0.9018
3467	0.9016
3458	0.9015
3449	0.9013
3440	0.9011
3431	0.901
3422	0.901
3413	0.9007
3404	0.8979
3395	0.8939
3386	0.8952
3377	0.8967
3368	0.8977
3359	0.8987
3350	0.8995
3341	0.8999
3332	0.9004
3323	0.9006
3314	0.9004
3305	0.9014
3296	0.8997
3287	0.8995
3278	0.9004
3269	0.9004
3260	0.8998
3251	0.8993
3242	0.899
3233	0.8985
3224	0.8981
3215	0.897
3206	0.8945
3197	0.8938
3188	0.8922
3179	0.89
3170	0.8917
3161	0.895
3152	0.896
3143	0.8873
3134	0.886
3125	0.8872
3116	0.8868
3107	0.8857
3098	0.8727
3089	0.8484
3080	0.8267
3071	0.7368
3062	0.7097
3053	0.5235
3044	0.2375
3035	0.3208
3026	0.5085
3017	0.6625
3008	0.6926
2999	0.7978
2990	0.8401
2981	0.8657
2972	0.8717
2963	0.8748
2954	0.8776
2945	0.8665
2936	0.8372
2927	0.7732
2918	0.7614
2909	0.7629
2900	0.6445
2891	0.7936
2882	0.8577
2873	0.8798
2864	0.8887
2855	0.8936
2846	0.8978
2837	0.8994
2828	0.8986
2819	0.8978
2810	0.8921
2801	0.8821
2792	0.8719
2783	0.8793
2774	0.897
2765	0.9088
2756	0.9102
2747	0.9112
2738	0.9119
2729	0.9122
2720	0.9126
2711	0.9126
2702	0.9125
2693	0.9122
2684	0.9121
2675	0.9117
2666	0.9114
2657	0.9123
2648	0.9112
2639	0.9099
2630	0.9094
2621	0.91
2612	0.9096
2603	0.9095
2594	0.9093
2585	0.9096
2576	0.9102
2567	0.9107
2558	0.9109
2549	0.9111
2540	0.9113
2531	0.9113
2522	0.9117
2513	0.9118
2504	0.9122
2495	0.9122
2486	0.9122
2477	0.9136
2468	0.9136
2459	0.9139
2450	0.9128
2441	0.9141
2432	0.9139
2423	0.9138
2414	0.9135
2405	0.9144
2396	0.9137
2387	0.9144
2378	0.9179
2369	0.9184
2360	0.9176
2351	0.9182
2342	0.9144
2333	0.9081
2324	0.907
2315	0.9076
2306	0.91
2297	0.9096
2288	0.9078
2279	0.9073
2270	0.9057
2261	0.9072
2252	0.9095
2243	0.9096
2234	0.9097
2225	0.9108
2216	0.9101
2207	0.9102
2198	0.9103
2189	0.9092
2180	0.9096
2171	0.9109
2162	0.91
2153	0.9109
2144	0.9125
2135	0.9145
2126	0.915
2117	0.915
2108	0.9146
2099	0.9141
2090	0.9138
2081	0.9135
2072	0.9131
2063	0.9123
2054	0.9133
2045	0.9119
2036	0.9116
2027	0.9124
2018	0.9132
2009	0.9126
2000	0.9108
1991	0.8954
1982	0.9059
1973	0.9053
1964	0.9056
1955	0.9065
1946	0.898
1937	0.8866
1928	0.8215
1919	0.7883
1910	0.8256
1901	0.8463
1892	0.8765
1883	0.8989
1874	0.9013
1865	0.8924
1856	0.8605
1847	0.8528
1838	0.8377
1829	0.8389
1820	0.8749
1811	0.8965
1802	0.8965
1793	0.8935
1784	0.8816
1775	0.8047
1766	0.794
1757	0.8734
1748	0.8781
1739	0.8845
1730	0.8853
1721	0.8825
1712	0.8437
1703	0.8563
1694	0.8684
1685	0.8705
1676	0.8697
1667	0.8468
1658	0.8408
1649	0.8501
1640	0.833
1631	0.8592
1622	0.8747
1613	0.891
1604	0.8821
1595	0.8144
1586	0.6803
1577	0.8071
1568	0.7988
1559	0.7718
1550	0.7908
1541	0.8033
1532	0.8284
1523	0.8015
1514	0.7961
1505	0.7705
1496	0.8225
1487	0.7554
1478	0.8921
1469	0.8878
1460	0.8455
1451	0.8299
1442	0.2667
1433	0.8303
1424	0.4226
1415	0.7087
1406	0.5384
1397	0.5252
1388	0.8376
1379	0.8754
1370	0.8912
1361	0.888
1352	0.8853
1343	0.7852
1334	0.8863
1325	0.8981
1316	0.7936
1307	0.7453
1298	0.9077
1289	0.9188
1280	0.9199
1271	0.9155
1262	0.9078
1253	0.9072
1244	0.9067
1235	0.9087
1226	0.9016
1217	0.7929
1208	0.7664
1199	0.8841
1190	0.8857
1181	0.8675
1172	0.8751
1163	0.8411
1154	0.8159
1145	0.8754
1136	0.8608
1127	0.877
1118	0.9106
1109	0.9168
1100	0.9182
1091	0.9203
1082	0.9201
1073	0.9139
1064	0.8873
1055	0.8339
1046	0.7754
1037	0.8797
1028	0.8761
1019	0.743
1010	0.8972
1001	0.898
992	0.9043
983	0.8811
974	0.8807
965	0.8231
956	0.8451
947	0.885
938	0.8476
929	0.8943
920	0.9071
911	0.9055
902	0.8945
893	0.8674
884	0.8453
875	0.7757
866	0.8652
857	0.8819
848	0.8932
839	0.8912
830	0.8349
821	0.4355
812	0.0423
803	0.7078
794	0.8572
785	0.8812
776	0.8081
767	0.6288
758	0.7177
749	0.0054
740	0.4436
731	0.8716
722	0.8988
713	0.8917
704	0.8481
695	0.3748
686	0.8948
677	0.9142
668	0.9293
659	0.9046
650	0.8695
641	0.9149
632	0.9183
623	0.9164
614	0.9142
605	0.9113
596	0.9031
587	0.8268
578	0.9088
569	0.9125
560	0.9132
551	0.9071
542	0.9025
533	0.9037
524	0.9016
515	0.8883
506	0.8798
497	0.847
488	0.7925
479	0.8209
470	0.8122
461	0.7876
452	0.7645
443	0.7031
434	0.6282
425	0.5388
416	0.3816
407	0.261
