Infrared Spectrum: 2-Methyl-5-isopropylaniline
Formula: C10 H15 N
CAS: 2051-53-8
State: SOLUTION (10% CCl4 FOR 3800-1340, 10% CS2 FOR 1340-400 CM^-^1)
Class: COBLENTZ III
Instrument: DOW KBr FOREPRISM-GRATING
Instrument parameters: BLAZED AT 3.5, 12.0, 20.0 MICRON AND CHANGED AT 5.0, 7.5, 14.9 MICRON
Sampling: TRANSMISSION
Path length: 0.011 CM, 0.010 CM
Resolution: 2
Origin: DOW CHEMICAL COMPANY
1/CM	TRANSMITTANCE
3800	0.9677
3791	0.9655
3782	0.9609
3773	0.9578
3764	0.9553
3755	0.955
3746	0.9563
3737	0.9598
3728	0.9617
3719	0.9609
3710	0.9604
3701	0.9587
3692	0.9565
3683	0.9541
3674	0.952
3665	0.9519
3656	0.9562
3647	0.9534
3638	0.9571
3629	0.9554
3620	0.9536
3611	0.9603
3602	0.9553
3593	0.9541
3584	0.9527
3575	0.9504
3566	0.9479
3557	0.9453
3548	0.9432
3539	0.9392
3530	0.9344
3521	0.9279
3512	0.9221
3503	0.9104
3494	0.8836
3485	0.7916
3476	0.6717
3467	0.6391
3458	0.6819
3449	0.7423
3440	0.8009
3431	0.8593
3422	0.8934
3413	0.8905
3404	0.8536
3395	0.6383
3386	0.6061
3377	0.6683
3368	0.729
3359	0.7897
3350	0.8506
3341	0.8922
3332	0.9077
3323	0.919
3314	0.9276
3305	0.9343
3296	0.9376
3287	0.9408
3278	0.9417
3269	0.9406
3260	0.9375
3251	0.9334
3242	0.9288
3233	0.9221
3224	0.9149
3215	0.9052
3206	0.894
3197	0.8906
3188	0.8971
3179	0.9057
3170	0.9129
3161	0.9183
3152	0.9199
3143	0.9167
3134	0.9119
3125	0.9084
3116	0.9076
3107	0.9067
3098	0.9022
3089	0.8925
3080	0.8768
3071	0.8587
3062	0.8114
3053	0.7517
3044	0.7268
3035	0.7311
3026	0.6929
3017	0.5805
3008	0.4651
2999	0.5379
2990	0.609
2981	0.5989
2972	0.2743
2963	0.0096
2954	0.002
2945	0.191
2936	0.3068
2927	0.1895
2918	0.2004
2909	0.3409
2900	0.3428
2891	0.3222
2882	0.3525
2873	0.3503
2864	0.2417
2855	0.3618
2846	0.6257
2837	0.7499
2828	0.8075
2819	0.837
2810	0.8487
2801	0.8549
2792	0.867
2783	0.8857
2774	0.8908
2765	0.8931
2756	0.8945
2747	0.8953
2738	0.8934
2729	0.8543
2720	0.8511
2711	0.8621
2702	0.8772
2693	0.8953
2684	0.8991
2675	0.9003
2666	0.9008
2657	0.9007
2648	0.8996
2639	0.8989
2630	0.8978
2621	0.8971
2612	0.8961
2603	0.8951
2594	0.8928
2585	0.8842
2576	0.8892
2567	0.8873
2558	0.8875
2549	0.8908
2540	0.8925
2531	0.8957
2522	0.8982
2513	0.8967
2504	0.8971
2495	0.8984
2486	0.8939
2477	0.8917
2468	0.8897
2459	0.8884
2450	0.8865
2441	0.886
2432	0.885
2423	0.8842
2414	0.8833
2405	0.8826
2396	0.8802
2387	0.8792
2378	0.8812
2369	0.8883
2360	0.8974
2351	0.8987
2342	0.8916
2333	0.8892
2324	0.8853
2315	0.8755
2306	0.8671
2297	0.8623
2288	0.8575
2279	0.8547
2270	0.8526
2261	0.8534
2252	0.855
2243	0.8557
2234	0.8572
2225	0.8598
2216	0.861
2207	0.8621
2198	0.8625
2189	0.8622
2180	0.8626
2171	0.8636
2162	0.8633
2153	0.8643
2144	0.8626
2135	0.856
2126	0.8554
2117	0.8574
2108	0.8611
2099	0.8626
2090	0.8641
2081	0.865
2072	0.8649
2063	0.8648
2054	0.8656
2045	0.8648
2036	0.8647
2027	0.8649
2018	0.8659
2009	0.8662
2000	0.8728
1991	0.8784
1982	0.8154
1973	0.7683
1964	0.8193
1955	0.8267
1946	0.8402
1937	0.8651
1928	0.8662
1919	0.876
1910	0.8625
1901	0.8856
1892	0.917
1883	0.9315
1874	0.9265
1865	0.9102
1856	0.8904
1847	0.9178
1838	0.9341
1829	0.9268
1820	0.9316
1811	0.9345
1802	0.9356
1793	0.9394
1784	0.9427
1775	0.9446
1766	0.9459
1757	0.9437
1748	0.9349
1739	0.924
1730	0.9139
1721	0.9076
1712	0.8928
1703	0.8744
1694	0.8785
1685	0.8698
1676	0.8939
1667	0.8874
1658	0.8546
1649	0.8119
1640	0.6516
1631	0.3611
1622	0.0692
1613	0.096
1604	0.2584
1595	0.4615
1586	0.5182
1577	0.2438
1568	0.3568
1559	0.5092
1550	0.5995
1541	0.5829
1532	0.5984
1523	0.529
1514	0.1797
1505	0.3099
1496	0.4737
1487	0.5561
1478	0.6954
1469	0.6512
1460	0.2423
1451	0.2848
1442	0.422
1433	0.5361
1424	0.2079
1415	0.5764
1406	0.7663
1397	0.8111
1388	0.8071
1379	0.5856
1370	0.7784
1361	0.6839
1352	0.8026
1343	0.7851
1334	0.7035
1325	0.7294
1316	0.7657
1307	0.4975
1298	0.4831
1289	0.4829
1280	0.6078
1271	0.5338
1262	0.6157
1253	0.5913
1244	0.8293
1235	0.8924
1226	0.9136
1217	0.9249
1208	0.8763
1199	0.9111
1190	0.928
1181	0.8008
1172	0.8597
1163	0.9025
1154	0.8731
1145	0.736
1136	0.8175
1127	0.8615
1118	0.8939
1109	0.9057
1100	0.8578
1091	0.8597
1082	0.8957
1073	0.9098
1064	0.8584
1055	0.8597
1046	0.6596
1037	0.8248
1028	0.8597
1019	0.858
1010	0.9092
1001	0.9082
992	0.5983
983	0.6638
974	0.8925
965	0.9261
956	0.9293
947	0.9106
938	0.8021
929	0.7782
920	0.8646
911	0.8525
902	0.91
893	0.9137
884	0.8917
875	0.8099
866	0.6748
857	0.4177
848	0.3144
839	0.7717
830	0.8394
821	0.8393
812	0.7281
803	0.2149
794	0.4334
785	0.7757
776	0.8023
767	0.805
758	0.7956
749	0.7858
740	0.7738
731	0.7632
722	0.7504
713	0.56
704	0.6532
695	0.668
686	0.6735
677	0.6614
668	0.6649
659	0.6528
650	0.5789
641	0.5415
632	0.463
623	0.6291
614	0.6981
605	0.6868
596	0.6667
587	0.6485
578	0.6565
569	0.6728
560	0.6338
551	0.6267
542	0.6183
533	0.5992
524	0.5973
515	0.6001
506	0.6106
497	0.6235
488	0.6377
479	0.6568
470	0.6656
461	0.6324
452	0.4871
443	0.5315
434	0.5761
425	0.5965
416	0.599
407	0.5853
398	0.5423
389	0.5006
