Infrared Spectrum: 3-Ethoxy-4-hydroxyphenylacetonitrile
Formula: C 10 H 11 N O 2
CAS: 205748-01-2
State: gas
Origin: EPA-IR VAPOR PHASE LIBRARY
1/CM	ABSORBANCE
549.8	0.003098
559.445	0.003478
569.09	0.003408
578.734	0.003848
588.379	0.004038
598.024	0.004108
607.669	0.003978
617.313	0.003118
626.958	0.003028
636.603	0.002358
646.248	0.001448
655.893	0.001248
665.537	0.001268
675.182	0.001338
684.827	0.001728
694.472	0.001968
704.116	0.002118
713.761	0.002888
723.406	0.003648
733.051	0.004068
742.695	0.004268
752.34	0.003998
761.985	0.004158
771.63	0.005898
781.275	0.010168
790.919	0.015688
800.564	0.021008
810.209	0.023428
819.854	0.016298
829.498	0.007968
839.143	0.006128
848.788	0.007178
858.433	0.006718
868.078	0.006278
877.722	0.005698
887.367	0.004988
897.012	0.004498
906.657	0.004628
916.301	0.005898
925.946	0.006178
935.591	0.005298
945.236	0.004458
954.88	0.005798
964.525	0.008648
974.17	0.009218
983.815	0.006048
993.46	0.004458
1003.1	0.005128
1012.75	0.009108
1022.39	0.018868
1032.04	0.031768
1041.68	0.033628
1051.33	0.022008
1060.97	0.011378
1070.62	0.007218
1080.26	0.007668
1089.91	0.007888
1099.55	0.008638
1109.2	0.017248
1118.84	0.032928
1128.49	0.032968
1138.13	0.030298
1147.78	0.034918
1157.42	0.028458
1167.07	0.022668
1176.71	0.021258
1186.36	0.025328
1196	0.033758
1205.64	0.034668
1215.29	0.029828
1224.93	0.043828
1234.58	0.068228
1244.22	0.068218
1253.87	0.056418
1263.51	0.081908
1273.16	0.112528
1282.8	0.073958
1292.45	0.031998
1302.09	0.020358
1311.74	0.016788
1321.38	0.012448
1331.03	0.010048
1340.67	0.012228
1350.32	0.018148
1359.96	0.021508
1369.61	0.021888
1379.25	0.023638
1388.9	0.020068
1398.54	0.016278
1408.18	0.013018
1417.83	0.012088
1427.47	0.021428
1437.12	0.035048
1446.76	0.025198
1456.41	0.010858
1466.05	0.009018
1475.7	0.012308
1485.34	0.019008
1494.99	0.032188
1504.63	0.084508
1514.28	0.123588
1523.92	0.063448
1533.57	0.021668
1543.21	0.011108
1552.86	0.007028
1562.5	0.005328
1572.15	0.004728
1581.79	0.005398
1591.44	0.009318
1601.08	0.015318
1610.73	0.016598
1620.37	0.011618
1630.01	0.005718
1639.66	0.003338
1649.3	0.002428
1658.95	0.002108
1668.59	0.001968
1678.24	0.001968
1687.88	0.001868
1697.53	0.001738
1707.17	0.001658
1716.82	0.001528
1726.46	0.001598
1736.11	0.001728
1745.75	0.001678
1755.4	0.001598
1765.04	0.001498
1774.69	0.001568
1784.33	0.001428
1793.98	0.001258
1803.62	0.001053
1813.27	0.0010578
1822.91	0.0011449
1832.55	0.001328
1842.2	0.001638
1851.84	0.002158
1861.49	0.002348
1871.13	0.002128
1880.78	0.001838
1890.42	0.001668
1900.07	0.001458
1909.71	0.001478
1919.36	0.001398
1929	0.001308
1938.65	0.0010961
1948.29	0.0011213
1957.94	0.0010853
1967.58	0.0010528
1977.23	0.0011607
1986.87	0.001228
1996.52	0.0010164
2006.16	0.0011215
2015.81	0.001228
2025.45	0.001218
2035.1	0.0011526
2044.74	0.001318
2054.38	0.001398
2064.03	0.001508
2073.67	0.001418
2083.32	0.001298
2092.96	0.0011103
2102.61	0.0010586
2112.25	0.0009706
2121.9	0.0010077
2131.54	0.000969
2141.19	0.0008728
2150.83	0.0009043
2160.48	0.000893
2170.12	0.0008585
2179.77	0.0008478
2189.41	0.0007925
2199.06	0.000774
2208.7	0.00094
2218.35	0.0008768
2227.99	0.0009668
2237.64	0.001258
2247.28	0.001848
2256.92	0.001938
2266.57	0.001628
2276.21	0.001228
2285.86	0.001228
2295.5	0.001248
2305.15	0.001268
2314.79	0.001258
2324.44	0.001298
2334.08	0.0011531
2343.73	0.0011833
2353.37	0.001318
2363.02	0.0011644
2372.66	0.0011632
2382.31	0.001298
2391.95	0.001328
2401.6	0.001308
2411.24	0.001278
2420.89	0.001218
2430.53	0.0011322
2440.18	0.0011616
2449.82	0.0012071
2459.47	0.0011621
2469.11	0.001408
2478.75	0.001348
2488.4	0.001518
2498.04	0.001448
2507.69	0.001718
2517.33	0.001598
2526.98	0.001628
2536.62	0.001588
2546.27	0.001528
2555.91	0.001588
2565.56	0.001398
2575.2	0.001488
2584.85	0.0011683
2594.49	0.0012044
2604.14	0.0011375
2613.78	0.0010999
2623.43	0.001288
2633.07	0.001248
2642.72	0.001201
2652.36	0.0011207
2662.01	0.00111
2671.65	0.0010334
2681.29	0.001228
2690.94	0.0009846
2700.58	0.0010529
2710.23	0.001248
2719.87	0.001258
2729.52	0.001338
2739.16	0.001628
2748.81	0.001478
2758.45	0.001578
2768.1	0.001548
2777.74	0.001598
2787.39	0.001588
2797.03	0.001588
2806.68	0.001648
2816.32	0.001838
2825.97	0.002078
2835.61	0.002688
2845.26	0.002928
2854.9	0.003048
2864.55	0.003918
2874.19	0.005308
2883.84	0.007248
2893.48	0.009278
2903.12	0.010498
2912.77	0.012078
2922.41	0.013568
2932.06	0.015558
2941.7	0.016078
2951.35	0.013548
2960.99	0.011258
2970.64	0.012698
2980.28	0.018848
2989.93	0.024048
2999.57	0.015718
3009.22	0.008028
3018.86	0.006158
3028.51	0.006118
3038.15	0.006458
3047.8	0.006818
3057.44	0.007108
3067.09	0.006218
3076.73	0.004108
3086.38	0.002468
3096.02	0.001538
3105.67	0.001578
3115.31	0.001638
3124.95	0.001328
3134.6	0.001298
3144.24	0.0009548
3153.89	0.0008824
3163.53	0.000873
3173.18	0.0010927
3182.82	0.0009676
3192.47	0.0011751
3202.11	0.0009284
3211.76	0.0010261
3221.4	0.0010244
3231.05	0.0007071
3240.69	0.0008469
3250.34	0.0004146
3259.98	0.0005801
3269.63	0.0006179
3279.27	0.000655
3288.92	0.0005614
3298.56	0.0005429
3308.21	0.0005534
3317.85	0.0005445
3327.49	0.0004542
3337.14	0.0004763
3346.78	0.0004271
3356.43	0.00026655
3366.07	0.00030388
3375.72	0.0001769
3385.36	0.000215509
3395.01	0.0001942
3404.65	0.0002596
3414.3	0.0004426
3423.94	0.0004194
3433.59	0.0004343
3443.23	0.0004161
3452.88	0.0003323
3462.52	0.0003107
3472.17	0.00029117
3481.81	0.0003568
3491.46	0.0003739
3501.1	0.0004718
3510.75	0.000621
3520.39	0.0006544
3530.04	0.0011351
3539.68	0.001808
3549.32	0.003278
3558.97	0.007978
3568.61	0.026058
3578.26	0.051408
3587.9	0.042458
3597.55	0.015468
3607.19	0.004678
3616.84	0.002448
3626.48	0.001558
3636.13	0.001528
3645.77	0.002278
3655.42	0.002038
3665.06	0.000614
3674.71	0.000166
3684.35	0.0002886
3694	0.0003259
3703.64	0.00028855
3713.29	0.0003401
3722.93	0.0001644
3732.58	0.00022097
3742.22	0.0003109
3751.86	0.0002589
3761.51	0.0003915
3771.15	0.0003881
3780.8	0.00025792
3790.44	0.00030534
3800.09	0.00028448
3809.73	0.000213836
3819.38	0.00020264
3829.02	0.0001741
3838.67	0.00029489
3848.31	0.0005165
3857.96	0.0004863
3867.6	0.0003115
3877.25	0.0003902
3886.89	0.0001645
3896.54	0.00023582
3906.18	0.000209621
3915.83	0.000217168
3925.47	0.0001582
3935.12	0.0004392
3944.76	0.0004861
3954.41	0.0006049
3964.05	0.0004089
3973.69	0.0003793
3983.34	0.0004584
3992.98	0.00026197
