Infrared Spectrum: 4,4'-DIBROMO DIPHENYL ETHER
Formula: C12 H8 Br2 O
CAS: 2050-47-7
State: SOLID (MINERAL OIL MULL)
Class: COBLENTZ
Instrument: Not specified, most likely a prism, grating, or hybrid spectrometer.
Sampling: TRANSMISSION
Resolution: 4
Origin: WYANDOTTE CHEMICALS CORP., WYANDOTTE, MICHIGAN, USA
MICROMETERS	TRANSMITTANCE
2.02	0.254
2.06078	0.259
2.10155	0.263
2.14233	0.263
2.18311	0.259
2.22388	0.263
2.26466	0.266
2.30544	0.266
2.34621	0.275
2.38699	0.276
2.42777	0.276
2.46854	0.281
2.50932	0.288
2.5501	0.295
2.59087	0.302
2.63165	0.31
2.67243	0.31
2.7132	0.312
2.75398	0.32
2.79476	0.32
2.83553	0.319
2.87631	0.322
2.91709	0.331
2.95786	0.334
2.99864	0.332
3.03942	0.332
3.08019	0.332
3.12097	0.332
3.16175	0.327
3.20252	0.308
3.2433	0.258
3.28408	0.254
3.32485	0.14
3.36563	0.04
3.40641	0.044
3.44718	0.062
3.48796	0.067
3.52874	0.31
3.56951	0.461
3.61029	0.478
3.65107	0.48
3.69184	0.473
3.73262	0.478
3.7734	0.483
3.81417	0.488
3.85495	0.502
3.89573	0.509
3.9365	0.511
3.97728	0.521
4.01805	0.538
4.05883	0.539
4.09961	0.531
4.14038	0.536
4.18116	0.534
4.22194	0.541
4.26271	0.531
4.30349	0.536
4.34427	0.548
4.38504	0.575
4.42582	0.578
4.4666	0.57
4.50737	0.584
4.54815	0.595
4.58893	0.601
4.6297	0.602
4.67048	0.612
4.71126	0.619
4.75203	0.628
4.79281	0.638
4.83359	0.638
4.87436	0.64
4.91514	0.645
4.95592	0.657
4.99669	0.658
5.03747	0.65
5.07825	0.658
5.11902	0.679
5.1598	0.685
5.20058	0.689
5.24135	0.692
5.28213	0.701
5.32291	0.555
5.36368	0.684
5.40446	0.706
5.44524	0.718
5.48601	0.73
5.52679	0.738
5.56757	0.745
5.60834	0.75
5.64912	0.752
5.6899	0.743
5.73067	0.75
5.77145	0.772
5.81223	0.779
5.853	0.784
5.89378	0.813
5.93456	0.821
5.97533	0.804
6.01611	0.735
6.05689	0.769
6.09766	0.816
6.13844	0.838
6.17922	0.879
6.21999	0.882
6.26077	0.516
6.30155	0.624
6.34232	0.786
6.3831	0.877
6.42388	0.908
6.46465	0.928
6.50543	0.93
6.54621	0.898
6.58698	0.804
6.62776	0.536
6.66854	0.28
6.70931	0.052
6.75009	0.103
6.79087	0.112
6.83164	0.162
6.87242	0.285
6.9132	0.375
6.95397	0.466
6.99475	0.619
7.03553	0.691
7.0763	0.582
7.11708	0.439
7.15786	0.521
7.19863	0.511
7.23941	0.38
7.28019	0.548
7.32096	0.641
7.36174	0.702
7.40252	0.741
7.44329	0.78
7.48407	0.82
7.52485	0.83
7.56562	0.828
7.6064	0.818
7.64718	0.764
7.68795	0.529
7.72873	0.594
7.7695	0.638
7.81028	0.488
7.85106	0.305
7.89183	0.499
7.93261	0.388
7.97339	0.19
8.01416	0.118
8.05494	0.1
8.09572	0.205
8.13649	0.376
8.17727	0.517
8.21805	0.595
8.25882	0.623
8.2996	0.638
8.34038	0.573
8.38115	0.431
8.42193	0.604
8.46271	0.709
8.50348	0.774
8.54426	0.634
8.58504	0.305
8.62581	0.636
8.66659	0.704
8.70737	0.745
8.74814	0.779
8.78892	0.804
8.8297	0.818
8.87047	0.816
8.91125	0.811
8.95203	0.726
8.9928	0.604
9.03358	0.584
9.07436	0.317
9.11513	0.47
9.15591	0.753
9.19669	0.696
9.23746	0.511
9.27824	0.305
9.31902	0.319
9.35979	0.368
9.40057	0.538
9.44135	0.655
9.48212	0.707
9.5229	0.738
9.56368	0.765
9.60445	0.786
9.64523	0.803
9.68601	0.825
9.72678	0.837
9.76756	0.869
9.80834	0.894
9.84911	0.83
9.88989	0.407
9.93067	0.359
9.97144	0.568
10.0122	0.646
10.053	0.718
10.0938	0.743
10.1345	0.764
10.1753	0.772
10.2161	0.774
10.2569	0.775
10.2977	0.779
10.3384	0.787
10.3792	0.797
10.42	0.806
10.4608	0.809
10.5015	0.757
10.5423	0.77
10.5831	0.792
10.6239	0.804
10.6646	0.811
10.7054	0.811
10.7462	0.813
10.787	0.82
10.8278	0.828
10.8685	0.831
10.9093	0.837
10.9501	0.84
10.9909	0.85
11.0316	0.853
11.0724	0.855
11.1132	0.859
11.154	0.86
11.1947	0.862
11.2355	0.864
11.2763	0.864
11.3171	0.864
11.3578	0.862
11.3986	0.855
11.4394	0.825
11.4802	0.697
11.521	0.597
11.5617	0.714
11.6025	0.77
11.6433	0.787
11.6841	0.77
11.7248	0.747
11.7656	0.702
11.8064	0.609
11.8472	0.524
11.8879	0.458
11.9287	0.307
11.9695	0.156
12.0103	0.127
12.0511	0.127
12.0918	0.106
12.1326	0.139
12.1734	0.224
12.2142	0.113
12.2549	0.079
12.2957	0.156
12.3365	0.268
12.3773	0.383
12.418	0.475
12.4588	0.56
12.4996	0.628
12.5404	0.668
12.5811	0.707
12.6219	0.748
12.6627	0.769
12.7035	0.786
12.7443	0.813
12.785	0.808
12.8258	0.76
12.8666	0.769
12.9074	0.83
12.9481	0.862
12.9889	0.876
13.0297	0.896
13.0705	0.904
13.1112	0.911
13.152	0.92
13.1928	0.918
13.2336	0.921
13.2744	0.921
13.3151	0.921
13.3559	0.921
13.3967	0.921
13.4375	0.918
13.4782	0.915
13.519	0.91
13.5598	0.906
13.6006	0.901
13.6413	0.898
13.6821	0.893
13.7229	0.887
13.7637	0.881
13.8044	0.87
13.8452	0.862
13.886	0.853
13.9268	0.867
13.9676	0.899
14.0083	0.916
14.0491	0.926
14.0899	0.938
14.1307	0.947
14.1714	0.959
14.2122	0.966
14.253	0.964
14.2938	0.969
14.3345	0.962
14.3753	0.942
14.4161	0.91
14.4569	0.891
14.4976	0.882
14.5384	0.896
14.5792	0.901
14.62	0.906
14.6608	0.903
14.7015	0.899
14.7423	0.887
14.7831	0.884
14.8239	0.876
14.8646	0.864
14.9054	0.855
14.9462	0.852
14.987	0.83
15.0277	0.748
15.0685	0.709
15.1093	0.755
15.1501	0.801
15.1909	0.803
15.2316	0.772
15.2724	0.748
15.3132	0.718
15.354	0.66
15.3947	0.587
15.4355	0.536
15.4763	0.5
15.5171	0.485
15.5578	0.499
15.5986	0.522
15.6394	0.536
15.6802	0.539
15.7209	0.538
15.7617	0.536
15.8025	0.526
15.8433	0.516
15.8841	0.504
15.9248	0.492
15.9656	0.485
