Infrared Spectrum: 4-Chloro-3-methylphenacyl bromide
Formula: C 9 H 8 Br Cl O
CAS: 205178-80-9
State: gas
Origin: EPA-IR VAPOR PHASE LIBRARY
1/CM	ABSORBANCE
549.8	0.010779
559.445	0.012239
569.09	0.016269
578.734	0.018489
588.379	0.008879
598.024	0.007349
607.669	0.011229
617.313	0.012859
626.958	0.017669
636.603	0.029629
646.248	0.015339
655.893	0.011879
665.537	0.013799
675.182	0.014159
684.827	0.008899
694.472	0.009649
704.116	0.030959
713.761	0.022489
723.406	0.007259
733.051	0.006029
742.695	0.007179
752.34	0.009369
761.985	0.006759
771.63	0.005239
781.275	0.005099
790.919	0.005969
800.564	0.008399
810.209	0.015629
819.854	0.024939
829.498	0.023369
839.143	0.015669
848.788	0.009459
858.433	0.006819
868.078	0.008299
877.722	0.011139
887.367	0.009709
897.012	0.007989
906.657	0.008639
916.301	0.005969
925.946	0.003609
935.591	0.002779
945.236	0.003329
954.88	0.003969
964.525	0.004939
974.17	0.007399
983.815	0.013009
993.46	0.019849
1003.1	0.020359
1012.75	0.025269
1022.39	0.035149
1032.04	0.046149
1041.68	0.072549
1051.33	0.164559
1060.97	0.107929
1070.62	0.029079
1080.26	0.014469
1089.91	0.010449
1099.55	0.009429
1109.2	0.010689
1118.84	0.012939
1128.49	0.011579
1138.13	0.010739
1147.78	0.013309
1157.42	0.015659
1167.07	0.018379
1176.71	0.020769
1186.36	0.028869
1196	0.030689
1205.64	0.031769
1215.29	0.027119
1224.93	0.023499
1234.58	0.026669
1244.22	0.053409
1253.87	0.140039
1263.51	0.130949
1273.16	0.059189
1282.8	0.070699
1292.45	0.114299
1302.09	0.067559
1311.74	0.022609
1321.38	0.011919
1331.03	0.008149
1340.67	0.006209
1350.32	0.005549
1359.96	0.006149
1369.61	0.009609
1379.25	0.016819
1388.9	0.025149
1398.54	0.026959
1408.18	0.023179
1417.83	0.030869
1427.47	0.054149
1437.12	0.036819
1446.76	0.025119
1456.41	0.020659
1466.05	0.020689
1475.7	0.030449
1485.34	0.024839
1494.99	0.012009
1504.63	0.007529
1514.28	0.006559
1523.92	0.006569
1533.57	0.007549
1543.21	0.010469
1552.86	0.017479
1562.5	0.030229
1572.15	0.038719
1581.79	0.036629
1591.44	0.053709
1601.08	0.043229
1610.73	0.016419
1620.37	0.009959
1630.01	0.008729
1639.66	0.009129
1649.3	0.009639
1658.95	0.012129
1668.59	0.016239
1678.24	0.029089
1687.88	0.082299
1697.53	0.189279
1707.17	0.155999
1716.82	0.068139
1726.46	0.036789
1736.11	0.019279
1745.75	0.012139
1755.4	0.009729
1765.04	0.007239
1774.69	0.005439
1784.33	0.004699
1793.98	0.004109
1803.62	0.003289
1813.27	0.002989
1822.91	0.002759
1832.55	0.002199
1842.2	0.001949
1851.84	0.001939
1861.49	0.001899
1871.13	0.002219
1880.78	0.002929
1890.42	0.003079
1900.07	0.002419
1909.71	0.002499
1919.36	0.002699
1929	0.002459
1938.65	0.001839
1948.29	0.001399
1957.94	0.001369
1967.58	0.0010974
1977.23	0.0011122
1986.87	0.0011785
1996.52	0.0012861
2006.16	0.001499
2015.81	0.0011584
2025.45	0.0009325
2035.1	0.0009672
2044.74	0.0007837
2054.38	0.0007625
2064.03	0.0009
2073.67	0.0009495
2083.32	0.0008905
2092.96	0.0011247
2102.61	0.0009466
2112.25	0.0009037
2121.9	0.0009079
2131.54	0.0011073
2141.19	0.0011108
2150.83	0.0011186
2160.48	0.000956
2170.12	0.0009724
2179.77	0.0010106
2189.41	0.0008788
2199.06	0.0008378
2208.7	0.0008645
2218.35	0.0007136
2227.99	0.0009009
2237.64	0.0008928
2247.28	0.0008831
2256.92	0.0010702
2266.57	0.000979
2276.21	0.00105
2285.86	0.0011721
2295.5	0.001181
2305.15	0.001178
2314.79	0.0011614
2324.44	0.0010376
2334.08	0.0009701
2343.73	0.0008927
2353.37	0.0009327
2363.02	0.0009531
2372.66	0.0012725
2382.31	0.0012647
2391.95	0.0012489
2401.6	0.001509
2411.24	0.001449
2420.89	0.0012634
2430.53	0.0013143
2440.18	0.001379
2449.82	0.0012067
2459.47	0.0013221
2469.11	0.0013272
2478.75	0.0012786
2488.4	0.001369
2498.04	0.0010513
2507.69	0.0011445
2517.33	0.0012203
2526.98	0.001369
2536.62	0.001559
2546.27	0.001979
2555.91	0.002119
2565.56	0.002879
2575.2	0.002159
2584.85	0.001729
2594.49	0.001349
2604.14	0.0012253
2613.78	0.0012003
2623.43	0.0011538
2633.07	0.0011936
2642.72	0.0009612
2652.36	0.000996
2662.01	0.0011006
2671.65	0.0010087
2681.29	0.0010126
2690.94	0.0010278
2700.58	0.0009239
2710.23	0.001065
2719.87	0.0011037
2729.52	0.0010643
2739.16	0.0012369
2748.81	0.001659
2758.45	0.0012621
2768.1	0.0011126
2777.74	0.0011068
2787.39	0.0009704
2797.03	0.0012273
2806.68	0.0013
2816.32	0.001479
2825.97	0.001909
2835.61	0.002429
2845.26	0.002809
2854.9	0.003549
2864.55	0.004909
2874.19	0.006119
2883.84	0.005599
2893.48	0.005099
2903.12	0.005019
2912.77	0.005989
2922.41	0.008699
2932.06	0.014849
2941.7	0.018559
2951.35	0.014229
2960.99	0.013829
2970.64	0.014519
2980.28	0.016429
2989.93	0.014529
2999.57	0.009259
3009.22	0.006309
3018.86	0.005949
3028.51	0.007029
3038.15	0.008199
3047.8	0.007109
3057.44	0.007659
3067.09	0.008299
3076.73	0.007429
3086.38	0.006449
3096.02	0.005069
3105.67	0.003249
3115.31	0.002179
3124.95	0.001899
3134.6	0.001589
3144.24	0.0011272
3153.89	0.001322
3163.53	0.0011216
3173.18	0.0008639
3182.82	0.0007197
3192.47	0.0006023
3202.11	0.0006887
3211.76	0.00044362
3221.4	0.0004624
3231.05	0.0004997
3240.69	0.00051
3250.34	0.0006191
3259.98	0.0007109
3269.63	0.0004781
3279.27	0.0008118
3288.92	0.0004875
3298.56	0.0007341
3308.21	0.000571
3317.85	0.0005847
3327.49	0.0004856
3337.14	0.000747
3346.78	0.0011613
3356.43	0.0011453
3366.07	0.002019
3375.72	0.003219
3385.36	0.003049
3395.01	0.001899
3404.65	0.001509
3414.3	0.0011564
3423.94	0.0011351
3433.59	0.001003
3443.23	0.000634
3452.88	0.0007527
3462.52	0.000518
3472.17	0.00039046
3481.81	0.0004689
3491.46	0.0006391
3501.1	0.0004947
3510.75	0.000204
3520.39	0.0005994
3530.04	0.0007751
3539.68	0.0003122
3549.32	0.00040727
3558.97	0.00037726
3568.61	0.000166
3578.26	0.0003366
3587.9	3.8e-05
3597.55	0.0004656
3607.19	0.000181
3616.84	0.00034438
3626.48	0.00038424
3636.13	0.0003064
3645.77	0.0006496
3655.42	0.00037855
3665.06	0.000166
3674.71	0.0003857
3684.35	0.0003185
3694	0.000247
3703.64	0.000199
3713.29	0.0005112
3722.93	0.0004646
3732.58	0.000223
3742.22	0.0005169
3751.86	0.0005335
3761.51	0.0002757
3771.15	0.000163
3780.8	0.0004776
3790.44	0.0007717
3800.09	0.0005583
3809.73	0.0006685
3819.38	0.00038689
3829.02	0.0006102
3838.67	0.000181
3848.31	0.0002495
3857.96	0.0004817
3867.6	0.0003097
3877.25	0.0005094
3886.89	0.0002811
3896.54	0.00034266
3906.18	0.0005778
3915.83	0.000637
3925.47	0.0006013
3935.12	0.0008852
3944.76	0.0006836
3954.41	0.0004602
3964.05	0.0005053
3973.69	0.0006538
3983.34	0.0005798
3992.98	0.0005189
