Infrared Spectrum: 3,4-Dimethylbenzyl isothiocyanate
Formula: C 10 H 11 N S
CAS: 206559-59-3
State: gas
Origin: EPA-IR VAPOR PHASE LIBRARY
1/CM	ABSORBANCE
549.8	0.004369
559.445	0.004459
569.09	0.003559
578.734	0.003289
588.379	0.003109
598.024	0.003079
607.669	0.002559
617.313	0.002219
626.958	0.001949
636.603	0.001479
646.248	0.001389
655.893	0.001629
665.537	0.002579
675.182	0.003549
684.827	0.004869
694.472	0.005279
704.116	0.005539
713.761	0.007789
723.406	0.010589
733.051	0.009969
742.695	0.007789
752.34	0.006029
761.985	0.004509
771.63	0.003379
781.275	0.002929
790.919	0.003039
800.564	0.004029
810.209	0.004569
819.854	0.003849
829.498	0.002049
839.143	0.0011115
848.788	0.0008286
858.433	0.001379
868.078	0.001719
877.722	0.002409
887.367	0.001669
897.012	0.001509
906.657	0.001589
916.301	0.001439
925.946	0.001319
935.591	0.001699
945.236	0.001689
954.88	0.001379
964.525	0.001449
974.17	0.001449
983.815	0.001359
993.46	0.002299
1003.1	0.002629
1012.75	0.001979
1022.39	0.001689
1032.04	0.001649
1041.68	0.0011349
1051.33	0.001509
1060.97	0.001269
1070.62	0.001349
1080.26	0.001389
1089.91	0.0011681
1099.55	0.002079
1109.2	0.001909
1118.84	0.002549
1128.49	0.003239
1138.13	0.002559
1147.78	0.002179
1157.42	0.002399
1167.07	0.002549
1176.71	0.001729
1186.36	0.002289
1196	0.002469
1205.64	0.002119
1215.29	0.002049
1224.93	0.002689
1234.58	0.003429
1244.22	0.003469
1253.87	0.003049
1263.51	0.003469
1273.16	0.004349
1282.8	0.005219
1292.45	0.005629
1302.09	0.006349
1311.74	0.008549
1321.38	0.014809
1331.03	0.030699
1340.67	0.028619
1350.32	0.011149
1359.96	0.006569
1369.61	0.004859
1379.25	0.003949
1388.9	0.004289
1398.54	0.004409
1408.18	0.004719
1417.83	0.005099
1427.47	0.005609
1437.12	0.007069
1446.76	0.012219
1456.41	0.015579
1466.05	0.009169
1475.7	0.005989
1485.34	0.004709
1494.99	0.005379
1504.63	0.007189
1514.28	0.004639
1523.92	0.002479
1533.57	0.001889
1543.21	0.001729
1552.86	0.001769
1562.5	0.001689
1572.15	0.001749
1581.79	0.001899
1591.44	0.002009
1601.08	0.002029
1610.73	0.002059
1620.37	0.001839
1630.01	0.001389
1639.66	0.001087
1649.3	0.000924
1658.95	0.0009192
1668.59	0.0009651
1678.24	0.000862
1687.88	0.000903
1697.53	0.000845
1707.17	0.0007854
1716.82	0.0008062
1726.46	0.0010064
1736.11	0.0011138
1745.75	0.001359
1755.4	0.0012037
1765.04	0.0009391
1774.69	0.0009968
1784.33	0.0009739
1793.98	0.0009575
1803.62	0.0008551
1813.27	0.0009407
1822.91	0.0009951
1832.55	0.0010541
1842.2	0.0011865
1851.84	0.001459
1861.49	0.001689
1871.13	0.002009
1880.78	0.002389
1890.42	0.002779
1900.07	0.003149
1909.71	0.003709
1919.36	0.004609
1929	0.005469
1938.65	0.006839
1948.29	0.008619
1957.94	0.011339
1967.58	0.015329
1977.23	0.021049
1986.87	0.029179
1996.52	0.040349
2006.16	0.055099
2015.81	0.073439
2025.45	0.093409
2035.1	0.112149
2044.74	0.127879
2054.38	0.135389
2064.03	0.130489
2073.67	0.117989
2083.32	0.097039
2092.96	0.069979
2102.61	0.049099
2112.25	0.035479
2121.9	0.027019
2131.54	0.022279
2141.19	0.020389
2150.83	0.020339
2160.48	0.021079
2170.12	0.023049
2179.77	0.024599
2189.41	0.022869
2199.06	0.018649
2208.7	0.014289
2218.35	0.010819
2227.99	0.008309
2237.64	0.006439
2247.28	0.005149
2256.92	0.004119
2266.57	0.003389
2276.21	0.002829
2285.86	0.002399
2295.5	0.002089
2305.15	0.001959
2314.79	0.001679
2324.44	0.001529
2334.08	0.001339
2343.73	0.0011919
2353.37	0.0010756
2363.02	0.0009309
2372.66	0.0010314
2382.31	0.0008093
2391.95	0.0008591
2401.6	0.0008987
2411.24	0.0008462
2420.89	0.0007808
2430.53	0.0007202
2440.18	0.0007937
2449.82	0.0006977
2459.47	0.0008083
2469.11	0.0007819
2478.75	0.0007782
2488.4	0.0008309
2498.04	0.0008615
2507.69	0.0009628
2517.33	0.0008797
2526.98	0.0009219
2536.62	0.0008526
2546.27	0.0009236
2555.91	0.0009052
2565.56	0.0009586
2575.2	0.000926
2584.85	0.0009602
2594.49	0.0009163
2604.14	0.0008963
2613.78	0.0009164
2623.43	0.0009307
2633.07	0.0010176
2642.72	0.0010449
2652.36	0.0010491
2662.01	0.0009492
2671.65	0.0007559
2681.29	0.0007876
2690.94	0.0008899
2700.58	0.0011706
2710.23	0.0011742
2719.87	0.001459
2729.52	0.001489
2739.16	0.001969
2748.81	0.002069
2758.45	0.002009
2768.1	0.002159
2777.74	0.002259
2787.39	0.002059
2797.03	0.001989
2806.68	0.001819
2816.32	0.001979
2825.97	0.002009
2835.61	0.002279
2845.26	0.002739
2854.9	0.004029
2864.55	0.006429
2874.19	0.008489
2883.84	0.009039
2893.48	0.008609
2903.12	0.008049
2912.77	0.008459
2922.41	0.011779
2932.06	0.017049
2941.7	0.017299
2951.35	0.014369
2960.99	0.011989
2970.64	0.009669
2980.28	0.008799
2989.93	0.007459
2999.57	0.006599
3009.22	0.007589
3018.86	0.008739
3028.51	0.008179
3038.15	0.006799
3047.8	0.006639
3057.44	0.006309
3067.09	0.005609
3076.73	0.004259
3086.38	0.003009
3096.02	0.001879
3105.67	0.001499
3115.31	0.0011813
3124.95	0.0011261
3134.6	0.0009397
3144.24	0.0007592
3153.89	0.0005418
3163.53	0.000562
3173.18	0.0004094
3182.82	0.00032733
3192.47	0.0004331
3202.11	0.0003597
3211.76	0.000139
3221.4	0.0005007
3231.05	0.0003947
3240.69	0.000261687
3250.34	0.0002137
3259.98	0.0002179
3269.63	0.00028699
3279.27	0.00015
3288.92	0.0002473
3298.56	0.000261212
3308.21	0.00027949
3317.85	0.0002354
3327.49	0.0001635
3337.14	0.000133
3346.78	0.00028701
3356.43	0.00029878
3366.07	0.00032534
3375.72	0.000157
3385.36	8e-05
3395.01	0.000258862
3404.65	0.0003537
3414.3	0.00034044
3423.94	0.00035541
3433.59	0.0001855
3443.23	0.00029284
3452.88	3.6e-05
3462.52	0.000143
3472.17	0.00029389
3481.81	0.0004197
3491.46	0.00035614
3501.1	0.0002555
3510.75	0.00035892
3520.39	0.00028736
3530.04	0.00032738
3539.68	0.00025196
3549.32	0.0002078
3558.97	0.0001798
3568.61	0.00029198
3578.26	0.0003135
3587.9	0.0002199
3597.55	0.0003762
3607.19	0.0004357
3616.84	0.000143
3626.48	0.00035229
3636.13	0.000223
3645.77	0.00025114
3655.42	0.0001874
3665.06	0.0001983
3674.71	0.0002305
3684.35	0.0004258
3694	0.00027807
3703.64	0.0004508
3713.29	0.00029972
3722.93	0.000217
3732.58	0.00029222
3742.22	0.0003884
3751.86	0.00032884
3761.51	0.0004484
3771.15	0.00031575
3780.8	0.0003759
3790.44	0.0004103
3800.09	0.00035872
3809.73	0.000507
3819.38	0.0004674
3829.02	0.0003597
3838.67	0.000405
3848.31	0.0003108
3857.96	0.000161
3867.6	0.0004768
3877.25	0.000371
3886.89	0.0006753
3896.54	0.0006247
3906.18	0.0003976
3915.83	0.0006863
3925.47	0.0005493
3935.12	0.0005039
3944.76	0.0007664
3954.41	0.0005829
3964.05	0.0005709
3973.69	0.000688
3983.34	0.0008528
3992.98	0.0007594
