Infrared Spectrum: 4-Decylphenyl isothiocyanate
Formula: C 17 H 25 N S
CAS: 206559-54-8
State: gas
Origin: EPA-IR VAPOR PHASE LIBRARY
1/CM	ABSORBANCE
549.8	0.027537
559.445	0.021417
569.09	0.015207
578.734	0.011067
588.379	0.008807
598.024	0.006937
607.669	0.007167
617.313	0.006727
626.958	0.006187
636.603	0.005267
646.248	0.004407
655.893	0.003977
665.537	0.003767
675.182	0.003487
684.827	0.003617
694.472	0.004427
704.116	0.006077
713.761	0.009137
723.406	0.009527
733.051	0.008647
742.695	0.008457
752.34	0.009347
761.985	0.011557
771.63	0.014647
781.275	0.017197
790.919	0.022647
800.564	0.028887
810.209	0.038007
819.854	0.044097
829.498	0.045787
839.143	0.039717
848.788	0.024627
858.433	0.014947
868.078	0.010367
877.722	0.008727
887.367	0.010117
897.012	0.014877
906.657	0.020837
916.301	0.025127
925.946	0.033657
935.591	0.048367
945.236	0.048097
954.88	0.029277
964.525	0.016717
974.17	0.010237
983.815	0.007047
993.46	0.005367
1003.1	0.004277
1012.75	0.006987
1022.39	0.008037
1032.04	0.003437
1041.68	0.003797
1051.33	0.004097
1060.97	0.003837
1070.62	0.004197
1080.26	0.004357
1089.91	0.006737
1099.55	0.007777
1109.2	0.008487
1118.84	0.008907
1128.49	0.004727
1138.13	0.002837
1147.78	0.002427
1157.42	0.002987
1167.07	0.003377
1176.71	0.004917
1186.36	0.005347
1196	0.009467
1205.64	0.008117
1215.29	0.005797
1224.93	0.007447
1234.58	0.010937
1244.22	0.022007
1253.87	0.023117
1263.51	0.014587
1273.16	0.012347
1282.8	0.012067
1292.45	0.012337
1302.09	0.013117
1311.74	0.013417
1321.38	0.012127
1331.03	0.013347
1340.67	0.016707
1350.32	0.019457
1359.96	0.017457
1369.61	0.014427
1379.25	0.011787
1388.9	0.009887
1398.54	0.008077
1408.18	0.008747
1417.83	0.010107
1427.47	0.011427
1437.12	0.017527
1446.76	0.031457
1456.41	0.041667
1466.05	0.040947
1475.7	0.028057
1485.34	0.026967
1494.99	0.063787
1504.63	0.185337
1514.28	0.056537
1523.92	0.015917
1533.57	0.010877
1543.21	0.010177
1552.86	0.010257
1562.5	0.011917
1572.15	0.013377
1581.79	0.013297
1591.44	0.015887
1601.08	0.025787
1610.73	0.026247
1620.37	0.011967
1630.01	0.008027
1639.66	0.006887
1649.3	0.005927
1658.95	0.005287
1668.59	0.004447
1678.24	0.003887
1687.88	0.003547
1697.53	0.003197
1707.17	0.003197
1716.82	0.003417
1726.46	0.003567
1736.11	0.003837
1745.75	0.004117
1755.4	0.004647
1765.04	0.005857
1774.69	0.006257
1784.33	0.005007
1793.98	0.005097
1803.62	0.005307
1813.27	0.005427
1822.91	0.005717
1832.55	0.006447
1842.2	0.007917
1851.84	0.009717
1861.49	0.011597
1871.13	0.013377
1880.78	0.016067
1890.42	0.019287
1900.07	0.019297
1909.71	0.020957
1919.36	0.024797
1929	0.031557
1938.65	0.042607
1948.29	0.058787
1957.94	0.080897
1967.58	0.109377
1977.23	0.146387
1986.87	0.194527
1996.52	0.256987
2006.16	0.337107
2015.81	0.435887
2025.45	0.550867
2035.1	0.667827
2044.74	0.737857
2054.38	0.671567
2064.03	0.501617
2073.67	0.396357
2083.32	0.390327
2092.96	0.440337
2102.61	0.450727
2112.25	0.360107
2121.9	0.253997
2131.54	0.186167
2141.19	0.155357
2150.83	0.140777
2160.48	0.122807
2170.12	0.100507
2179.77	0.083537
2189.41	0.071267
2199.06	0.054887
2208.7	0.037877
2218.35	0.026527
2227.99	0.019267
2237.64	0.014417
2247.28	0.010877
2256.92	0.008547
2266.57	0.007367
2276.21	0.006127
2285.86	0.005057
2295.5	0.004547
2305.15	0.003857
2314.79	0.003557
2324.44	0.003477
2334.08	0.003387
2343.73	0.003437
2353.37	0.003517
2363.02	0.003687
2372.66	0.004077
2382.31	0.004617
2391.95	0.005187
2401.6	0.005677
2411.24	0.006037
2420.89	0.006377
2430.53	0.005877
2440.18	0.005587
2449.82	0.005407
2459.47	0.005587
2469.11	0.006057
2478.75	0.006697
2488.4	0.007317
2498.04	0.007457
2507.69	0.006937
2517.33	0.006827
2526.98	0.007197
2536.62	0.007577
2546.27	0.008047
2555.91	0.008637
2565.56	0.008957
2575.2	0.009207
2584.85	0.008927
2594.49	0.007997
2604.14	0.007037
2613.78	0.006347
2623.43	0.006287
2633.07	0.006907
2642.72	0.007437
2652.36	0.008367
2662.01	0.009047
2671.65	0.010107
2681.29	0.011107
2690.94	0.011537
2700.58	0.011567
2710.23	0.011167
2719.87	0.010627
2729.52	0.009907
2739.16	0.009257
2748.81	0.008877
2758.45	0.008517
2768.1	0.008517
2777.74	0.009247
2787.39	0.010637
2797.03	0.012307
2806.68	0.014647
2816.32	0.017967
2825.97	0.023177
2835.61	0.031907
2845.26	0.053097
2854.9	0.116837
2864.55	0.183237
2874.19	0.134137
2883.84	0.101567
2893.48	0.092867
2903.12	0.118277
2912.77	0.180227
2922.41	0.307417
2932.06	0.486717
2941.7	0.400477
2951.35	0.211477
2960.99	0.149877
2970.64	0.132087
2980.28	0.072757
2989.93	0.044127
2999.57	0.032107
3009.22	0.025407
3018.86	0.023207
3028.51	0.030787
3038.15	0.038867
3047.8	0.023067
3057.44	0.015697
3067.09	0.013547
3076.73	0.012737
3086.38	0.013007
3096.02	0.011007
3105.67	0.008477
3115.31	0.007487
3124.95	0.005657
3134.6	0.003557
3144.24	0.002847
3153.89	0.002497
3163.53	0.002157
3173.18	0.002027
3182.82	0.001637
3192.47	0.001427
3202.11	0.001317
3211.76	0.0009845
3221.4	0.0007499
3231.05	0.0007936
3240.69	0.0007273
3250.34	0.0006209
3259.98	0.0003717
3269.63	0.0004298
3279.27	0.00027371
3288.92	0.0003298
3298.56	0.00027384
3308.21	0.0002002
3317.85	0.000421
3327.49	0.0004361
3337.14	0.000586
3346.78	0.0004196
3356.43	0.00032489
3366.07	0.0003887
3375.72	0.00032494
3385.36	0.00028343
3395.01	0.00029942
3404.65	0.0001734
3414.3	0.00028777
3423.94	0.0001564
3433.59	0.0002146
3443.23	0.0003883
3452.88	0.0001915
3462.52	0.00028611
3472.17	0.0003342
3481.81	0.00022026
3491.46	0.000107
3501.1	0.000142
3510.75	8e-05
3520.39	0
3530.04	7.7e-05
3539.68	0.0001564
3549.32	0.0002183
3558.97	0.0003299
3568.61	0.0002105
3578.26	0.0002135
3587.9	0.0003534
3597.55	0.0005
3607.19	0.000492
3616.84	0.0006546
3626.48	0.0009458
3636.13	0.0007129
3645.77	0.0007159
3655.42	0.0007993
3665.06	0.0010089
3674.71	0.0010051
3684.35	0.0008535
3694	0.0007503
3703.64	0.0009829
3713.29	0.0009498
3722.93	0.0009771
3732.58	0.0009187
3742.22	0.0011325
3751.86	0.0009463
3761.51	0.0010223
3771.15	0.0009708
3780.8	0.0008854
3790.44	0.0011247
3800.09	0.0009944
3809.73	0.0010906
3819.38	0.0009466
3829.02	0.001287
3838.67	0.001227
3848.31	0.001357
3857.96	0.001417
3867.6	0.001357
3877.25	0.001597
3886.89	0.001507
3896.54	0.001637
3906.18	0.001947
3915.83	0.001787
3925.47	0.001987
3935.12	0.002247
3944.76	0.002197
3954.41	0.002387
3964.05	0.002707
3973.69	0.002837
3983.34	0.003107
3992.98	0.003277
