Infrared Spectrum: 3-Heptyl isothiocyanate
Formula: C 8 H 15 N S
CAS: 206761-66-2
State: gas
Origin: EPA-IR VAPOR PHASE LIBRARY
1/CM	ABSORBANCE
549.8	0.012453
559.445	0.010803
569.09	0.008573
578.734	0.006503
588.379	0.005413
598.024	0.004323
607.669	0.003783
617.313	0.003073
626.958	0.002793
636.603	0.002853
646.248	0.002673
655.893	0.002693
665.537	0.002983
675.182	0.003273
684.827	0.003563
694.472	0.002773
704.116	0.002413
713.761	0.002083
723.406	0.003063
733.051	0.004493
742.695	0.004703
752.34	0.004263
761.985	0.003743
771.63	0.003613
781.275	0.004813
790.919	0.006183
800.564	0.008853
810.209	0.011673
819.854	0.011163
829.498	0.008653
839.143	0.006803
848.788	0.005693
858.433	0.005013
868.078	0.004183
877.722	0.004173
887.367	0.004183
897.012	0.004863
906.657	0.006033
916.301	0.006593
925.946	0.008493
935.591	0.008923
945.236	0.007523
954.88	0.006213
964.525	0.004853
974.17	0.003923
983.815	0.003693
993.46	0.003743
1003.1	0.004283
1012.75	0.003433
1022.39	0.003383
1032.04	0.003743
1041.68	0.003733
1051.33	0.003763
1060.97	0.003653
1070.62	0.003723
1080.26	0.003913
1089.91	0.003953
1099.55	0.004753
1109.2	0.006353
1118.84	0.007203
1128.49	0.007433
1138.13	0.007983
1147.78	0.006873
1157.42	0.005013
1167.07	0.003183
1176.71	0.003283
1186.36	0.002933
1196	0.003313
1205.64	0.003563
1215.29	0.003903
1224.93	0.004003
1234.58	0.004173
1244.22	0.004903
1253.87	0.006003
1263.51	0.007443
1273.16	0.008423
1282.8	0.009913
1292.45	0.013863
1302.09	0.018453
1311.74	0.022553
1321.38	0.027043
1331.03	0.037223
1340.67	0.052553
1350.32	0.053663
1359.96	0.033933
1369.61	0.019003
1379.25	0.014863
1388.9	0.014393
1398.54	0.009283
1408.18	0.005663
1417.83	0.004943
1427.47	0.005393
1437.12	0.007923
1446.76	0.012383
1456.41	0.018013
1466.05	0.020113
1475.7	0.013893
1485.34	0.006893
1494.99	0.004263
1504.63	0.003223
1514.28	0.002593
1523.92	0.002283
1533.57	0.002063
1543.21	0.002053
1552.86	0.001793
1562.5	0.001813
1572.15	0.001653
1581.79	0.001683
1591.44	0.001603
1601.08	0.001473
1610.73	0.001483
1620.37	0.001353
1630.01	0.001283
1639.66	0.001263
1649.3	0.001243
1658.95	0.001273
1668.59	0.001243
1678.24	0.001223
1687.88	0.0011527
1697.53	0.001203
1707.17	0.0011516
1716.82	0.0011356
1726.46	0.0011447
1736.11	0.0011116
1745.75	0.001064
1755.4	0.0011012
1765.04	0.0010941
1774.69	0.001163
1784.33	0.001273
1793.98	0.001313
1803.62	0.001373
1813.27	0.001533
1822.91	0.001673
1832.55	0.001813
1842.2	0.001963
1851.84	0.002283
1861.49	0.002683
1871.13	0.003173
1880.78	0.003853
1890.42	0.004913
1900.07	0.006293
1909.71	0.008223
1919.36	0.010803
1929	0.014153
1938.65	0.018573
1948.29	0.024323
1957.94	0.031673
1967.58	0.041553
1977.23	0.054433
1986.87	0.071703
1996.52	0.094693
2006.16	0.125533
2015.81	0.165863
2025.45	0.214573
2035.1	0.264303
2044.74	0.301423
2054.38	0.317623
2064.03	0.312363
2073.67	0.284423
2083.32	0.242403
2092.96	0.201173
2102.61	0.167603
2112.25	0.142533
2121.9	0.124513
2131.54	0.109083
2141.19	0.094403
2150.83	0.081393
2160.48	0.069933
2170.12	0.058943
2179.77	0.048833
2189.41	0.039433
2199.06	0.030803
2208.7	0.023423
2218.35	0.017793
2227.99	0.013543
2237.64	0.010573
2247.28	0.008593
2256.92	0.007293
2266.57	0.006093
2276.21	0.005083
2285.86	0.004143
2295.5	0.003283
2305.15	0.002673
2314.79	0.002363
2324.44	0.002013
2334.08	0.001913
2343.73	0.001763
2353.37	0.001623
2363.02	0.001683
2372.66	0.001563
2382.31	0.001603
2391.95	0.001533
2401.6	0.001503
2411.24	0.001473
2420.89	0.001523
2430.53	0.001443
2440.18	0.001403
2449.82	0.001413
2459.47	0.001393
2469.11	0.001313
2478.75	0.001443
2488.4	0.001553
2498.04	0.001563
2507.69	0.001553
2517.33	0.001613
2526.98	0.001723
2536.62	0.001823
2546.27	0.001863
2555.91	0.002213
2565.56	0.002263
2575.2	0.002443
2584.85	0.002603
2594.49	0.002523
2604.14	0.002523
2613.78	0.002393
2623.43	0.002383
2633.07	0.002383
2642.72	0.002603
2652.36	0.002613
2662.01	0.003083
2671.65	0.003483
2681.29	0.003743
2690.94	0.004093
2700.58	0.004393
2710.23	0.004613
2719.87	0.004583
2729.52	0.004833
2739.16	0.005073
2748.81	0.004933
2758.45	0.004593
2768.1	0.004373
2777.74	0.004133
2787.39	0.004253
2797.03	0.004833
2806.68	0.005093
2816.32	0.005813
2825.97	0.006743
2835.61	0.008693
2845.26	0.012413
2854.9	0.020453
2864.55	0.034243
2874.19	0.044223
2883.84	0.049813
2893.48	0.049413
2903.12	0.046643
2912.77	0.050333
2922.41	0.065943
2932.06	0.098543
2941.7	0.136063
2951.35	0.122803
2960.99	0.094923
2970.64	0.111103
2980.28	0.092143
2989.93	0.045743
2999.57	0.020403
3009.22	0.012873
3018.86	0.009503
3028.51	0.007483
3038.15	0.006203
3047.8	0.005183
3057.44	0.004493
3067.09	0.004013
3076.73	0.003743
3086.38	0.003563
3096.02	0.003083
3105.67	0.002883
3115.31	0.002403
3124.95	0.002213
3134.6	0.002003
3144.24	0.001703
3153.89	0.001633
3163.53	0.001513
3173.18	0.001343
3182.82	0.001333
3192.47	0.001393
3202.11	0.001203
3211.76	0.0007176
3221.4	0.000661
3231.05	0.0006196
3240.69	0.0004225
3250.34	0.0004366
3259.98	0.0001027
3269.63	0.0002855
3279.27	0.0003199
3288.92	0.000160669
3298.56	0.0003505
3308.21	0.0003621
3317.85	7.36e-05
3327.49	0.0003749
3337.14	0.00017278
3346.78	0.0003562
3356.43	0.0002835
3366.07	0.0003577
3375.72	0.0003927
3385.36	0.0002796
3395.01	0.0003249
3404.65	0.00025082
3414.3	0.0003073
3423.94	0.0003758
3433.59	0.00017288
3443.23	0.0003348
3452.88	0.0003603
3462.52	0.0004205
3472.17	0.0003842
3481.81	0.0003293
3491.46	0.0003722
3501.1	0.00016824
3510.75	0.0003454
3520.39	0.0002649
3530.04	0.0004226
3539.68	0.00023282
3549.32	0.0001004
3558.97	8.41e-05
3568.61	0.0002745
3578.26	0.00024542
3587.9	9.58e-05
3597.55	0.0002945
3607.19	0.0004383
3616.84	0.0004861
3626.48	0.00022237
3636.13	0.0002967
3645.77	0.0002592
3655.42	0.0004712
3665.06	0.0005132
3674.71	0.0005752
3684.35	0.0004103
3694	0.0006223
3703.64	0.000603
3713.29	0.000583
3722.93	0.000731
3732.58	0.0005118
3742.22	0.0006228
3751.86	0.0006766
3761.51	0.0006587
3771.15	0.0006165
3780.8	0.0005907
3790.44	0.0004393
3800.09	0.0003732
3809.73	0.0005583
3819.38	0.000788
3829.02	0.0006399
3838.67	0.0007547
3848.31	0.0007694
3857.96	0.0006605
3867.6	0.0007138
3877.25	0.0007434
3886.89	0.0007871
3896.54	0.0009152
3906.18	0.0008581
3915.83	0.0008919
3925.47	0.0010283
3935.12	0.0010896
3944.76	0.0010123
3954.41	0.001293
3964.05	0.001203
3973.69	0.001433
3983.34	0.001573
3992.98	0.001893
