Infrared Spectrum: 3-Methylhexyl isothiocyanate
Formula: C 8 H 15 N S
CAS: 206761-72-0
State: gas
Origin: EPA-IR VAPOR PHASE LIBRARY
1/CM	ABSORBANCE
549.8	0.007864
559.445	0.008064
569.09	0.006804
578.734	0.006184
588.379	0.005554
598.024	0.004204
607.669	0.003554
617.313	0.002314
626.958	0.002184
636.603	0.002304
646.248	0.002804
655.893	0.003444
665.537	0.003264
675.182	0.003114
684.827	0.003484
694.472	0.004704
704.116	0.005374
713.761	0.004534
723.406	0.003054
733.051	0.002114
742.695	0.001734
752.34	0.001494
761.985	0.001244
771.63	0.001504
781.275	0.001364
790.919	0.001109
800.564	0.0010746
810.209	0.0012311
819.854	0.0010589
829.498	0.0010807
839.143	0.001244
848.788	0.002214
858.433	0.002654
868.078	0.002434
877.722	0.002264
887.367	0.002434
897.012	0.002574
906.657	0.002784
916.301	0.003284
925.946	0.003314
935.591	0.003034
945.236	0.003124
954.88	0.002744
964.525	0.002634
974.17	0.002424
983.815	0.002764
993.46	0.002364
1003.1	0.002214
1012.75	0.002334
1022.39	0.002364
1032.04	0.002594
1041.68	0.002634
1051.33	0.002614
1060.97	0.002924
1070.62	0.002924
1080.26	0.003194
1089.91	0.003314
1099.55	0.003794
1109.2	0.003974
1118.84	0.004734
1128.49	0.005374
1138.13	0.005164
1147.78	0.005424
1157.42	0.005454
1167.07	0.003644
1176.71	0.002694
1186.36	0.002584
1196	0.002964
1205.64	0.002974
1215.29	0.003274
1224.93	0.003094
1234.58	0.004074
1244.22	0.004414
1253.87	0.004744
1263.51	0.004814
1273.16	0.005664
1282.8	0.005794
1292.45	0.006584
1302.09	0.008024
1311.74	0.010574
1321.38	0.015834
1331.03	0.024924
1340.67	0.033284
1350.32	0.036774
1359.96	0.032534
1369.61	0.026434
1379.25	0.020584
1388.9	0.015084
1398.54	0.008234
1408.18	0.005044
1417.83	0.004714
1427.47	0.006074
1437.12	0.010114
1446.76	0.017664
1456.41	0.028534
1466.05	0.031184
1475.7	0.017734
1485.34	0.008104
1494.99	0.004444
1504.63	0.002814
1514.28	0.002024
1523.92	0.001764
1533.57	0.001464
1543.21	0.001354
1552.86	0.0011745
1562.5	0.0011029
1572.15	0.0009359
1581.79	0.0008777
1591.44	0.0008399
1601.08	0.0008249
1610.73	0.0009317
1620.37	0.0008275
1630.01	0.0007201
1639.66	0.0007498
1649.3	0.0007188
1658.95	0.0007497
1668.59	0.0007666
1678.24	0.0007823
1687.88	0.0006012
1697.53	0.0007097
1707.17	0.0006366
1716.82	0.0005658
1726.46	0.000621
1736.11	0.0006545
1745.75	0.0006549
1755.4	0.000719
1765.04	0.0007226
1774.69	0.0007617
1784.33	0.0008248
1793.98	0.0008354
1803.62	0.0008643
1813.27	0.000917
1822.91	0.001007
1832.55	0.0011085
1842.2	0.001304
1851.84	0.001564
1861.49	0.001834
1871.13	0.002344
1880.78	0.002884
1890.42	0.003594
1900.07	0.004574
1909.71	0.005754
1919.36	0.007334
1929	0.009264
1938.65	0.011844
1948.29	0.015234
1957.94	0.019484
1967.58	0.025144
1977.23	0.032744
1986.87	0.043374
1996.52	0.058104
2006.16	0.078964
2015.81	0.107984
2025.45	0.147604
2035.1	0.197894
2044.74	0.250094
2054.38	0.284904
2064.03	0.284134
2073.67	0.250924
2083.32	0.203494
2092.96	0.158044
2102.61	0.124254
2112.25	0.101294
2121.9	0.082644
2131.54	0.067464
2141.19	0.057074
2150.83	0.050584
2160.48	0.046924
2170.12	0.045604
2179.77	0.045394
2189.41	0.043464
2199.06	0.038114
2208.7	0.031314
2218.35	0.025004
2227.99	0.019414
2237.64	0.014754
2247.28	0.011274
2256.92	0.008604
2266.57	0.006824
2276.21	0.005454
2285.86	0.004534
2295.5	0.003774
2305.15	0.003274
2314.79	0.002794
2324.44	0.002374
2334.08	0.002184
2343.73	0.001954
2353.37	0.001704
2363.02	0.001584
2372.66	0.001374
2382.31	0.001274
2391.95	0.0011258
2401.6	0.0010463
2411.24	0.0010843
2420.89	0.0009956
2430.53	0.0010187
2440.18	0.0009648
2449.82	0.0009342
2459.47	0.0009984
2469.11	0.0010021
2478.75	0.0010075
2488.4	0.0010391
2498.04	0.0011013
2507.69	0.0012265
2517.33	0.0011818
2526.98	0.001254
2536.62	0.001314
2546.27	0.001384
2555.91	0.001514
2565.56	0.001654
2575.2	0.001754
2584.85	0.001724
2594.49	0.001664
2604.14	0.001694
2613.78	0.001644
2623.43	0.001604
2633.07	0.001604
2642.72	0.001484
2652.36	0.001674
2662.01	0.001774
2671.65	0.002254
2681.29	0.002504
2690.94	0.002884
2700.58	0.003344
2710.23	0.004004
2719.87	0.004874
2729.52	0.005714
2739.16	0.006174
2748.81	0.006064
2758.45	0.005434
2768.1	0.004824
2777.74	0.004514
2787.39	0.004494
2797.03	0.004764
2806.68	0.005224
2816.32	0.005714
2825.97	0.006984
2835.61	0.008934
2845.26	0.013884
2854.9	0.021524
2864.55	0.027574
2874.19	0.038904
2883.84	0.049964
2893.48	0.046894
2903.12	0.046704
2912.77	0.057724
2922.41	0.070494
2932.06	0.082684
2941.7	0.088344
2951.35	0.088804
2960.99	0.104484
2970.64	0.106994
2980.28	0.060074
2989.93	0.024434
2999.57	0.012964
3009.22	0.008504
3018.86	0.006384
3028.51	0.005134
3038.15	0.004244
3047.8	0.003464
3057.44	0.003044
3067.09	0.002744
3076.73	0.002544
3086.38	0.002244
3096.02	0.002244
3105.67	0.001914
3115.31	0.001834
3124.95	0.001564
3134.6	0.001504
3144.24	0.001344
3153.89	0.001424
3163.53	0.001264
3173.18	0.001344
3182.82	0.001019
3192.47	0.0008824
3202.11	0.0008384
3211.76	0.0008112
3221.4	0.0005935
3231.05	0.0003719
3240.69	0.00022639
3250.34	0.00022466
3259.98	0.00024534
3269.63	0.00024637
3279.27	0.00032213
3288.92	0.0003808
3298.56	0.00025265
3308.21	0.00026879
3317.85	0.00027592
3327.49	0.0003248
3337.14	0.00030218
3346.78	0.00025328
3356.43	0.0003637
3366.07	0.00029843
3375.72	0.00029528
3385.36	0.0003779
3395.01	0.00030553
3404.65	0.0004003
3414.3	0.0005421
3423.94	0.00028039
3433.59	0.0003441
3443.23	0.0004701
3452.88	0.0003876
3462.52	9.2e-05
3472.17	0.000240287
3481.81	0.00027634
3491.46	0.0002189
3501.1	4.9e-05
3510.75	0.0001675
3520.39	0.00022656
3530.04	0.0002875
3539.68	0.00028407
3549.32	0.000124
3558.97	0.0002173
3568.61	9e-05
3578.26	0.0002017
3587.9	0.0004592
3597.55	0.0002056
3607.19	0.0002128
3616.84	0.00028716
3626.48	0.0003965
3636.13	0.00031986
3645.77	0.0005192
3655.42	0.00032222
3665.06	0.00031143
3674.71	0.000208
3684.35	0.00022781
3694	0.0004269
3703.64	0.0001627
3713.29	0.000387
3722.93	0.00031833
3732.58	0.00032653
3742.22	0.0005762
3751.86	0.0004845
3761.51	0.0005002
3771.15	0.0005122
3780.8	0.00031038
3790.44	0.0005401
3800.09	0.0005229
3809.73	0.0005626
3819.38	0.0004229
3829.02	0.0004346
3838.67	0.0006449
3848.31	0.0005798
3857.96	0.0005319
3867.6	0.0005736
3877.25	0.0007205
3886.89	0.0007509
3896.54	0.0005417
3906.18	0.0005595
3915.83	0.0007191
3925.47	0.0006516
3935.12	0.0007273
3944.76	0.000914
3954.41	0.0007972
3964.05	0.0009805
3973.69	0.0010133
3983.34	0.0009723
3992.98	0.001264
