Infrared Spectrum: Ethyl 3-isothiocyanatobutyrate
Formula: C 7 H 11 N O 2 S
CAS: 206750-29-0
State: gas
Origin: EPA-IR VAPOR PHASE LIBRARY
1/CM	ABSORBANCE
549.8	0.012462
559.445	0.010362
569.09	0.007422
578.734	0.005602
588.379	0.003892
598.024	0.003672
607.669	0.003132
617.313	0.002842
626.958	0.002842
636.603	0.003072
646.248	0.003122
655.893	0.003902
665.537	0.004002
675.182	0.003022
684.827	0.001652
694.472	0.0011626
704.116	0.0008005
713.761	0.0010307
723.406	0.0010023
733.051	0.0010663
742.695	0.001492
752.34	0.001372
761.985	0.0012942
771.63	0.001332
781.275	0.001612
790.919	0.001702
800.564	0.001642
810.209	0.001782
819.854	0.001922
829.498	0.002522
839.143	0.003872
848.788	0.006152
858.433	0.006072
868.078	0.003752
877.722	0.003032
887.367	0.002682
897.012	0.003752
906.657	0.004542
916.301	0.006332
925.946	0.007422
935.591	0.007582
945.236	0.006072
954.88	0.004502
964.525	0.004162
974.17	0.004962
983.815	0.007772
993.46	0.011942
1003.1	0.013362
1012.75	0.016262
1022.39	0.028152
1032.04	0.034882
1041.68	0.024792
1051.33	0.017342
1060.97	0.017532
1070.62	0.021002
1080.26	0.025502
1089.91	0.028842
1099.55	0.029952
1109.2	0.026392
1118.84	0.023802
1128.49	0.028002
1138.13	0.033922
1147.78	0.034082
1157.42	0.042862
1167.07	0.067132
1176.71	0.098532
1186.36	0.100822
1196	0.071492
1205.64	0.050072
1215.29	0.038672
1224.93	0.037442
1234.58	0.041722
1244.22	0.046422
1253.87	0.042532
1263.51	0.031502
1273.16	0.027052
1282.8	0.033442
1292.45	0.040592
1302.09	0.037092
1311.74	0.031492
1321.38	0.033372
1331.03	0.046552
1340.67	0.059062
1350.32	0.060382
1359.96	0.042102
1369.61	0.039902
1379.25	0.040482
1388.9	0.026272
1398.54	0.017402
1408.18	0.012352
1417.83	0.011752
1427.47	0.012552
1437.12	0.011402
1446.76	0.011262
1456.41	0.011842
1466.05	0.011432
1475.7	0.009332
1485.34	0.006022
1494.99	0.003842
1504.63	0.002822
1514.28	0.002352
1523.92	0.002142
1533.57	0.001912
1543.21	0.001892
1552.86	0.001712
1562.5	0.001712
1572.15	0.001802
1581.79	0.001712
1591.44	0.001822
1601.08	0.001812
1610.73	0.001792
1620.37	0.001732
1630.01	0.001792
1639.66	0.001882
1649.3	0.002002
1658.95	0.002322
1668.59	0.002652
1678.24	0.003152
1687.88	0.003962
1697.53	0.005512
1707.17	0.008242
1716.82	0.012952
1726.46	0.021532
1736.11	0.043332
1745.75	0.088182
1755.4	0.120022
1765.04	0.085462
1774.69	0.037402
1784.33	0.016932
1793.98	0.009242
1803.62	0.005932
1813.27	0.004312
1822.91	0.003572
1832.55	0.003182
1842.2	0.003102
1851.84	0.003252
1861.49	0.003622
1871.13	0.004032
1880.78	0.004672
1890.42	0.005502
1900.07	0.006652
1909.71	0.008372
1919.36	0.010792
1929	0.013862
1938.65	0.017772
1948.29	0.023072
1957.94	0.030432
1967.58	0.040232
1977.23	0.052682
1986.87	0.067132
1996.52	0.084702
2006.16	0.108592
2015.81	0.142002
2025.45	0.184652
2035.1	0.226262
2044.74	0.244302
2054.38	0.224092
2064.03	0.180862
2073.67	0.143532
2083.32	0.117912
2092.96	0.098742
2102.61	0.084912
2112.25	0.073622
2121.9	0.064702
2131.54	0.059302
2141.19	0.053752
2150.83	0.045912
2160.48	0.037262
2170.12	0.029272
2179.77	0.023042
2189.41	0.018242
2199.06	0.014992
2208.7	0.012752
2218.35	0.011492
2227.99	0.010182
2237.64	0.008592
2247.28	0.006872
2256.92	0.005382
2266.57	0.004352
2276.21	0.003642
2285.86	0.003122
2295.5	0.002722
2305.15	0.002402
2314.79	0.002112
2324.44	0.001912
2334.08	0.001852
2343.73	0.001682
2353.37	0.001552
2363.02	0.001422
2372.66	0.001352
2382.31	0.0012984
2391.95	0.0011703
2401.6	0.0010941
2411.24	0.0010508
2420.89	0.0010635
2430.53	0.0010682
2440.18	0.0009747
2449.82	0.0009918
2459.47	0.0010332
2469.11	0.001127
2478.75	0.0010421
2488.4	0.001111
2498.04	0.0010578
2507.69	0.0010568
2517.33	0.0010502
2526.98	0.0010462
2536.62	0.0011648
2546.27	0.0012716
2555.91	0.001342
2565.56	0.001432
2575.2	0.001352
2584.85	0.001362
2594.49	0.0011734
2604.14	0.0010376
2613.78	0.0010949
2623.43	0.0012196
2633.07	0.0012133
2642.72	0.001352
2652.36	0.001392
2662.01	0.001712
2671.65	0.001772
2681.29	0.002072
2690.94	0.002562
2700.58	0.002902
2710.23	0.003492
2719.87	0.003562
2729.52	0.003562
2739.16	0.003222
2748.81	0.002782
2758.45	0.002382
2768.1	0.002172
2777.74	0.002032
2787.39	0.002052
2797.03	0.001682
2806.68	0.001622
2816.32	0.001722
2825.97	0.002002
2835.61	0.002022
2845.26	0.002182
2854.9	0.002412
2864.55	0.003282
2874.19	0.004892
2883.84	0.007152
2893.48	0.007962
2903.12	0.008312
2912.77	0.010462
2922.41	0.012632
2932.06	0.016802
2941.7	0.023862
2951.35	0.022002
2960.99	0.017302
2970.64	0.020952
2980.28	0.035952
2989.93	0.047622
2999.57	0.032002
3009.22	0.016222
3018.86	0.009132
3028.51	0.005632
3038.15	0.003722
3047.8	0.002712
3057.44	0.002012
3067.09	0.001552
3076.73	0.001502
3086.38	0.0012268
3096.02	0.0012345
3105.67	0.001322
3115.31	0.0010175
3124.95	0.0011182
3134.6	0.0010206
3144.24	0.0009223
3153.89	0.0007843
3163.53	0.0006901
3173.18	0.0008564
3182.82	0.0005259
3192.47	0.0007877
3202.11	0.0005748
3211.76	0.0006226
3221.4	0.0006249
3231.05	0.0004634
3240.69	0.00033816
3250.34	0.0002306
3259.98	0.000174
3269.63	0.0002676
3279.27	2.2e-05
3288.92	0.00031304
3298.56	0.000181
3308.21	0.000124
3317.85	0.000188
3327.49	0.000201
3337.14	0.000144
3346.78	0.0003079
3356.43	0.0003011
3366.07	0.000199
3375.72	0.00033656
3385.36	0.000331098
3395.01	0.0003654
3404.65	0.0004225
3414.3	0.00039231
3423.94	0.000129
3433.59	0.0004795
3443.23	0.0005902
3452.88	0.000442
3462.52	0.0006017
3472.17	0.0009565
3481.81	0.0012887
3491.46	0.001442
3501.1	0.0010562
3510.75	0.0009656
3520.39	0.0007568
3530.04	0.0005908
3539.68	0.0004842
3549.32	0.000321272
3558.97	0.0002593
3568.61	0.0002856
3578.26	0.0002398
3587.9	0.0002867
3597.55	0.0002937
3607.19	0.00031925
3616.84	0.0002452
3626.48	0.000285
3636.13	0.00040886
3645.77	0.0002618
3655.42	0.00038372
3665.06	0.0002696
3674.71	0.00038702
3684.35	0.0002762
3694	0.000185
3703.64	0.0002528
3713.29	0.00035487
3722.93	0.00040138
3732.58	0.00040866
3742.22	0.00036424
3751.86	0.0005385
3761.51	0.00021
3771.15	0.000183
3780.8	0.00041493
3790.44	0.0007068
3800.09	0.0002734
3809.73	0.00039697
3819.38	0.0005221
3829.02	0.0004281
3838.67	0.0005793
3848.31	0.0004731
3857.96	0.000513
3867.6	0.0007447
3877.25	0.0004886
3886.89	0.0004659
3896.54	0.0005205
3906.18	0.0007089
3915.83	0.0007717
3925.47	0.001064
3935.12	0.0007983
3944.76	0.0009358
3954.41	0.0010508
3964.05	0.0010851
3973.69	0.000899
3983.34	0.001402
3992.98	0.001472
