Infrared Spectrum: (2-Methoxy-5-phenyl)phenylisothiocyanate
Formula: C 14 H 11 N O S
CAS: 206761-68-4
State: gas
Origin: EPA-IR VAPOR PHASE LIBRARY
1/CM	ABSORBANCE
549.8	0.005588
559.445	0.007378
569.09	0.011408
578.734	0.023068
588.379	0.018828
598.024	0.010258
607.669	0.007568
617.313	0.006358
626.958	0.006168
636.603	0.005318
646.248	0.004998
655.893	0.005038
665.537	0.007768
675.182	0.012248
684.827	0.017888
694.472	0.028138
704.116	0.021578
713.761	0.017928
723.406	0.020538
733.051	0.010968
742.695	0.009418
752.34	0.020228
761.985	0.027188
771.63	0.010758
781.275	0.005808
790.919	0.005308
800.564	0.009628
810.209	0.022368
819.854	0.015478
829.498	0.006868
839.143	0.003648
848.788	0.002628
858.433	0.002268
868.078	0.002868
877.722	0.008188
887.367	0.010628
897.012	0.003468
906.657	0.002088
916.301	0.001798
925.946	0.002308
935.591	0.003448
945.236	0.006518
954.88	0.014598
964.525	0.016608
974.17	0.009118
983.815	0.006688
993.46	0.007698
1003.1	0.010938
1012.75	0.019388
1022.39	0.025258
1032.04	0.017528
1041.68	0.014518
1051.33	0.019498
1060.97	0.010918
1070.62	0.005808
1080.26	0.003938
1089.91	0.002438
1099.55	0.003028
1109.2	0.003638
1118.84	0.007888
1128.49	0.019438
1138.13	0.027468
1147.78	0.015128
1157.42	0.007278
1167.07	0.006238
1176.71	0.009408
1186.36	0.009818
1196	0.009568
1205.64	0.013888
1215.29	0.011448
1224.93	0.012568
1234.58	0.022278
1244.22	0.037688
1253.87	0.042348
1263.51	0.037418
1273.16	0.050288
1282.8	0.055428
1292.45	0.042008
1302.09	0.025398
1311.74	0.019398
1321.38	0.009718
1331.03	0.006418
1340.67	0.004818
1350.32	0.004168
1359.96	0.003568
1369.61	0.003358
1379.25	0.003678
1388.9	0.004428
1398.54	0.007098
1408.18	0.008928
1417.83	0.006548
1427.47	0.006368
1437.12	0.010788
1446.76	0.016438
1456.41	0.014418
1466.05	0.022538
1475.7	0.040328
1485.34	0.089138
1494.99	0.058288
1504.63	0.030328
1514.28	0.040588
1523.92	0.025378
1533.57	0.013098
1543.21	0.010088
1552.86	0.009898
1562.5	0.012178
1572.15	0.012678
1581.79	0.011728
1591.44	0.016378
1601.08	0.024948
1610.73	0.017928
1620.37	0.007938
1630.01	0.004128
1639.66	0.003128
1649.3	0.002528
1658.95	0.002458
1668.59	0.002658
1678.24	0.002248
1687.88	0.001768
1697.53	0.001738
1707.17	0.001788
1716.82	0.002038
1726.46	0.002398
1736.11	0.002938
1745.75	0.003248
1755.4	0.003208
1765.04	0.003738
1774.69	0.003548
1784.33	0.003248
1793.98	0.003938
1803.62	0.003288
1813.27	0.003168
1822.91	0.003188
1832.55	0.002918
1842.2	0.003288
1851.84	0.004168
1861.49	0.005338
1871.13	0.005998
1880.78	0.006518
1890.42	0.007428
1900.07	0.008488
1909.71	0.011338
1919.36	0.014568
1929	0.017458
1938.65	0.021558
1948.29	0.027608
1957.94	0.036318
1967.58	0.047598
1977.23	0.066628
1986.87	0.094638
1996.52	0.123238
2006.16	0.149058
2015.81	0.182798
2025.45	0.243178
2035.1	0.298118
2044.74	0.247178
2054.38	0.182268
2064.03	0.150748
2073.67	0.147858
2083.32	0.170428
2092.96	0.188568
2102.61	0.170678
2112.25	0.130958
2121.9	0.102668
2131.54	0.086838
2141.19	0.069678
2150.83	0.052408
2160.48	0.043578
2170.12	0.038698
2179.77	0.028608
2189.41	0.018918
2199.06	0.013428
2208.7	0.010348
2218.35	0.008118
2227.99	0.006398
2237.64	0.005298
2247.28	0.004608
2256.92	0.004378
2266.57	0.004238
2276.21	0.003548
2285.86	0.003078
2295.5	0.002758
2305.15	0.002718
2314.79	0.002748
2324.44	0.002568
2334.08	0.002658
2343.73	0.002728
2353.37	0.002578
2363.02	0.002558
2372.66	0.002298
2382.31	0.002408
2391.95	0.002598
2401.6	0.002738
2411.24	0.002968
2420.89	0.002908
2430.53	0.002508
2440.18	0.002258
2449.82	0.002168
2459.47	0.002288
2469.11	0.002328
2478.75	0.002618
2488.4	0.002738
2498.04	0.002898
2507.69	0.003458
2517.33	0.003698
2526.98	0.003808
2536.62	0.004228
2546.27	0.004398
2555.91	0.004418
2565.56	0.004008
2575.2	0.003548
2584.85	0.003218
2594.49	0.002998
2604.14	0.002758
2613.78	0.002658
2623.43	0.002378
2633.07	0.002178
2642.72	0.001848
2652.36	0.001738
2662.01	0.001628
2671.65	0.001538
2681.29	0.001798
2690.94	0.001728
2700.58	0.001748
2710.23	0.002048
2719.87	0.002298
2729.52	0.002548
2739.16	0.002438
2748.81	0.002178
2758.45	0.002328
2768.1	0.002298
2777.74	0.002238
2787.39	0.002278
2797.03	0.002488
2806.68	0.002728
2816.32	0.003358
2825.97	0.004188
2835.61	0.006648
2845.26	0.011668
2854.9	0.009768
2864.55	0.005728
2874.19	0.004658
2883.84	0.004828
2893.48	0.005468
2903.12	0.006888
2912.77	0.008138
2922.41	0.008368
2932.06	0.009618
2941.7	0.015588
2951.35	0.016728
2960.99	0.014118
2970.64	0.011148
2980.28	0.007828
2989.93	0.007058
2999.57	0.008008
3009.22	0.011698
3018.86	0.013048
3028.51	0.013018
3038.15	0.018858
3047.8	0.013438
3057.44	0.012968
3067.09	0.023288
3076.73	0.019438
3086.38	0.013568
3096.02	0.009028
3105.67	0.005918
3115.31	0.004128
3124.95	0.002458
3134.6	0.001548
3144.24	0.0012854
3153.89	0.0010514
3163.53	0.0009821
3173.18	0.0007452
3182.82	0.0006863
3192.47	0.0005312
3202.11	0.000201
3211.76	0.0002971
3221.4	0.00036801
3231.05	0.000235
3240.69	0.000258
3250.34	0.00039006
3259.98	0.000365976
3269.63	0.000155
3279.27	0.000129
3288.92	8.8e-05
3298.56	0.000183
3308.21	0.0003098
3317.85	0.000178
3327.49	6e-05
3337.14	0.00011
3346.78	0.000256
3356.43	5.8e-05
3366.07	0.0002851
3375.72	0.0002645
3385.36	0.00040314
3395.01	0.00039595
3404.65	0.000242
3414.3	0.00039191
3423.94	0.0002874
3433.59	0.000112
3443.23	0.0003072
3452.88	0.00044872
3462.52	0.0004835
3472.17	0.0005757
3481.81	0.0003344
3491.46	0.0005171
3501.1	0.0002862
3510.75	0.0003292
3520.39	0.0004664
3530.04	0.0004329
3539.68	8.9e-05
3549.32	0.000252
3558.97	0.0002631
3568.61	0.000167
3578.26	0.00044066
3587.9	0.000365477
3597.55	0.00044384
3607.19	0.000247
3616.84	0.00041942
3626.48	0.0003303
3636.13	0.0005135
3645.77	0.0003395
3655.42	0.0005757
3665.06	0.0005491
3674.71	0.00037779
3684.35	0.00039617
3694	0.00040744
3703.64	0.0004031
3713.29	0.00040441
3722.93	0.0003399
3732.58	0.00034958
3742.22	0.0005989
3751.86	0.00045591
3761.51	0.00045346
3771.15	0.0004619
3780.8	0.000319
3790.44	0.0005579
3800.09	0.000562
3809.73	0.0005185
3819.38	0.00038862
3829.02	0.00044843
3838.67	0.0004858
3848.31	0.0005192
3857.96	0.0006488
3867.6	0.000628
3877.25	0.0005433
3886.89	0.0006691
3896.54	0.0004952
3906.18	0.0007602
3915.83	0.0006739
3925.47	0.0008425
3935.12	0.0010999
3944.76	0.0010442
3954.41	0.0011444
3964.05	0.0010246
3973.69	0.0013317
3983.34	0.001418
3992.98	0.001648
