Infrared Spectrum: 2,5-Difluorophenyl isothiocyanate
Formula: C 7 H 3 F 2 N S
CAS: 206559-57-1
State: gas
Origin: EPA-IR VAPOR PHASE LIBRARY
1/CM	ABSORBANCE
549.8	0.007376
559.445	0.004816
569.09	0.004976
578.734	0.011026
588.379	0.016476
598.024	0.010556
607.669	0.005876
617.313	0.003946
626.958	0.004546
636.603	0.007036
646.248	0.005326
655.893	0.003166
665.537	0.002306
675.182	0.004236
684.827	0.005926
694.472	0.004736
704.116	0.002416
713.761	0.001466
723.406	0.002096
733.051	0.005406
742.695	0.011526
752.34	0.027826
761.985	0.081736
771.63	0.063986
781.275	0.015996
790.919	0.009896
800.564	0.020826
810.209	0.036276
819.854	0.021416
829.498	0.011786
839.143	0.026736
848.788	0.053176
858.433	0.055206
868.078	0.034626
877.722	0.013646
887.367	0.005346
897.012	0.005646
906.657	0.007776
916.301	0.008266
925.946	0.007246
935.591	0.005526
945.236	0.003616
954.88	0.002516
964.525	0.002286
974.17	0.002246
983.815	0.003966
993.46	0.005896
1003.1	0.003866
1012.75	0.001846
1022.39	0.0009405
1032.04	0.0012215
1041.68	0.0008853
1051.33	0.0008381
1060.97	0.000879
1070.62	0.000737
1080.26	0.001606
1089.91	0.003696
1099.55	0.009526
1109.2	0.007356
1118.84	0.002266
1128.49	0.001966
1138.13	0.003756
1147.78	0.008096
1157.42	0.028336
1167.07	0.057666
1176.71	0.035576
1186.36	0.009006
1196	0.012506
1205.64	0.031846
1215.29	0.037476
1224.93	0.021236
1234.58	0.020846
1244.22	0.046456
1253.87	0.054866
1263.51	0.024076
1273.16	0.010566
1282.8	0.008346
1292.45	0.008586
1302.09	0.009466
1311.74	0.008066
1321.38	0.004376
1331.03	0.002136
1340.67	0.001826
1350.32	0.001656
1359.96	0.001506
1369.61	0.001556
1379.25	0.002166
1388.9	0.003226
1398.54	0.003846
1408.18	0.003886
1417.83	0.006636
1427.47	0.011096
1437.12	0.011726
1446.76	0.014526
1456.41	0.015316
1466.05	0.008776
1475.7	0.010416
1485.34	0.028486
1494.99	0.103976
1504.63	0.189936
1514.28	0.141046
1523.92	0.051526
1533.57	0.017756
1543.21	0.011566
1552.86	0.010656
1562.5	0.011586
1572.15	0.012496
1581.79	0.015956
1591.44	0.023636
1601.08	0.037936
1610.73	0.073456
1620.37	0.085146
1630.01	0.039156
1639.66	0.011846
1649.3	0.005086
1658.95	0.003496
1668.59	0.003216
1678.24	0.002866
1687.88	0.002266
1697.53	0.002176
1707.17	0.002816
1716.82	0.004006
1726.46	0.004896
1736.11	0.004426
1745.75	0.003096
1755.4	0.002726
1765.04	0.002586
1774.69	0.002656
1784.33	0.002806
1793.98	0.002876
1803.62	0.002886
1813.27	0.003006
1822.91	0.003806
1832.55	0.006216
1842.2	0.009546
1851.84	0.010306
1861.49	0.007826
1871.13	0.006336
1880.78	0.007386
1890.42	0.009696
1900.07	0.012476
1909.71	0.016036
1919.36	0.021876
1929	0.030786
1938.65	0.042816
1948.29	0.057556
1957.94	0.079136
1967.58	0.116346
1977.23	0.162576
1986.87	0.196066
1996.52	0.231876
2006.16	0.291446
2015.81	0.379596
2025.45	0.482846
2035.1	0.479966
2044.74	0.356366
2054.38	0.235866
2064.03	0.176766
2073.67	0.178516
2083.32	0.220746
2092.96	0.256866
2102.61	0.230136
2112.25	0.159356
2121.9	0.102596
2131.54	0.075106
2141.19	0.063606
2150.83	0.059226
2160.48	0.056796
2170.12	0.043106
2179.77	0.025666
2189.41	0.017376
2199.06	0.015206
2208.7	0.013366
2218.35	0.008516
2227.99	0.005426
2237.64	0.004216
2247.28	0.003486
2256.92	0.003256
2266.57	0.003696
2276.21	0.003706
2285.86	0.004056
2295.5	0.004886
2305.15	0.005166
2314.79	0.004226
2324.44	0.003686
2334.08	0.004116
2343.73	0.004386
2353.37	0.004186
2363.02	0.003856
2372.66	0.004466
2382.31	0.004606
2391.95	0.003566
2401.6	0.003376
2411.24	0.003866
2420.89	0.003946
2430.53	0.003116
2440.18	0.002726
2449.82	0.003076
2459.47	0.004016
2469.11	0.004636
2478.75	0.004496
2488.4	0.003706
2498.04	0.003756
2507.69	0.004316
2517.33	0.004636
2526.98	0.005046
2536.62	0.004626
2546.27	0.003826
2555.91	0.004066
2565.56	0.004946
2575.2	0.005676
2584.85	0.006076
2594.49	0.005736
2604.14	0.005006
2613.78	0.004216
2623.43	0.004056
2633.07	0.003636
2642.72	0.003196
2652.36	0.002466
2662.01	0.002386
2671.65	0.002646
2681.29	0.002716
2690.94	0.002966
2700.58	0.003146
2710.23	0.003596
2719.87	0.004226
2729.52	0.004096
2739.16	0.002916
2748.81	0.002246
2758.45	0.001936
2768.1	0.001956
2777.74	0.001936
2787.39	0.001876
2797.03	0.001746
2806.68	0.001606
2816.32	0.001716
2825.97	0.001806
2835.61	0.001616
2845.26	0.001906
2854.9	0.002286
2864.55	0.002616
2874.19	0.002806
2883.84	0.002646
2893.48	0.002366
2903.12	0.002216
2912.77	0.002046
2922.41	0.002216
2932.06	0.002166
2941.7	0.002336
2951.35	0.001976
2960.99	0.001706
2970.64	0.001366
2980.28	0.0012719
2989.93	0.001466
2999.57	0.001456
3009.22	0.001356
3018.86	0.001336
3028.51	0.0012654
3038.15	0.0009552
3047.8	0.000721
3057.44	0.0008218
3067.09	0.0009265
3076.73	0.0011711
3086.38	0.0012379
3096.02	0.0010246
3105.67	0.0006533
3115.31	0.0003628
3124.95	0.0002517
3134.6	0.0002415
3144.24	0.00036087
3153.89	0.00018
3163.53	9.3e-05
3173.18	0.000115
3182.82	0.0002177
3192.47	0.000203
3202.11	0.00030143
3211.76	0.000146
3221.4	5.4e-05
3231.05	3.1e-05
3240.69	0.000119
3250.34	5.2e-05
3259.98	0.0002128
3269.63	0.000237
3279.27	6.4e-05
3288.92	4.1e-05
3298.56	0.000169
3308.21	0.000161
3317.85	0.0002894
3327.49	0.000103
3337.14	0.000309658
3346.78	0.00013
3356.43	8.4e-05
3366.07	0.000156
3375.72	0.00035996
3385.36	0.0002322
3395.01	0.000374
3404.65	0.0002548
3414.3	0.000147
3423.94	0.0002403
3433.59	0.000451
3443.23	0.0002388
3452.88	0.000191
3462.52	0.00038261
3472.17	0.0002295
3481.81	0.000314822
3491.46	0.00034659
3501.1	0.0002318
3510.75	0.0003942
3520.39	0.0005912
3530.04	0.0004515
3539.68	0.0002546
3549.32	0.0004195
3558.97	0.0004407
3568.61	0.0004724
3578.26	0.0003407
3587.9	0.00036294
3597.55	0.0004204
3607.19	0.0002306
3616.84	0.00033826
3626.48	0.000417
3636.13	0.0006174
3645.77	0.00036348
3655.42	0.000347
3665.06	0.0004105
3674.71	0.0002611
3684.35	0.0005741
3694	0.0005148
3703.64	0.00039124
3713.29	0.0003766
3722.93	0.0004734
3732.58	0.00036901
3742.22	0.0006836
3751.86	0.0005943
3761.51	0.0006721
3771.15	0.000644
3780.8	0.0006577
3790.44	0.0006116
3800.09	0.0004715
3809.73	0.0006325
3819.38	0.0005705
3829.02	0.0005604
3838.67	0.000793
3848.31	0.0010531
3857.96	0.0008017
3867.6	0.0007506
3877.25	0.0007431
3886.89	0.0008015
3896.54	0.001105
3906.18	0.0009441
3915.83	0.0010438
3925.47	0.0012783
3935.12	0.001416
3944.76	0.001346
3954.41	0.001436
3964.05	0.001816
3973.69	0.001586
3983.34	0.001846
3992.98	0.001876
