Infrared Spectrum: 4-Bromo-2-trifluoromethylphenyl isothiocyanate
Formula: C 8 H 3 Br F 3 N S
CAS: 206559-46-8
State: gas
Origin: EPA-IR VAPOR PHASE LIBRARY
1/CM	ABSORBANCE
549.8	0.002944
559.445	0.004084
569.09	0.005844
578.734	0.009064
588.379	0.011344
598.024	0.014644
607.669	0.009774
617.313	0.005204
626.958	0.004234
636.603	0.004004
646.248	0.003964
655.893	0.011284
665.537	0.012534
675.182	0.003084
684.827	0.001724
694.472	0.003014
704.116	0.004674
713.761	0.007604
723.406	0.014204
733.051	0.006174
742.695	0.002544
752.34	0.0013978
761.985	0.002904
771.63	0.002884
781.275	0.001974
790.919	0.002974
800.564	0.004874
810.209	0.011574
819.854	0.043344
829.498	0.028274
839.143	0.004574
848.788	0.004354
858.433	0.003604
868.078	0.002384
877.722	0.004124
887.367	0.014424
897.012	0.027444
906.657	0.015174
916.301	0.017794
925.946	0.020674
935.591	0.030124
945.236	0.053224
954.88	0.047104
964.525	0.020924
974.17	0.010564
983.815	0.006514
993.46	0.004264
1003.1	0.003354
1012.75	0.003554
1022.39	0.003954
1032.04	0.005824
1041.68	0.016284
1051.33	0.058374
1060.97	0.081614
1070.62	0.041964
1080.26	0.031754
1089.91	0.042524
1099.55	0.021904
1109.2	0.011354
1118.84	0.018294
1128.49	0.049154
1138.13	0.088244
1147.78	0.138374
1157.42	0.239404
1167.07	0.215444
1176.71	0.201504
1186.36	0.148484
1196	0.077584
1205.64	0.032224
1215.29	0.017764
1224.93	0.019334
1234.58	0.029014
1244.22	0.043704
1253.87	0.041314
1263.51	0.030854
1273.16	0.044074
1282.8	0.085394
1292.45	0.118544
1302.09	0.244374
1311.74	0.220924
1321.38	0.053644
1331.03	0.014164
1340.67	0.008814
1350.32	0.007664
1359.96	0.006744
1369.61	0.006724
1379.25	0.009864
1388.9	0.019094
1398.54	0.044754
1408.18	0.067934
1417.83	0.041134
1427.47	0.014924
1437.12	0.007704
1446.76	0.008714
1456.41	0.017374
1466.05	0.042844
1475.7	0.087234
1485.34	0.134414
1494.99	0.043634
1504.63	0.018554
1514.28	0.011804
1523.92	0.006354
1533.57	0.005534
1543.21	0.006314
1552.86	0.009764
1562.5	0.018404
1572.15	0.025534
1581.79	0.021594
1591.44	0.020144
1601.08	0.011294
1610.73	0.007014
1620.37	0.005824
1630.01	0.005164
1639.66	0.004864
1649.3	0.003714
1658.95	0.001974
1668.59	0.001624
1678.24	0.001594
1687.88	0.001774
1697.53	0.001934
1707.17	0.002264
1716.82	0.002504
1726.46	0.002784
1736.11	0.002894
1745.75	0.002954
1755.4	0.003344
1765.04	0.003904
1774.69	0.005004
1784.33	0.006384
1793.98	0.005114
1803.62	0.003844
1813.27	0.004204
1822.91	0.004744
1832.55	0.005674
1842.2	0.006994
1851.84	0.008064
1861.49	0.008984
1871.13	0.010334
1880.78	0.011484
1890.42	0.013454
1900.07	0.015514
1909.71	0.015954
1919.36	0.017824
1929	0.022334
1938.65	0.030104
1948.29	0.041974
1957.94	0.059354
1967.58	0.083214
1977.23	0.113594
1986.87	0.153864
1996.52	0.205854
2006.16	0.258944
2015.81	0.309824
2025.45	0.380714
2035.1	0.479854
2044.74	0.454274
2054.38	0.381804
2064.03	0.418254
2073.67	0.508414
2083.32	0.494374
2092.96	0.346704
2102.61	0.217504
2112.25	0.166554
2121.9	0.165554
2131.54	0.159804
2141.19	0.117424
2150.83	0.075454
2160.48	0.054134
2170.12	0.043104
2179.77	0.035734
2189.41	0.030814
2199.06	0.028694
2208.7	0.026784
2218.35	0.022584
2227.99	0.018944
2237.64	0.013934
2247.28	0.009114
2256.92	0.006684
2266.57	0.005624
2276.21	0.005274
2285.86	0.005674
2295.5	0.006184
2305.15	0.006634
2314.79	0.006434
2324.44	0.006024
2334.08	0.006334
2343.73	0.006094
2353.37	0.005094
2363.02	0.004414
2372.66	0.004064
2382.31	0.003994
2391.95	0.003854
2401.6	0.003474
2411.24	0.003054
2420.89	0.002754
2430.53	0.002714
2440.18	0.002574
2449.82	0.002624
2459.47	0.002764
2469.11	0.002904
2478.75	0.003044
2488.4	0.003324
2498.04	0.003634
2507.69	0.004154
2517.33	0.004584
2526.98	0.005014
2536.62	0.005584
2546.27	0.005414
2555.91	0.005224
2565.56	0.005224
2575.2	0.004964
2584.85	0.005444
2594.49	0.006604
2604.14	0.007794
2613.78	0.008764
2623.43	0.008994
2633.07	0.008164
2642.72	0.006394
2652.36	0.004734
2662.01	0.003734
2671.65	0.003344
2681.29	0.003164
2690.94	0.002824
2700.58	0.002524
2710.23	0.002294
2719.87	0.002424
2729.52	0.002584
2739.16	0.002944
2748.81	0.002874
2758.45	0.003054
2768.1	0.003114
2777.74	0.002964
2787.39	0.002964
2797.03	0.003194
2806.68	0.003114
2816.32	0.002734
2825.97	0.002264
2835.61	0.001994
2845.26	0.001904
2854.9	0.001714
2864.55	0.0014467
2874.19	0.0013827
2883.84	0.0015629
2893.48	0.0015393
2903.12	0.0014021
2912.77	0.0011553
2922.41	0.0013843
2932.06	0.0015136
2941.7	0.001774
2951.35	0.002094
2960.99	0.002044
2970.64	0.002214
2980.28	0.002384
2989.93	0.002604
2999.57	0.002444
3009.22	0.002264
3018.86	0.002384
3028.51	0.002334
3038.15	0.002254
3047.8	0.001774
3057.44	0.0014342
3067.09	0.001614
3076.73	0.002564
3086.38	0.002834
3096.02	0.0015341
3105.67	0.0014997
3115.31	0.0007818
3124.95	0.0004894
3134.6	0.0004776
3144.24	0.00038
3153.89	0.000391
3163.53	0.0003
3173.18	0.000175
3182.82	0.000267
3192.47	0.000184
3202.11	0.00028
3211.76	0.000109
3221.4	0.000154
3231.05	7e-05
3240.69	0.000171
3250.34	0.000334
3259.98	0.000322
3269.63	0.000329
3279.27	0.000287
3288.92	8.5e-05
3298.56	0.000365
3308.21	0.000233
3317.85	0.000182
3327.49	0.00034
3337.14	0.000224
3346.78	0.000222
3356.43	0.000351
3366.07	0.000141
3375.72	0.000363
3385.36	0.00033
3395.01	0.000301
3404.65	0.000325
3414.3	0.000253
3423.94	0.000385
3433.59	0.000278
3443.23	0.000338
3452.88	0.000299
3462.52	0.000272
3472.17	0.000121
3481.81	0.000327
3491.46	0.000254
3501.1	0.000332
3510.75	0.000344
3520.39	0.000429
3530.04	0.0005316
3539.68	0.000437
3549.32	0.0005394
3558.97	0.000346
3568.61	0.000325
3578.26	0.000293
3587.9	0.000308
3597.55	0.000372
3607.19	0.000359
3616.84	0.000307
3626.48	0.00043
3636.13	0.0004864
3645.77	0.0005199
3655.42	0.000327
3665.06	0.000453
3674.71	0.0004
3684.35	0.0004974
3694	0.0004897
3703.64	0.0004985
3713.29	0.00056957
3722.93	0.0004859
3732.58	0.000398
3742.22	0.00063713
3751.86	0.0005598
3761.51	0.0005072
3771.15	0.0007603
3780.8	0.0005426
3790.44	0.00036
3800.09	0.00060687
3809.73	0.0006801
3819.38	0.000542
3829.02	0.00061179
3838.67	0.0005189
3848.31	0.0007181
3857.96	0.0007921
3867.6	0.0007596
3877.25	0.000578561
3886.89	0.0009358
3896.54	0.0010444
3906.18	0.000981
3915.83	0.0010315
3925.47	0.0012446
3935.12	0.0012453
3944.76	0.0013315
3954.41	0.0013832
3964.05	0.001644
3973.69	0.0014726
3983.34	0.001634
3992.98	0.002124
