Infrared Spectrum: 2,4,6-Trifluorophenyl isothiocyanate
Formula: C 7 H 2 F 3 N S
CAS: 206761-91-3
State: gas
Origin: EPA-IR VAPOR PHASE LIBRARY
1/CM	ABSORBANCE
549.8	0.005466
559.445	0.003476
569.09	0.003286
578.734	0.004616
588.379	0.007316
598.024	0.011296
607.669	0.024796
617.313	0.042016
626.958	0.026786
636.603	0.009006
646.248	0.008876
655.893	0.010246
665.537	0.010626
675.182	0.007706
684.827	0.002976
694.472	0.001816
704.116	0.004306
713.761	0.007806
723.406	0.003396
733.051	0.001346
742.695	0.002076
752.34	0.003736
761.985	0.001556
771.63	0.0005807
781.275	0.000498
790.919	0.0007309
800.564	0.001516
810.209	0.001756
819.854	0.002476
829.498	0.017336
839.143	0.053466
848.788	0.048986
858.433	0.014726
868.078	0.002136
877.722	0.001846
887.367	0.002016
897.012	0.002356
906.657	0.002796
916.301	0.003836
925.946	0.006956
935.591	0.014206
945.236	0.018266
954.88	0.013226
964.525	0.009156
974.17	0.007246
983.815	0.009706
993.46	0.036206
1003.1	0.047416
1012.75	0.011606
1022.39	0.010616
1032.04	0.028406
1041.68	0.091826
1051.33	0.129286
1060.97	0.064846
1070.62	0.018306
1080.26	0.008716
1089.91	0.007086
1099.55	0.005366
1109.2	0.008606
1118.84	0.064826
1128.49	0.157946
1138.13	0.049766
1147.78	0.008666
1157.42	0.008086
1167.07	0.019356
1176.71	0.020386
1186.36	0.011806
1196	0.010226
1205.64	0.006066
1215.29	0.002306
1224.93	0.002616
1234.58	0.001786
1244.22	0.003096
1253.87	0.006296
1263.51	0.009176
1273.16	0.010056
1282.8	0.008546
1292.45	0.005416
1302.09	0.003576
1311.74	0.003006
1321.38	0.002896
1331.03	0.003226
1340.67	0.003106
1350.32	0.004796
1359.96	0.016776
1369.61	0.058866
1379.25	0.048306
1388.9	0.008476
1398.54	0.005126
1408.18	0.006776
1417.83	0.008186
1427.47	0.015986
1437.12	0.032446
1446.76	0.056866
1456.41	0.064946
1466.05	0.037946
1475.7	0.015186
1485.34	0.019196
1494.99	0.073296
1504.63	0.169706
1514.28	0.109716
1523.92	0.028706
1533.57	0.012016
1543.21	0.012266
1552.86	0.014906
1562.5	0.019596
1572.15	0.024976
1581.79	0.034976
1591.44	0.053386
1601.08	0.079586
1610.73	0.084026
1620.37	0.068046
1630.01	0.073256
1639.66	0.054766
1649.3	0.018226
1658.95	0.011186
1668.59	0.010236
1678.24	0.009076
1687.88	0.006136
1697.53	0.006696
1707.17	0.006766
1716.82	0.003106
1726.46	0.002336
1736.11	0.002296
1745.75	0.002556
1755.4	0.002806
1765.04	0.003126
1774.69	0.003566
1784.33	0.003886
1793.98	0.003556
1803.62	0.002916
1813.27	0.002776
1822.91	0.003156
1832.55	0.003896
1842.2	0.005066
1851.84	0.006356
1861.49	0.007386
1871.13	0.008416
1880.78	0.009916
1890.42	0.011486
1900.07	0.013826
1909.71	0.018116
1919.36	0.024776
1929	0.034026
1938.65	0.042836
1948.29	0.053356
1957.94	0.068856
1967.58	0.091206
1977.23	0.128046
1986.87	0.176726
1996.52	0.222406
2006.16	0.261816
2015.81	0.330706
2025.45	0.513496
2035.1	0.677076
2044.74	0.482186
2054.38	0.263426
2064.03	0.171696
2073.67	0.159716
2083.32	0.200136
2092.96	0.268316
2102.61	0.272076
2112.25	0.198946
2121.9	0.117076
2131.54	0.072346
2141.19	0.059046
2150.83	0.059316
2160.48	0.057046
2170.12	0.046526
2179.77	0.035506
2189.41	0.028776
2199.06	0.026756
2208.7	0.024316
2218.35	0.017466
2227.99	0.011516
2237.64	0.008176
2247.28	0.006726
2256.92	0.006006
2266.57	0.004666
2276.21	0.004066
2285.86	0.003646
2295.5	0.003326
2305.15	0.003296
2314.79	0.003326
2324.44	0.003336
2334.08	0.003786
2343.73	0.004336
2353.37	0.003836
2363.02	0.003226
2372.66	0.003036
2382.31	0.002826
2391.95	0.003166
2401.6	0.003696
2411.24	0.004166
2420.89	0.004246
2430.53	0.003596
2440.18	0.002896
2449.82	0.002586
2459.47	0.002326
2469.11	0.002426
2478.75	0.003286
2488.4	0.005246
2498.04	0.006926
2507.69	0.006666
2517.33	0.007076
2526.98	0.008126
2536.62	0.008506
2546.27	0.006576
2555.91	0.003986
2565.56	0.002646
2575.2	0.002456
2584.85	0.002616
2594.49	0.002366
2604.14	0.002176
2613.78	0.002236
2623.43	0.002506
2633.07	0.002686
2642.72	0.002886
2652.36	0.003566
2662.01	0.004186
2671.65	0.004356
2681.29	0.005436
2690.94	0.007086
2700.58	0.010206
2710.23	0.013066
2719.87	0.011116
2729.52	0.006146
2739.16	0.003666
2748.81	0.002716
2758.45	0.002376
2768.1	0.002156
2777.74	0.001686
2787.39	0.001286
2797.03	0.0009319
2806.68	0.0009548
2816.32	0.0009935
2825.97	0.0009994
2835.61	0.0010072
2845.26	0.0009713
2854.9	0.0009431
2864.55	0.0009919
2874.19	0.0010779
2883.84	0.0012224
2893.48	0.0012228
2903.12	0.0012693
2912.77	0.0012591
2922.41	0.0012397
2932.06	0.001276
2941.7	0.001656
2951.35	0.002016
2960.99	0.002836
2970.64	0.003406
2980.28	0.002896
2989.93	0.001916
2999.57	0.001376
3009.22	0.0012111
3018.86	0.001426
3028.51	0.001516
3038.15	0.001846
3047.8	0.001716
3057.44	0.0011712
3067.09	0.0011607
3076.73	0.0012286
3086.38	0.001376
3096.02	0.002386
3105.67	0.002986
3115.31	0.002366
3124.95	0.001356
3134.6	0.0005495
3144.24	0.0006562
3153.89	0.000166
3163.53	0.00032573
3173.18	0.000175
3182.82	0.00017
3192.47	0.000121
3202.11	0.00030243
3211.76	0.0002045
3221.4	0.0002673
3231.05	0.00036241
3240.69	0.00029098
3250.34	0.000148
3259.98	0.000117
3269.63	0.0002091
3279.27	0.0004456
3288.92	6.7e-05
3298.56	0.000103
3308.21	0.00029377
3317.85	0.000118
3327.49	0.000103
3337.14	0.000162
3346.78	0.000117
3356.43	0.000284
3366.07	0.00036797
3375.72	0.000279101
3385.36	0.0002006
3395.01	8.9e-05
3404.65	0.0002202
3414.3	0.0004599
3423.94	0.00035955
3433.59	0.00026947
3443.23	0.0002386
3452.88	0.000275562
3462.52	0.00030419
3472.17	0.00030995
3481.81	0.0004172
3491.46	0.0004717
3501.1	0.0002985
3510.75	0.0002184
3520.39	0.0001821
3530.04	0.00035088
3539.68	0.0004276
3549.32	0.00029687
3558.97	0.0003811
3568.61	0.0002085
3578.26	0.0005413
3587.9	0.0004484
3597.55	0.0005393
3607.19	0.0005716
3616.84	0.0004096
3626.48	0.0004014
3636.13	0.0004512
3645.77	0.0004767
3655.42	0.0005387
3665.06	0.0005235
3674.71	0.0004224
3684.35	0.000557
3694	0.0005378
3703.64	0.0004986
3713.29	0.0004482
3722.93	0.00033447
3732.58	0.0005793
3742.22	0.000554
3751.86	0.0005426
3761.51	0.0006104
3771.15	0.0005392
3780.8	0.0003984
3790.44	0.0003959
3800.09	0.0005765
3809.73	0.0005682
3819.38	0.0004909
3829.02	0.0006338
3838.67	0.0004721
3848.31	0.0005836
3857.96	0.0005761
3867.6	0.0008044
3877.25	0.0007594
3886.89	0.0009552
3896.54	0.0008642
3906.18	0.001114
3915.83	0.001132
3925.47	0.001286
3935.12	0.001286
3944.76	0.0012345
3954.41	0.001606
3964.05	0.001666
3973.69	0.001656
3983.34	0.001876
3992.98	0.001956
