Infrared Spectrum: 3-Phenoxybenzhydrazide
Formula: C 13 H 12 N 2 O 2
CAS: 206761-84-4
State: gas
Origin: EPA-IR VAPOR PHASE LIBRARY
1/CM	ABSORBANCE
549.8	0.0020165
559.445	0.0017265
569.09	0.0015265
578.734	0.0019665
588.379	0.0017465
598.024	0.0013765
607.669	0.0020165
617.313	0.0014765
626.958	0.0012665
636.603	0.0013465
646.248	0.0018065
655.893	0.0020165
665.537	0.0031865
675.182	0.0044265
684.827	0.0095065
694.472	0.0116165
704.116	0.0053865
713.761	0.0036065
723.406	0.0036065
733.051	0.0052065
742.695	0.0093065
752.34	0.0122565
761.985	0.0079765
771.63	0.0048265
781.275	0.0048065
790.919	0.0060665
800.564	0.0069465
810.209	0.0054065
819.854	0.0040165
829.498	0.0034465
839.143	0.0042665
848.788	0.0070465
858.433	0.0086065
868.078	0.0084065
877.722	0.0089165
887.367	0.0105465
897.012	0.0127765
906.657	0.0142465
916.301	0.0129365
925.946	0.0095065
935.591	0.0061465
945.236	0.0047165
954.88	0.0057765
964.525	0.0068665
974.17	0.0047765
983.815	0.0028365
993.46	0.0020265
1003.1	0.0021265
1012.75	0.0019265
1022.39	0.0031865
1032.04	0.0015765
1041.68	0.0012865
1051.33	0.0011465
1060.97	0.0019865
1070.62	0.0025965
1080.26	0.0020165
1089.91	0.0019365
1099.55	0.0022465
1109.2	0.0009903
1118.84	0.0010427
1128.49	0.0018765
1138.13	0.0023265
1147.78	0.0032665
1157.42	0.0055165
1167.07	0.0062565
1176.71	0.0042765
1186.36	0.0053265
1196	0.0099365
1205.64	0.0149265
1215.29	0.0166765
1224.93	0.0332665
1234.58	0.0570665
1244.22	0.0449365
1253.87	0.0235465
1263.51	0.0244965
1273.16	0.0403865
1282.8	0.0420965
1292.45	0.0293165
1302.09	0.0170965
1311.74	0.0129465
1321.38	0.0092365
1331.03	0.0059065
1340.67	0.0045565
1350.32	0.0035465
1359.96	0.0029265
1369.61	0.0026465
1379.25	0.0027065
1388.9	0.0027965
1398.54	0.0036165
1408.18	0.0057365
1417.83	0.0102165
1427.47	0.0180165
1437.12	0.0257265
1446.76	0.0344265
1456.41	0.0338965
1466.05	0.0270365
1475.7	0.0279565
1485.34	0.0385465
1494.99	0.0367165
1504.63	0.0138265
1514.28	0.0077265
1523.92	0.0054265
1533.57	0.0046165
1543.21	0.0046165
1552.86	0.0061965
1562.5	0.0124965
1572.15	0.0259265
1581.79	0.0363565
1591.44	0.0247965
1601.08	0.0144665
1610.73	0.0088565
1620.37	0.0077965
1630.01	0.0088665
1639.66	0.0091965
1649.3	0.0062865
1658.95	0.0052965
1668.59	0.0060065
1678.24	0.0084365
1687.88	0.0133665
1697.53	0.0305465
1707.17	0.0312065
1716.82	0.0125365
1726.46	0.0084165
1736.11	0.0053665
1745.75	0.0029765
1755.4	0.0020865
1765.04	0.0017965
1774.69	0.0016665
1784.33	0.0014165
1793.98	0.0010965
1803.62	0.0009896
1813.27	0.0009567
1822.91	0.0009148
1832.55	0.0009538
1842.2	0.0009569
1851.84	0.0010625
1861.49	0.0010646
1871.13	0.0009932
1880.78	0.0008361
1890.42	0.0007044
1900.07	0.0007083
1909.71	0.0008408
1919.36	0.0011065
1929	0.0013265
1938.65	0.0012865
1948.29	0.0010693
1957.94	0.0007641
1967.58	0.0006345
1977.23	0.0005731
1986.87	0.0005943
1996.52	0.0007543
2006.16	0.0006891
2015.81	0.0008008
2025.45	0.0009035
2035.1	0.0009023
2044.74	0.0009102
2054.38	0.0008026
2064.03	0.0006759
2073.67	0.0006084
2083.32	0.000513
2092.96	0.0004511
2102.61	0.0004154
2112.25	0.0003326
2121.9	0.0003368
2131.54	0.0003545
2141.19	0.0002414
2150.83	0.0002347
2160.48	0.0003235
2170.12	0.0003711
2179.77	0.000366
2189.41	0.0002971
2199.06	0.0002761
2208.7	0.0003233
2218.35	0.0003827
2227.99	0.0002831
2237.64	0.0002813
2247.28	0.0004085
2256.92	0.0003615
2266.57	0.0004124
2276.21	0.0003834
2285.86	0.0004248
2295.5	0.0004155
2305.15	0.0004392
2314.79	0.0004618
2324.44	0.0005146
2334.08	0.0004783
2343.73	0.0004003
2353.37	0.0005321
2363.02	0.0005661
2372.66	0.0006351
2382.31	0.0006599
2391.95	0.0006512
2401.6	0.0005381
2411.24	0.0005819
2420.89	0.0007942
2430.53	0.0007532
2440.18	0.0007689
2449.82	0.0006489
2459.47	0.0004581
2469.11	0.0004107
2478.75	0.0004666
2488.4	0.0005329
2498.04	0.0004536
2507.69	0.0005144
2517.33	0.0004492
2526.98	0.0004328
2536.62	0.000399
2546.27	0.0004648
2555.91	0.0004623
2565.56	0.0004436
2575.2	0.0005374
2584.85	0.000486
2594.49	0.000331
2604.14	0.0004055
2613.78	0.0002175
2623.43	0.0003288
2633.07	0.0002029
2642.72	0.0002199
2652.36	0.0002468
2662.01	0.0001823
2671.65	0.0002804
2681.29	0.0003579
2690.94	0.0003321
2700.58	0.0002802
2710.23	0.0003066
2719.87	0.0004158
2729.52	0.0002865
2739.16	0.0002297
2748.81	0.0003187
2758.45	0.0002341
2768.1	0.000344
2777.74	0.0002226
2787.39	0.0003098
2797.03	0.00011179
2806.68	0.0004931
2816.32	0.0003356
2825.97	0.0002594
2835.61	0.0003747
2845.26	0.00017506
2854.9	0.00010731
2864.55	0.0002151
2874.19	0.0003535
2883.84	0.0003661
2893.48	0.0004319
2903.12	0.000358
2912.77	0.0003203
2922.41	0.0004051
2932.06	0.0003223
2941.7	0.000389
2951.35	0.0002542
2960.99	0.0002161
2970.64	0.0002489
2980.28	0.0003724
2989.93	0.0002436
2999.57	0.0005361
3009.22	0.0007748
3018.86	0.0014865
3028.51	0.0024665
3038.15	0.0038065
3047.8	0.0045865
3057.44	0.0040865
3067.09	0.0054265
3076.73	0.0076065
3086.38	0.0059565
3096.02	0.0035165
3105.67	0.0020365
3115.31	0.0012065
3124.95	0.0005717
3134.6	0.0005577
3144.24	0.0004059
3153.89	0.0004003
3163.53	0.0003955
3173.18	0.0002952
3182.82	0.0005473
3192.47	0.0005225
3202.11	0.0005129
3211.76	0.000467
3221.4	0.0006114
3231.05	0.0003569
3240.69	0.0003125
3250.34	0.00032
3259.98	0.0003118
3269.63	0.00011121
3279.27	0.0003668
3288.92	0.0004716
3298.56	0.0003898
3308.21	0.0004497
3317.85	0.0004593
3327.49	0.0004003
3337.14	0.0008824
3346.78	0.0005083
3356.43	0.0004479
3366.07	0.0004344
3375.72	0.0006365
3385.36	0.0006306
3395.01	0.0006495
3404.65	0.0006876
3414.3	0.0004858
3423.94	0.0006703
3433.59	0.0010864
3443.23	0.0017565
3452.88	0.0022065
3462.52	0.0036265
3472.17	0.0049065
3481.81	0.0037165
3491.46	0.0018565
3501.1	0.0011165
3510.75	0.0008227
3520.39	0.0005679
3530.04	0.0005051
3539.68	0.0003948
3549.32	0.0004047
3558.97	0.0003385
3568.61	0.0002709
3578.26	0.0003562
3587.9	0.0003069
3597.55	0.0002078
3607.19	4.86e-05
3616.84	0.000308
3626.48	0.0002311
3636.13	3.7e-05
3645.77	0.0002752
3655.42	0.0004007
3665.06	0.000311
3674.71	0.00015327
3684.35	0.0002619
3694	0.0003673
3703.64	0.0002962
3713.29	0.0003003
3722.93	7.74e-05
3732.58	0.000239
3742.22	0.0003066
3751.86	0.0002438
3761.51	8.676e-05
3771.15	9.68864e-05
3780.8	0.0002128
3790.44	0.00015895
3800.09	0.00010931
3809.73	0.0003449
3819.38	0.00014962
3829.02	0.00015932
3838.67	0.0002608
3848.31	0.0003086
3857.96	0.0002012
3867.6	0.0003504
3877.25	0.0002424
3886.89	2.05e-05
3896.54	0.00012658
3906.18	0.0002297
3915.83	0.00012032
3925.47	0.00014791
3935.12	0.0003595
3944.76	0.00013181
3954.41	0.0003558
3964.05	0.0002066
3973.69	0.0002678
3983.34	0.000597
3992.98	0.0005069
