Infrared Spectrum: 2,3,6-Trifluorobenzamide
Formula: C 7 H 4 F 3 N O
CAS: 207986-22-9
State: gas
Origin: EPA-IR VAPOR PHASE LIBRARY
1/CM	ABSORBANCE
549.8	0.0134314
559.445	0.0072
569.09	0.00521
578.734	0.00647
588.379	0.00769
598.024	0.012286
607.669	0.0137239
617.313	0.00987
626.958	0.00736
636.603	0.00551
646.248	0.00628
655.893	0.012593
665.537	0.01743
675.182	0.013667
684.827	0.00963
694.472	0.01097
704.116	0.01524
713.761	0.01537
723.406	0.012813
733.051	0.01648
742.695	0.02159
752.34	0.01913
761.985	0.01464
771.63	0.01583
781.275	0.01637
790.919	0.01679
800.564	0.027
810.209	0.04924
819.854	0.03319
829.498	0.01714
839.143	0.0132341
848.788	0.012459
858.433	0.01195
868.078	0.0121
877.722	0.01078
887.367	0.0119
897.012	0.0141439
906.657	0.02343
916.301	0.04048
925.946	0.03719
935.591	0.01692
945.236	0.01157
954.88	0.00937
964.525	0.0088
974.17	0.00831
983.815	0.00803
993.46	0.00935
1003.1	0.01645
1012.75	0.03986
1022.39	0.04872
1032.04	0.02607
1041.68	0.00951
1051.33	0.00565
1060.97	0.00561
1070.62	0.00517
1080.26	0.00572
1089.91	0.00509
1099.55	0.00635
1109.2	0.00482
1118.84	0.00467
1128.49	0.00646
1138.13	0.00593
1147.78	0.00646
1157.42	0.00497
1167.07	0.00692
1176.71	0.0084
1186.36	0.01143
1196	0.01501
1205.64	0.01498
1215.29	0.01488
1224.93	0.01781
1234.58	0.03658
1244.22	0.05849
1253.87	0.05012
1263.51	0.026
1273.16	0.01747
1282.8	0.01511
1292.45	0.01817
1302.09	0.02801
1311.74	0.03745
1321.38	0.04603
1331.03	0.07483
1340.67	0.13353
1350.32	0.12372
1359.96	0.04521
1369.61	0.01706
1379.25	0.01136
1388.9	0.00855
1398.54	0.00747
1408.18	0.00718
1417.83	0.0072
1427.47	0.00828
1437.12	0.0134126
1446.76	0.02059
1456.41	0.02191
1466.05	0.02184
1475.7	0.053
1485.34	0.16845
1494.99	0.22804
1504.63	0.11279
1514.28	0.02165
1523.92	0.01185
1533.57	0.00946
1543.21	0.0089
1552.86	0.00947
1562.5	0.012526
1572.15	0.02157
1581.79	0.05007
1591.44	0.07033
1601.08	0.04993
1610.73	0.02888
1620.37	0.02613
1630.01	0.03077
1639.66	0.02542
1649.3	0.0139958
1658.95	0.00965
1668.59	0.00865
1678.24	0.01076
1687.88	0.01631
1697.53	0.02829
1707.17	0.04597
1716.82	0.06162
1726.46	0.10408
1736.11	0.17806
1745.75	0.15113
1755.4	0.07867
1765.04	0.04152
1774.69	0.02179
1784.33	0.01148
1793.98	0.00726
1803.62	0.00529
1813.27	0.00437
1822.91	0.00481
1832.55	0.00551
1842.2	0.0062
1851.84	0.00574
1861.49	0.00407
1871.13	0.00291
1880.78	0.00265
1890.42	0.00272
1900.07	0.00264
1909.71	0.00281
1919.36	0.00266
1929	0.00279
1938.65	0.00281
1948.29	0.00262
1957.94	0.00267
1967.58	0.00233
1977.23	0.00229
1986.87	0.00219
1996.52	0.00204
2006.16	0.00221
2015.81	0.00247
2025.45	0.00224
2035.1	0.00217
2044.74	0.0022
2054.38	0.00199
2064.03	0.00196
2073.67	0.00156
2083.32	0.00163
2092.96	0.00166
2102.61	0.00162
2112.25	0.00187
2121.9	0.00182
2131.54	0.00168
2141.19	0.00187
2150.83	0.00205
2160.48	0.0022
2170.12	0.00173
2179.77	0.00144
2189.41	0.00155
2199.06	0.00152
2208.7	0.00173
2218.35	0.00195
2227.99	0.00203
2237.64	0.00204
2247.28	0.0019
2256.92	0.00199
2266.57	0.00213
2276.21	0.00176
2285.86	0.00178
2295.5	0.00144
2305.15	0.00172
2314.79	0.00162
2324.44	0.00172
2334.08	0.00198
2343.73	0.00165
2353.37	0.00197
2363.02	0.00144
2372.66	0.00169
2382.31	0.00128
2391.95	0.00149
2401.6	0.00158
2411.24	0.00197
2420.89	0.00187
2430.53	0.00182
2440.18	0.00184
2449.82	0.00172
2459.47	0.00157
2469.11	0.00172
2478.75	0.00144
2488.4	0.00153
2498.04	0.0016
2507.69	0.00168
2517.33	0.00189
2526.98	0.00153
2536.62	0.00178
2546.27	0.00193
2555.91	0.00185
2565.56	0.00151
2575.2	0.00143
2584.85	0.00104
2594.49	0.0008
2604.14	0.00097
2613.78	0.00139
2623.43	0.00119
2633.07	0.00139
2642.72	0.00123
2652.36	0.00124
2662.01	0.00101
2671.65	0.00114
2681.29	0.00129
2690.94	0.00079
2700.58	0.00095
2710.23	0.00087
2719.87	0.0011
2729.52	0.00121
2739.16	0.00125
2748.81	0.00072
2758.45	0.00141
2768.1	0.00108
2777.74	0.00156
2787.39	0.00147
2797.03	0.00171
2806.68	0.00143
2816.32	0.00125
2825.97	0.00152
2835.61	0.00165
2845.26	0.00129
2854.9	0.00083
2864.55	0.00107
2874.19	0.00103
2883.84	0.00123
2893.48	0.00164
2903.12	0.0011
2912.77	0.00104
2922.41	0.0011
2932.06	0.00134
2941.7	0.0014
2951.35	0.00118
2960.99	0.00087
2970.64	0.00098
2980.28	0.0007
2989.93	0.00068
2999.57	0.00107
3009.22	0.00078
3018.86	0.00091
3028.51	0.00087
3038.15	0.00117
3047.8	0.001
3057.44	0.00128
3067.09	0.00116
3076.73	0.00152
3086.38	0.00106
3096.02	0.0008
3105.67	0.00117
3115.31	0.00105
3124.95	0.00099
3134.6	0.00128
3144.24	0.0013
3153.89	0.00147
3163.53	0.00177
3173.18	0.00121
3182.82	0.00122
3192.47	0.00039
3202.11	0.00098
3211.76	0.00125
3221.4	0.00068
3231.05	0.00116
3240.69	8e-05
3250.34	0.00081
3259.98	0.00081
3269.63	0.00067
3279.27	0.00081
3288.92	0.00053
3298.56	0.00084
3308.21	0.00097
3317.85	0.00093
3327.49	0.00125
3337.14	0.00106
3346.78	0.00112
3356.43	0.00137
3366.07	0.00118
3375.72	0.00174
3385.36	0.00242
3395.01	0.00451
3404.65	0.00737
3414.3	0.012244
3423.94	0.01637
3433.59	0.02042
3443.23	0.01736
3452.88	0.00875
3462.52	0.00604
3472.17	0.00453
3481.81	0.00333
3491.46	0.0031
3501.1	0.00351
3510.75	0.00539
3520.39	0.00704
3530.04	0.00946
3539.68	0.01062
3549.32	0.0146
3558.97	0.01855
3568.61	0.012307
3578.26	0.00457
3587.9	0.00282
3597.55	0.00218
3607.19	0.00152
3616.84	0.0012
3626.48	0.00082
3636.13	0.00138
3645.77	0.00088
3655.42	0.00147
3665.06	0.00065
3674.71	0.00053
3684.35	0.001
3694	0.00062
3703.64	0.00047
3713.29	0.00092
3722.93	0.00094
3732.58	0.00058
3742.22	0.00083
3751.86	0.00089
3761.51	0.00039
3771.15	0.00113
3780.8	0.00135
3790.44	0.00102
3800.09	0.00038
3809.73	0.00145
3819.38	0.00077
3829.02	0.00091
3838.67	0.0005
3848.31	0.0011
3857.96	0.00039
3867.6	0.00069
3877.25	0.00043
3886.89	0.001
3896.54	0.0007
3906.18	0.00081
3915.83	0.00081
3925.47	0
3935.12	0.00023
3944.76	0.00107
3954.41	0.00103
3964.05	0.00065
3973.69	0.00112
3983.34	0.0011
3992.98	0.00104
