Infrared Spectrum: 2,3,4-Trifluorobenzamide
Formula: C 7 H 4 F 3 N O
CAS: 207919-09-3
State: gas
Origin: EPA-IR VAPOR PHASE LIBRARY
1/CM	ABSORBANCE
549.8	0.008956
559.445	0.007326
569.09	0.004186
578.734	0.0014288
588.379	0.0014974
598.024	0.0016785
607.669	0.002026
617.313	0.002266
626.958	0.003056
636.603	0.002756
646.248	0.0015943
655.893	0.002196
665.537	0.004776
675.182	0.007256
684.827	0.009266
694.472	0.007406
704.116	0.006096
713.761	0.006686
723.406	0.006026
733.051	0.003986
742.695	0.002956
752.34	0.004446
761.985	0.007196
771.63	0.010386
781.275	0.007136
790.919	0.004276
800.564	0.004506
810.209	0.005996
819.854	0.009156
829.498	0.011426
839.143	0.007706
848.788	0.005346
858.433	0.003676
868.078	0.003536
877.722	0.004716
887.367	0.004996
897.012	0.005246
906.657	0.006046
916.301	0.010056
925.946	0.010306
935.591	0.005096
945.236	0.003646
954.88	0.003016
964.525	0.002886
974.17	0.003136
983.815	0.003506
993.46	0.003936
1003.1	0.004326
1012.75	0.005896
1022.39	0.014816
1032.04	0.033496
1041.68	0.034286
1051.33	0.012666
1060.97	0.006436
1070.62	0.004856
1080.26	0.004516
1089.91	0.004526
1099.55	0.004596
1109.2	0.0013977
1118.84	0.0018164
1128.49	0.002366
1138.13	0.003026
1147.78	0.003316
1157.42	0.002106
1167.07	0.002656
1176.71	0.002856
1186.36	0.002986
1196	0.004416
1205.64	0.009726
1215.29	0.010636
1224.93	0.010856
1234.58	0.006386
1244.22	0.004716
1253.87	0.002926
1263.51	0.004376
1273.16	0.009186
1282.8	0.012336
1292.45	0.017356
1302.09	0.021976
1311.74	0.015396
1321.38	0.010846
1331.03	0.013856
1340.67	0.022526
1350.32	0.046746
1359.96	0.067556
1369.61	0.045616
1379.25	0.016886
1388.9	0.008426
1398.54	0.005626
1408.18	0.005316
1417.83	0.004726
1427.47	0.004276
1437.12	0.005096
1446.76	0.008096
1456.41	0.020076
1466.05	0.036376
1475.7	0.033486
1485.34	0.015076
1494.99	0.012626
1504.63	0.028276
1514.28	0.034656
1523.92	0.016786
1533.57	0.007886
1543.21	0.006066
1552.86	0.007926
1562.5	0.009336
1572.15	0.013176
1581.79	0.029156
1591.44	0.044176
1601.08	0.035206
1610.73	0.021286
1620.37	0.018546
1630.01	0.017156
1639.66	0.010986
1649.3	0.007466
1658.95	0.005966
1668.59	0.005986
1678.24	0.008866
1687.88	0.009676
1697.53	0.013786
1707.17	0.035916
1716.82	0.075676
1726.46	0.073286
1736.11	0.028976
1745.75	0.012506
1755.4	0.010586
1765.04	0.009376
1774.69	0.005706
1784.33	0.002936
1793.98	0.002066
1803.62	0.0015625
1813.27	0.0016199
1822.91	0.0015456
1832.55	0.0015707
1842.2	0.0014863
1851.84	0.0016757
1861.49	0.0012693
1871.13	0.0012545
1880.78	0.0014074
1890.42	0.0012091
1900.07	0.0015352
1909.71	0.0014951
1919.36	0.0018149
1929	0.001478
1938.65	0.0011157
1948.29	0.0013543
1957.94	0.0011463
1967.58	0.0010738
1977.23	0.0010887
1986.87	0.001206
1996.52	0.0010896
2006.16	0.0013578
2015.81	0.0011574
2025.45	0.0010444
2035.1	0.0011043
2044.74	0.0011685
2054.38	0.001193
2064.03	0.0010763
2073.67	0.0011521
2083.32	0.0009082
2092.96	0.00104761
2102.61	0.0009379
2112.25	0.0009517
2121.9	0.0010145
2131.54	0.00099308
2141.19	0.0012168
2150.83	0.0013536
2160.48	0.0012748
2170.12	0.00101411
2179.77	0.0012313
2189.41	0.0010723
2199.06	0.0011399
2208.7	0.0009374
2218.35	0.0009427
2227.99	0.00103954
2237.64	0.0011302
2247.28	0.001178
2256.92	0.0012474
2266.57	0.0010918
2276.21	0.0010965
2285.86	0.0011695
2295.5	0.0012466
2305.15	0.0008846
2314.79	0.0011177
2324.44	0.0015745
2334.08	0.0014434
2343.73	0.00098105
2353.37	0.0011042
2363.02	0.00101275
2372.66	0.0009232
2382.31	0.000835
2391.95	0.000775
2401.6	0.0008961
2411.24	0.00095648
2420.89	0.0013924
2430.53	0.0012293
2440.18	0.0014162
2449.82	0.0015935
2459.47	0.00123
2469.11	0.0013162
2478.75	0.0012612
2488.4	0.001102
2498.04	0.0013259
2507.69	0.0012246
2517.33	0.0013802
2526.98	0.0012767
2536.62	0.0011944
2546.27	0.0012879
2555.91	0.0013301
2565.56	0.0012863
2575.2	0.00099895
2584.85	0.0011143
2594.49	0.0009515
2604.14	0.0010758
2613.78	0.0012469
2623.43	0.0011586
2633.07	0.0008729
2642.72	0.0012244
2652.36	0.001507
2662.01	0.0008827
2671.65	0.00097977
2681.29	0.0014023
2690.94	0.0014019
2700.58	0.0011972
2710.23	0.0009202
2719.87	0.00101726
2729.52	0.0011028
2739.16	0.000799
2748.81	0.000855
2758.45	0.000811
2768.1	0.0011076
2777.74	0.0014159
2787.39	0.0015401
2797.03	0.0009387
2806.68	0.0011724
2816.32	0.001247
2825.97	0.0012725
2835.61	0.00106557
2845.26	0.0010524
2854.9	0.00106592
2864.55	0.000896
2874.19	0.000595
2883.84	0.0011041
2893.48	0.0011474
2903.12	0.0010976
2912.77	0.0013376
2922.41	0.0014697
2932.06	0.0011241
2941.7	0.0013468
2951.35	0.0011381
2960.99	0.0010832
2970.64	0.0011871
2980.28	0.0011177
2989.93	0.00083
2999.57	0.000692
3009.22	0.00104218
3018.86	0.0011771
3028.51	0.0014965
3038.15	0.000801
3047.8	0.0012623
3057.44	0.0012478
3067.09	0.00069
3076.73	0.0014783
3086.38	0.0014296
3096.02	0.0016147
3105.67	0.0014119
3115.31	0.001523
3124.95	0.0014228
3134.6	0.00095931
3144.24	0.00101589
3153.89	0.001186
3163.53	0.000623
3173.18	0.000617
3182.82	0.000677
3192.47	0.0012589
3202.11	0.00096279
3211.76	0.000788
3221.4	0.000614
3231.05	0.00100135
3240.69	0.0013062
3250.34	0.0013283
3259.98	0.000758
3269.63	0.0009119
3279.27	0.0011097
3288.92	0.000767
3298.56	0.000628
3308.21	0.00099505
3317.85	0.000649
3327.49	0.00095813
3337.14	0.0012223
3346.78	0.0009048
3356.43	0.0011318
3366.07	0.000799
3375.72	0.0011818
3385.36	0.0015427
3395.01	0.001435
3404.65	0.002646
3414.3	0.003856
3423.94	0.006456
3433.59	0.007636
3443.23	0.009846
3452.88	0.006976
3462.52	0.002616
3472.17	0.0016316
3481.81	0.0013414
3491.46	0.001472
3501.1	0.0018387
3510.75	0.002216
3520.39	0.003226
3530.04	0.004686
3539.68	0.005276
3549.32	0.006816
3558.97	0.009686
3568.61	0.012116
3578.26	0.006686
3587.9	0.002396
3597.55	0.001251
3607.19	0.001486
3616.84	0.0008913
3626.48	0.001147
3636.13	0.000681
3645.77	0.000693
3655.42	0.000838
3665.06	0.001159
3674.71	0.00104875
3684.35	0.0009412
3694	0.000615
3703.64	0.0010776
3713.29	0.00096095
3722.93	0.0010984
3732.58	0.0014443
3742.22	0.0009214
3751.86	0.0015464
3761.51	0.0016964
3771.15	0.0011052
3780.8	0.000819
3790.44	0.0012383
3800.09	0.0009218
3809.73	0.0011922
3819.38	0.000616
3829.02	0.000712
3838.67	0.0012165
3848.31	0.0012675
3857.96	0.000838
3867.6	0.0014738
3877.25	0.000644
3886.89	0.000752
3896.54	0.0012673
3906.18	0.00088
3915.83	0.000853
3925.47	0.0012692
3935.12	0.00054
3944.76	0.000807
3954.41	0.00097779
3964.05	0.000852
3973.69	0.000684
3983.34	0.001144
3992.98	0.00101857
