Infrared Spectrum: 2-Fluoro-5-(trifluoromethyl)benzyl alcohol
Formula: C 8 H 6 F 4 O
CAS: 207974-09-2
State: gas
Origin: EPA-IR VAPOR PHASE LIBRARY
1/CM	ABSORBANCE
549.8	0.010589
559.445	0.011139
569.09	0.011609
578.734	0.010009
588.379	0.007849
598.024	0.008589
607.669	0.014439
617.313	0.036309
626.958	0.028379
636.603	0.009259
646.248	0.005789
655.893	0.006059
665.537	0.006709
675.182	0.005309
684.827	0.003409
694.472	0.002209
704.116	0.002879
713.761	0.003229
723.406	0.004719
733.051	0.007139
742.695	0.006459
752.34	0.004959
761.985	0.006909
771.63	0.009369
781.275	0.009119
790.919	0.008239
800.564	0.006289
810.209	0.011029
819.854	0.031059
829.498	0.043389
839.143	0.021179
848.788	0.007149
858.433	0.004879
868.078	0.004769
877.722	0.008319
887.367	0.016359
897.012	0.026949
906.657	0.022989
916.301	0.013119
925.946	0.007899
935.591	0.007479
945.236	0.008489
954.88	0.010029
964.525	0.010689
974.17	0.009879
983.815	0.011279
993.46	0.014069
1003.1	0.018609
1012.75	0.027839
1022.39	0.042369
1032.04	0.050769
1041.68	0.045199
1051.33	0.032679
1060.97	0.031539
1070.62	0.072069
1080.26	0.077229
1089.91	0.030099
1099.55	0.026709
1109.2	0.054749
1118.84	0.086739
1128.49	0.108619
1138.13	0.205599
1147.78	0.320169
1157.42	0.229639
1167.07	0.286069
1176.71	0.321369
1186.36	0.145989
1196	0.058919
1205.64	0.036639
1215.29	0.033059
1224.93	0.033559
1234.58	0.038879
1244.22	0.046179
1253.87	0.051599
1263.51	0.067809
1273.16	0.080669
1282.8	0.051119
1292.45	0.029599
1302.09	0.036669
1311.74	0.073309
1321.38	0.237339
1331.03	0.400479
1340.67	0.162199
1350.32	0.044809
1359.96	0.033539
1369.61	0.029589
1379.25	0.025109
1388.9	0.020329
1398.54	0.016399
1408.18	0.015279
1417.83	0.016099
1427.47	0.014869
1437.12	0.009629
1446.76	0.006259
1456.41	0.006329
1466.05	0.008529
1475.7	0.009409
1485.34	0.011429
1494.99	0.027039
1504.63	0.051149
1514.28	0.030159
1523.92	0.008209
1533.57	0.005199
1543.21	0.004589
1552.86	0.004459
1562.5	0.004529
1572.15	0.005779
1581.79	0.009669
1591.44	0.017639
1601.08	0.028829
1610.73	0.028889
1620.37	0.027039
1630.01	0.021599
1639.66	0.012429
1649.3	0.007499
1658.95	0.005639
1668.59	0.003549
1678.24	0.002549
1687.88	0.002479
1697.53	0.001889
1707.17	0.001759
1716.82	0.001619
1726.46	0.0014577
1736.11	0.001619
1745.75	0.001739
1755.4	0.002319
1765.04	0.003429
1774.69	0.003279
1784.33	0.002669
1793.98	0.002529
1803.62	0.002599
1813.27	0.002179
1822.91	0.001719
1832.55	0.0013179
1842.2	0.0013369
1851.84	0.0014485
1861.49	0.001619
1871.13	0.002009
1880.78	0.003159
1890.42	0.004249
1900.07	0.003669
1909.71	0.002299
1919.36	0.001609
1929	0.0011556
1938.65	0.0011057
1948.29	0.000879
1957.94	0.0010742
1967.58	0.0009486
1977.23	0.0010744
1986.87	0.0011811
1996.52	0.0013751
2006.16	0.0013569
2015.81	0.001609
2025.45	0.001809
2035.1	0.001949
2044.74	0.001899
2054.38	0.001819
2064.03	0.002099
2073.67	0.002009
2083.32	0.001689
2092.96	0.0014845
2102.61	0.0010375
2112.25	0.00092
2121.9	0.0011737
2131.54	0.0011059
2141.19	0.000947
2150.83	0.0009104
2160.48	0.0007712
2170.12	0.001097
2179.77	0.0011132
2189.41	0.0010646
2199.06	0.001059
2208.7	0.0014898
2218.35	0.001719
2227.99	0.001859
2237.64	0.001689
2247.28	0.001739
2256.92	0.001799
2266.57	0.001899
2276.21	0.001859
2285.86	0.002049
2295.5	0.001649
2305.15	0.001649
2314.79	0.001669
2324.44	0.001689
2334.08	0.001849
2343.73	0.001659
2353.37	0.001949
2363.02	0.001629
2372.66	0.0011841
2382.31	0.0011471
2391.95	0.0012793
2401.6	0.0011703
2411.24	0.0010909
2420.89	0.0013169
2430.53	0.0009388
2440.18	0.0010669
2449.82	0.001479
2459.47	0.001253
2469.11	0.0014119
2478.75	0.001559
2488.4	0.0013881
2498.04	0.001739
2507.69	0.0013652
2517.33	0.0012035
2526.98	0.0012377
2536.62	0.0007523
2546.27	0.0007963
2555.91	0.0009629
2565.56	0.0009647
2575.2	0.0008225
2584.85	0.0010409
2594.49	0.0010958
2604.14	0.0011624
2613.78	0.0013765
2623.43	0.0009805
2633.07	0.0009617
2642.72	0.0011492
2652.36	0.0012268
2662.01	0.0011195
2671.65	0.0009181
2681.29	0.0009503
2690.94	0.0010293
2700.58	0.00061503
2710.23	0.0008473
2719.87	0.00063195
2729.52	0.0012582
2739.16	0.0011605
2748.81	0.0010946
2758.45	0.0012249
2768.1	0.0012963
2777.74	0.0010411
2787.39	0.0012375
2797.03	0.001689
2806.68	0.001719
2816.32	0.001589
2825.97	0.002079
2835.61	0.002799
2845.26	0.003259
2854.9	0.004219
2864.55	0.005059
2874.19	0.007239
2883.84	0.011019
2893.48	0.012989
2903.12	0.012219
2912.77	0.010599
2922.41	0.009779
2932.06	0.009569
2941.7	0.011749
2951.35	0.010829
2960.99	0.009249
2970.64	0.007579
2980.28	0.006749
2989.93	0.005359
2999.57	0.003629
3009.22	0.002419
3018.86	0.001819
3028.51	0.0014468
3038.15	0.0011614
3047.8	0.0007606
3057.44	0.0011292
3067.09	0.0012658
3076.73	0.001779
3086.38	0.002339
3096.02	0.001549
3105.67	0.0012085
3115.31	0.0010427
3124.95	0.0011076
3134.6	0.000829
3144.24	0.0006778
3153.89	0.00061169
3163.53	0.000931
3173.18	0.0007075
3182.82	0.0009495
3192.47	0.0007958
3202.11	0.0004911
3211.76	0.0007496
3221.4	0.0011208
3231.05	0.000547014
3240.69	0.0010601
3250.34	0.00060908
3259.98	0.00059304
3269.63	0.0010388
3279.27	0.00058472
3288.92	0.0012273
3298.56	0.00018
3308.21	0.000337
3317.85	0.0004394
3327.49	0.00031
3337.14	0.0008538
3346.78	0.0005279
3356.43	0.0006437
3366.07	0.000438
3375.72	0.0009669
3385.36	0.000963
3395.01	0.0013161
3404.65	0.0007582
3414.3	0.0012226
3423.94	0.001549
3433.59	0.0010114
3443.23	0.0011511
3452.88	0.0011071
3462.52	0.0013386
3472.17	0.001245
3481.81	0.001128
3491.46	0.00056153
3501.1	0.0014097
3510.75	0.0012746
3520.39	0.0008715
3530.04	0.0014644
3539.68	0.000712
3549.32	0.0013409
3558.97	0.0015072
3568.61	0.0009518
3578.26	0.001689
3587.9	0.0014256
3597.55	0.002329
3607.19	0.002199
3616.84	0.003259
3626.48	0.004049
3636.13	0.005279
3645.77	0.008839
3655.42	0.015939
3665.06	0.017649
3674.71	0.012439
3684.35	0.008279
3694	0.005799
3703.64	0.003679
3713.29	0.002429
3722.93	0.002339
3732.58	0.0015355
3742.22	0.001529
3751.86	0.0013818
3761.51	0.0009218
3771.15	0.001889
3780.8	0.001669
3790.44	0.0015309
3800.09	0.0014292
3809.73	0.001799
3819.38	0.0010821
3829.02	0.000889
3838.67	0.001619
3848.31	0.0010419
3857.96	0.0012296
3867.6	0.0014905
3877.25	0.0010226
3886.89	0.0010776
3896.54	0.0014709
3906.18	0.0011086
3915.83	0.0010738
3925.47	0.0010604
3935.12	0.0007913
3944.76	0.0009342
3954.41	0.0006955
3964.05	0.0013113
3973.69	0.0008672
3983.34	0.0010974
3992.98	0.0009624
