Infrared Spectrum: 4-Fluoro-2-(trifluoromethyl)benzamide
Formula: C 8 H 5 F 4 N O
CAS: 207919-06-0
State: gas
Origin: EPA-IR VAPOR PHASE LIBRARY
1/CM	ABSORBANCE
549.8	0.003974
559.445	0.004104
569.09	0.002704
578.734	0.002974
588.379	0.003024
598.024	0.004904
607.669	0.003044
617.313	0.002994
626.958	0.001604
636.603	0.0010139
646.248	0.001854
655.893	0.002204
665.537	0.003394
675.182	0.002154
684.827	0.002164
694.472	0.002374
704.116	0.002954
713.761	0.002104
723.406	0.002004
733.051	0.002644
742.695	0.003984
752.34	0.005244
761.985	0.003134
771.63	0.004264
781.275	0.003924
790.919	0.003164
800.564	0.003254
810.209	0.003604
819.854	0.003884
829.498	0.005164
839.143	0.006554
848.788	0.004244
858.433	0.002594
868.078	0.003404
877.722	0.006414
887.367	0.009944
897.012	0.007744
906.657	0.014114
916.301	0.012674
925.946	0.004304
935.591	0.002304
945.236	0.002664
954.88	0.002464
964.525	0.002564
974.17	0.002044
983.815	0.001884
993.46	0.001564
1003.1	0.001634
1012.75	0.001514
1022.39	0.002664
1032.04	0.004904
1041.68	0.009644
1051.33	0.007094
1060.97	0.002734
1070.62	0.001824
1080.26	0.003154
1089.91	0.003854
1099.55	0.003674
1109.2	0.007194
1118.84	0.011304
1128.49	0.017584
1138.13	0.027224
1147.78	0.029404
1157.42	0.024904
1167.07	0.031414
1176.71	0.045364
1186.36	0.038184
1196	0.019314
1205.64	0.010744
1215.29	0.012894
1224.93	0.008344
1234.58	0.006124
1244.22	0.008914
1253.87	0.014044
1263.51	0.017164
1273.16	0.016854
1282.8	0.015504
1292.45	0.011544
1302.09	0.020454
1311.74	0.041564
1321.38	0.037144
1331.03	0.023404
1340.67	0.037184
1350.32	0.045304
1359.96	0.024814
1369.61	0.009744
1379.25	0.006634
1388.9	0.005224
1398.54	0.005544
1408.18	0.007744
1417.83	0.012054
1427.47	0.010084
1437.12	0.003244
1446.76	0.002044
1456.41	0.002164
1466.05	0.002644
1475.7	0.003514
1485.34	0.004714
1494.99	0.007964
1504.63	0.006974
1514.28	0.003504
1523.92	0.001904
1533.57	0.001634
1543.21	0.001694
1552.86	0.002214
1562.5	0.002954
1572.15	0.005544
1581.79	0.013984
1591.44	0.021744
1601.08	0.017224
1610.73	0.012724
1620.37	0.008914
1630.01	0.005474
1639.66	0.003984
1649.3	0.003064
1658.95	0.002884
1668.59	0.003434
1678.24	0.004604
1687.88	0.005834
1697.53	0.006214
1707.17	0.009594
1716.82	0.026464
1726.46	0.052474
1736.11	0.036654
1745.75	0.013614
1755.4	0.006874
1765.04	0.005754
1774.69	0.003854
1784.33	0.002474
1793.98	0.002014
1803.62	0.001714
1813.27	0.001337
1822.91	0.001394
1832.55	0.0011466
1842.2	0.0010056
1851.84	0.0007906
1861.49	0.0009526
1871.13	0.0008815
1880.78	0.0009987
1890.42	0.001184
1900.07	0.0009894
1909.71	0.0011879
1919.36	0.0011515
1929	0.0010237
1938.65	0.0009552
1948.29	0.0007229
1957.94	0.0006539
1967.58	0.0007522
1977.23	0.0007262
1986.87	0.0006971
1996.52	0.000669
2006.16	0.0007706
2015.81	0.0005972
2025.45	0.0005961
2035.1	0.0006371
2044.74	0.0006143
2054.38	0.0009393
2064.03	0.0007236
2073.67	0.0009695
2083.32	0.0006578
2092.96	0.000794
2102.61	0.0006863
2112.25	0.0009204
2121.9	0.001128
2131.54	0.0008773
2141.19	0.000517
2150.83	0.0005936
2160.48	0.0007635
2170.12	0.0006972
2179.77	0.0007697
2189.41	0.0007678
2199.06	0.000592
2208.7	0.0011326
2218.35	0.0007119
2227.99	0.0009224
2237.64	0.0006596
2247.28	0.0011657
2256.92	0.0007366
2266.57	0.0008663
2276.21	0.0009205
2285.86	0.0007814
2295.5	0.0008086
2305.15	0.000563
2314.79	0.0008347
2324.44	0.0005987
2334.08	0.0008366
2343.73	0.0005292
2353.37	0.0005976
2363.02	0.0009188
2372.66	0.0004942
2382.31	0.0008931
2391.95	0.0008743
2401.6	0.0008878
2411.24	0.0008663
2420.89	0.0007708
2430.53	0.0008916
2440.18	0.0007614
2449.82	0.0009517
2459.47	0.0006315
2469.11	0.0005254
2478.75	0.0009712
2488.4	0.0009261
2498.04	0.0009887
2507.69	0.0008282
2517.33	0.0008472
2526.98	0.0006622
2536.62	0.0008319
2546.27	0.00040733
2555.91	0.0008051
2565.56	0.0006506
2575.2	0.0006448
2584.85	0.0004687
2594.49	0.0010518
2604.14	0.0007459
2613.78	0.0006538
2623.43	0.0004
2633.07	0.0002999
2642.72	0.0010092
2652.36	0.0006156
2662.01	0.000674
2671.65	0.0008035
2681.29	0.0008802
2690.94	0.00074
2700.58	0.00044105
2710.23	0.0006145
2719.87	0.0010232
2729.52	0.0008336
2739.16	0.00041456
2748.81	0.0005149
2758.45	0.0008939
2768.1	0.0003242
2777.74	0.0008872
2787.39	0.0007601
2797.03	0.0009609
2806.68	0.0005226
2816.32	0.0005552
2825.97	0.0006096
2835.61	0.0007803
2845.26	0.0010609
2854.9	0.0005841
2864.55	0.0012553
2874.19	0.0009976
2883.84	0.0007285
2893.48	0.0007699
2903.12	0.0005143
2912.77	0.0007182
2922.41	0.0011481
2932.06	0.0006354
2941.7	0.0011223
2951.35	0.0005648
2960.99	0.0005895
2970.64	0.0005999
2980.28	0.0006794
2989.93	0.0010265
2999.57	0.0010399
3009.22	0.0010191
3018.86	0.0006617
3028.51	0.0007478
3038.15	0.001444
3047.8	0.0004872
3057.44	0.0012473
3067.09	0.0008517
3076.73	0.0013484
3086.38	0.001414
3096.02	0.0009081
3105.67	0.000367544
3115.31	0.0005997
3124.95	0.0008719
3134.6	0.0005237
3144.24	0.000974
3153.89	0.000183
3163.53	0.0008743
3173.18	0.0005544
3182.82	0.0009663
3192.47	0.0005436
3202.11	0.0006476
3211.76	0.0005824
3221.4	0.0003481
3231.05	0.000119
3240.69	0.0010228
3250.34	0.000268
3259.98	0.0006685
3269.63	0.0006898
3279.27	0.0009619
3288.92	0.000203
3298.56	0.0007868
3308.21	0.0008345
3317.85	0.0005918
3327.49	0.0006394
3337.14	0.0007291
3346.78	0.0010916
3356.43	0.001534
3366.07	0.0013023
3375.72	0.00040183
3385.36	0.001454
3395.01	0.001794
3404.65	0.002504
3414.3	0.004174
3423.94	0.006114
3433.59	0.006964
3443.23	0.004414
3452.88	0.002114
3462.52	0.001434
3472.17	0.0011233
3481.81	0.000618
3491.46	0.0012584
3501.1	0.0011434
3510.75	0.0012104
3520.39	0.002064
3530.04	0.002904
3539.68	0.004014
3549.32	0.005294
3558.97	0.004954
3568.61	0.002934
3578.26	0.0011232
3587.9	0.0012132
3597.55	0.001494
3607.19	0.001394
3616.84	0.0004077
3626.48	0.00035412
3636.13	0.0009114
3645.77	0.0006387
3655.42	0.0007634
3665.06	0.0006969
3674.71	0.00119
3684.35	0.0005698
3694	0.0010351
3703.64	0.0007638
3713.29	0.0007947
3722.93	0.0010463
3732.58	0.0009519
3742.22	0.0012375
3751.86	0.000365322
3761.51	0.0008141
3771.15	0.0006905
3780.8	0.00043739
3790.44	0.0005511
3800.09	0.0006071
3809.73	0.0012712
3819.38	0.000106
3829.02	0.0010119
3838.67	0.0007705
3848.31	0.0006907
3857.96	0.001404
3867.6	0.0005729
3877.25	0.0011295
3886.89	0.001154
3896.54	0.0002666
3906.18	0.0005676
3915.83	0.000838
3925.47	0.00025
3935.12	0.0011793
3944.76	0
3954.41	0.00040697
3964.05	0.0006591
3973.69	0.001404
3983.34	0.0005304
3992.98	0.0003356
