Infrared Spectrum: 3-Amino-4-(methylthio)benzotrifluoride
Formula: C 8 H 8 F 3 N S
CAS: 207974-07-0
State: gas
Origin: EPA-IR VAPOR PHASE LIBRARY
1/CM	ABSORBANCE
549.8	0.014324
559.445	0.015114
569.09	0.016594
578.734	0.013634
588.379	0.013194
598.024	0.014064
607.669	0.013864
617.313	0.013454
626.958	0.013104
636.603	0.013064
646.248	0.014864
655.893	0.017934
665.537	0.018184
675.182	0.016314
684.827	0.017344
694.472	0.015874
704.116	0.013654
713.761	0.014174
723.406	0.014934
733.051	0.016574
742.695	0.029074
752.34	0.024384
761.985	0.010284
771.63	0.010634
781.275	0.012304
790.919	0.015024
800.564	0.025034
810.209	0.035364
819.854	0.024374
829.498	0.014354
839.143	0.011594
848.788	0.014064
858.433	0.023984
868.078	0.034394
877.722	0.024824
887.367	0.016064
897.012	0.017594
906.657	0.030414
916.301	0.043794
925.946	0.024244
935.591	0.011944
945.236	0.009294
954.88	0.010074
964.525	0.014764
974.17	0.017154
983.815	0.010514
993.46	0.007874
1003.1	0.008064
1012.75	0.007604
1022.39	0.008104
1032.04	0.008094
1041.68	0.009934
1051.33	0.009784
1060.97	0.014344
1070.62	0.031874
1080.26	0.102304
1089.91	0.123174
1099.55	0.045364
1109.2	0.035194
1118.84	0.048104
1128.49	0.102224
1138.13	0.224034
1147.78	0.303904
1157.42	0.169714
1167.07	0.197194
1176.71	0.208364
1186.36	0.092304
1196	0.036214
1205.64	0.021514
1215.29	0.019774
1224.93	0.028404
1234.58	0.070414
1244.22	0.103504
1253.87	0.038964
1263.51	0.026044
1273.16	0.056744
1282.8	0.066194
1292.45	0.023834
1302.09	0.022084
1311.74	0.037364
1321.38	0.119284
1331.03	0.349294
1340.67	0.241654
1350.32	0.053534
1359.96	0.022324
1369.61	0.015034
1379.25	0.012754
1388.9	0.014064
1398.54	0.019174
1408.18	0.032834
1417.83	0.070464
1427.47	0.120244
1437.12	0.093174
1446.76	0.037544
1456.41	0.015924
1466.05	0.010894
1475.7	0.013264
1485.34	0.017754
1494.99	0.016034
1504.63	0.008924
1514.28	0.005594
1523.92	0.005364
1533.57	0.005294
1543.21	0.006114
1552.86	0.008384
1562.5	0.013104
1572.15	0.018074
1581.79	0.024504
1591.44	0.040154
1601.08	0.063754
1610.73	0.083784
1620.37	0.078954
1630.01	0.048644
1639.66	0.024494
1649.3	0.013984
1658.95	0.009294
1668.59	0.006854
1678.24	0.005164
1687.88	0.004354
1697.53	0.003794
1707.17	0.003464
1716.82	0.003704
1726.46	0.005044
1736.11	0.005334
1745.75	0.005054
1755.4	0.004564
1765.04	0.003274
1774.69	0.002974
1784.33	0.002564
1793.98	0.002334
1803.62	0.002344
1813.27	0.002084
1822.91	0.002234
1832.55	0.002344
1842.2	0.002274
1851.84	0.002464
1861.49	0.002614
1871.13	0.002934
1880.78	0.003404
1890.42	0.003374
1900.07	0.002704
1909.71	0.002074
1919.36	0.001944
1929	0.001814
1938.65	0.001714
1948.29	0.0013875
1957.94	0.001614
1967.58	0.0014511
1977.23	0.001484
1986.87	0.0013854
1996.52	0.001604
2006.16	0.001684
2015.81	0.001634
2025.45	0.0013362
2035.1	0.0013878
2044.74	0.0014253
2054.38	0.001684
2064.03	0.001774
2073.67	0.002274
2083.32	0.002254
2092.96	0.001944
2102.61	0.0014385
2112.25	0.0013859
2121.9	0.0012456
2131.54	0.001464
2141.19	0.0014619
2150.83	0.001824
2160.48	0.001694
2170.12	0.001694
2179.77	0.001984
2189.41	0.001744
2199.06	0.001744
2208.7	0.001744
2218.35	0.001674
2227.99	0.0014352
2237.64	0.001804
2247.28	0.001894
2256.92	0.001884
2266.57	0.001944
2276.21	0.002444
2285.86	0.002004
2295.5	0.001794
2305.15	0.001814
2314.79	0.001734
2324.44	0.001844
2334.08	0.001984
2343.73	0.002094
2353.37	0.001774
2363.02	0.001544
2372.66	0.001564
2382.31	0.0011418
2391.95	0.0014113
2401.6	0.0010822
2411.24	0.001021
2420.89	0.0011752
2430.53	0.0013163
2440.18	0.001066
2449.82	0.0010344
2459.47	0.0012459
2469.11	0.001464
2478.75	0.001614
2488.4	0.001534
2498.04	0.0011707
2507.69	0.001584
2517.33	0.001614
2526.98	0.0014638
2536.62	0.001794
2546.27	0.001824
2555.91	0.001694
2565.56	0.0011981
2575.2	0.0012924
2584.85	0.0013352
2594.49	0.0012007
2604.14	0.0014518
2613.78	0.001924
2623.43	0.001694
2633.07	0.0013573
2642.72	0.0012933
2652.36	0.0012703
2662.01	0.0012307
2671.65	0.0010208
2681.29	0.0008688
2690.94	0.0008958
2700.58	0.0011452
2710.23	0.0010492
2719.87	0.0007213
2729.52	0.0010541
2739.16	0.0008609
2748.81	0.0005926
2758.45	0.0010983
2768.1	0.001464
2777.74	0.0008578
2787.39	0.0009591
2797.03	0.0011926
2806.68	0.0013728
2816.32	0.001704
2825.97	0.002194
2835.61	0.002854
2845.26	0.004344
2854.9	0.004174
2864.55	0.003554
2874.19	0.003554
2883.84	0.003354
2893.48	0.002804
2903.12	0.003294
2912.77	0.005334
2922.41	0.011144
2932.06	0.023844
2941.7	0.016654
2951.35	0.006024
2960.99	0.003294
2970.64	0.003354
2980.28	0.003704
2989.93	0.006054
2999.57	0.008244
3009.22	0.006204
3018.86	0.003614
3028.51	0.004044
3038.15	0.004734
3047.8	0.004884
3057.44	0.003984
3067.09	0.003764
3076.73	0.003864
3086.38	0.005054
3096.02	0.004504
3105.67	0.002754
3115.31	0.002384
3124.95	0.002304
3134.6	0.001944
3144.24	0.001464
3153.89	0.0008623
3163.53	0.0014052
3173.18	0.0013594
3182.82	0.002134
3192.47	0.0014511
3202.11	0.0014559
3211.76	0.0013901
3221.4	0.001634
3231.05	0.0007708
3240.69	0.0011563
3250.34	0.0003732
3259.98	0.0009117
3269.63	0.000902
3279.27	0.0006424
3288.92	0.000339
3298.56	0.0005817
3308.21	0.0011109
3317.85	0.00078
3327.49	0.0008528
3337.14	0.0010094
3346.78	0.002054
3356.43	0.002374
3366.07	0.004294
3375.72	0.010824
3385.36	0.021274
3395.01	0.018544
3404.65	0.008174
3414.3	0.004054
3423.94	0.002914
3433.59	0.002784
3443.23	0.002534
3452.88	0.003684
3462.52	0.003984
3472.17	0.006804
3481.81	0.012764
3491.46	0.020664
3501.1	0.018404
3510.75	0.009534
3520.39	0.004624
3530.04	0.002164
3539.68	0.002514
3549.32	0.001814
3558.97	0.001744
3568.61	0.0014291
3578.26	0.0012707
3587.9	0.0008235
3597.55	0.0011381
3607.19	0.0009585
3616.84	0.0010747
3626.48	0.0009431
3636.13	0.0011911
3645.77	0.001874
3655.42	0.0008636
3665.06	0.0006141
3674.71	0.0012312
3684.35	0.0011184
3694	0.0004148
3703.64	0.00053974
3713.29	0.0006505
3722.93	0.0010519
3732.58	0.0009477
3742.22	0.0008844
3751.86	0.0007055
3761.51	0.0010263
3771.15	0.00055521
3780.8	0.000856
3790.44	0.0010844
3800.09	0.001554
3809.73	0.0011482
3819.38	0.0014223
3829.02	0.0006967
3838.67	0.0012236
3848.31	0.0013573
3857.96	0.0007376
3867.6	0.0010652
3877.25	0.0010591
3886.89	0.000844
3896.54	0.0012013
3906.18	0.0011589
3915.83	0.001313
3925.47	0.0012772
3935.12	0.0011699
3944.76	0.0010058
3954.41	0.0013082
3964.05	0.0014251
3973.69	0.0014025
3983.34	0.001824
3992.98	0.001744
