Infrared Spectrum: 2-(2-Chloro-1,1,2-trifluoroethylthio)phenyl isothiocyanate
Formula: C 9 H 5 Cl F 3 N S 2
CAS: 207919-07-1
State: gas
Origin: EPA-IR VAPOR PHASE LIBRARY
1/CM	ABSORBANCE
549.8	0.02342
559.445	0.02563
569.09	0.02424
578.734	0.02203
588.379	0.02068
598.024	0.03195
607.669	0.05126
617.313	0.03346
626.958	0.02154
636.603	0.01252
646.248	0.01073
655.893	0.01504
665.537	0.01666
675.182	0.0085
684.827	0.00856
694.472	0.01179
704.116	0.01622
713.761	0.0252
723.406	0.03984
733.051	0.04919
742.695	0.06561
752.34	0.22065
761.985	0.17897
771.63	0.09817
781.275	0.05882
790.919	0.07475
800.564	0.08562
810.209	0.04117
819.854	0.04112
829.498	0.0675
839.143	0.09156
848.788	0.09142
858.433	0.05285
868.078	0.02062
877.722	0.01052
887.367	0.00988
897.012	0.0113
906.657	0.01519
916.301	0.02013
925.946	0.03064
935.591	0.05254
945.236	0.07965
954.88	0.06938
964.525	0.06192
974.17	0.10689
983.815	0.14443
993.46	0.10484
1003.1	0.04931
1012.75	0.03623
1022.39	0.04301
1032.04	0.0573
1041.68	0.07599
1051.33	0.09552
1060.97	0.08747
1070.62	0.10625
1080.26	0.15618
1089.91	0.21546
1099.55	0.21398
1109.2	0.17025
1118.84	0.12717
1128.49	0.07886
1138.13	0.05036
1147.78	0.04289
1157.42	0.04698
1167.07	0.04663
1176.71	0.05148
1186.36	0.08448
1196	0.10162
1205.64	0.05252
1215.29	0.02375
1224.93	0.01676
1234.58	0.0153
1244.22	0.01939
1253.87	0.02402
1263.51	0.03601
1273.16	0.03913
1282.8	0.02757
1292.45	0.01511
1302.09	0.00808
1311.74	0.00718
1321.38	0.01179
1331.03	0.03022
1340.67	0.02618
1350.32	0.00956
1359.96	0.00523
1369.61	0.00444
1379.25	0.00467
1388.9	0.0063
1398.54	0.00636
1408.18	0.00606
1417.83	0.00814
1427.47	0.01794
1437.12	0.03857
1446.76	0.03194
1456.41	0.04601
1466.05	0.1297
1475.7	0.09576
1485.34	0.0252
1494.99	0.0126
1504.63	0.01235
1514.28	0.00923
1523.92	0.00654
1533.57	0.00706
1543.21	0.00948
1552.86	0.01714
1562.5	0.039
1572.15	0.05996
1581.79	0.07975
1591.44	0.0357
1601.08	0.01415
1610.73	0.01146
1620.37	0.00881
1630.01	0.00544
1639.66	0.0042
1649.3	0.00399
1658.95	0.00403
1668.59	0.004
1678.24	0.00448
1687.88	0.00585
1697.53	0.00785
1707.17	0.00682
1716.82	0.00678
1726.46	0.00719
1736.11	0.00542
1745.75	0.00464
1755.4	0.00472
1765.04	0.00447
1774.69	0.00495
1784.33	0.00503
1793.98	0.00642
1803.62	0.00841
1813.27	0.00789
1822.91	0.00822
1832.55	0.0098
1842.2	0.01076
1851.84	0.01119
1861.49	0.01288
1871.13	0.01516
1880.78	0.01893
1890.42	0.02309
1900.07	0.02442
1909.71	0.0273
1919.36	0.03505
1929	0.04277
1938.65	0.05578
1948.29	0.07675
1957.94	0.1014
1967.58	0.13192
1977.23	0.17691
1986.87	0.23572
1996.52	0.3096
2006.16	0.39773
2015.81	0.49936
2025.45	0.62611
2035.1	0.76814
2044.74	0.86815
2054.38	0.84883
2064.03	0.7204
2073.67	0.57224
2083.32	0.47318
2092.96	0.43082
2102.61	0.40476
2112.25	0.3562
2121.9	0.28996
2131.54	0.22668
2141.19	0.17024
2150.83	0.12408
2160.48	0.09231
2170.12	0.07405
2179.77	0.06374
2189.41	0.05744
2199.06	0.04885
2208.7	0.03924
2218.35	0.03315
2227.99	0.02777
2237.64	0.02103
2247.28	0.01434
2256.92	0.01013
2266.57	0.00841
2276.21	0.00737
2285.86	0.00704
2295.5	0.00671
2305.15	0.00692
2314.79	0.00703
2324.44	0.00725
2334.08	0.00639
2343.73	0.00602
2353.37	0.00572
2363.02	0.00537
2372.66	0.00516
2382.31	0.00523
2391.95	0.00525
2401.6	0.00582
2411.24	0.00594
2420.89	0.00573
2430.53	0.00554
2440.18	0.00562
2449.82	0.00617
2459.47	0.00649
2469.11	0.00711
2478.75	0.00788
2488.4	0.00835
2498.04	0.00841
2507.69	0.00913
2517.33	0.01045
2526.98	0.01132
2536.62	0.01146
2546.27	0.01155
2555.91	0.01242
2565.56	0.0132
2575.2	0.01331
2584.85	0.01247
2594.49	0.01054
2604.14	0.00825
2613.78	0.00629
2623.43	0.005
2633.07	0.00452
2642.72	0.00419
2652.36	0.00397
2662.01	0.00432
2671.65	0.00429
2681.29	0.00436
2690.94	0.00476
2700.58	0.00562
2710.23	0.00641
2719.87	0.0066
2729.52	0.00691
2739.16	0.00636
2748.81	0.00683
2758.45	0.00717
2768.1	0.00769
2777.74	0.00722
2787.39	0.00631
2797.03	0.00511
2806.68	0.00383
2816.32	0.0034
2825.97	0.00336
2835.61	0.00285
2845.26	0.0026148
2854.9	0.0025361
2864.55	0.0019404
2874.19	0.0018383
2883.84	0.0017605
2893.48	0.001519
2903.12	0.00204
2912.77	0.0021521
2922.41	0.00289
2932.06	0.00275
2941.7	0.00298
2951.35	0.00333
2960.99	0.0042
2970.64	0.00576
2980.28	0.00995
2989.93	0.01264
2999.57	0.01121
3009.22	0.00684
3018.86	0.00664
3028.51	0.00566
3038.15	0.00448
3047.8	0.0054
3057.44	0.00894
3067.09	0.02358
3076.73	0.03183
3086.38	0.01271
3096.02	0.00658
3105.67	0.00352
3115.31	0.00289
3124.95	0.00422
3134.6	0.00369
3144.24	0.0018779
3153.89	0.00168111
3163.53	0.001393
3173.18	0.001345
3182.82	0.000954
3192.47	0.000839
3202.11	0.00031
3211.76	0.000941
3221.4	0.00024
3231.05	0.000741
3240.69	0.001042
3250.34	0.000815
3259.98	0.00053
3269.63	0.00037
3279.27	0.000673
3288.92	0.000971
3298.56	0.00098
3308.21	0.00056
3317.85	0.00059
3327.49	0.000834
3337.14	0.000945
3346.78	0.001258
3356.43	0.00062
3366.07	0.000773
3375.72	0.00062
3385.36	0.00082
3395.01	0.00033
3404.65	0.00065
3414.3	0.000905
3423.94	0.00042
3433.59	0.000971
3443.23	0.000988
3452.88	0.000986
3462.52	0.00098
3472.17	0.001013
3481.81	0.000772
3491.46	0.000866
3501.1	0.001373
3510.75	0.000912
3520.39	0.000895
3530.04	0.000932
3539.68	0.000905
3549.32	0.000894
3558.97	0.000806
3568.61	0.00057
3578.26	0.00052
3587.9	0.00061
3597.55	0.000778
3607.19	0.00035
3616.84	0.000701
3626.48	0.000661
3636.13	0.000834
3645.77	0.001208
3655.42	0.001159
3665.06	0.00056
3674.71	0.0005
3684.35	0.0006
3694	0.000874
3703.64	0.00094
3713.29	0.000668
3722.93	0.001103
3732.58	0.00086
3742.22	0.001242
3751.86	0.00134
3761.51	0.001551
3771.15	0.000778
3780.8	0.000853
3790.44	0.001357
3800.09	0.001331
3809.73	0.001092
3819.38	0.00107
3829.02	0.001239
3838.67	0.001309
3848.31	0.000936
3857.96	0.001201
3867.6	0.001176
3877.25	0.001504
3886.89	0.001417
3896.54	0.001288
3906.18	0.0015547
3915.83	0.0023733
3925.47	0.0021569
3935.12	0.0024533
3944.76	0.00213
3954.41	0.0023398
3964.05	0.00294
3973.69	0.00272
3983.34	0.00307
3992.98	0.00304
