Infrared Spectrum: 2-Fluoro-4-(trifluoromethyl)benzophenone
Formula: C 14 H 8 F 4 O
CAS: 207974-08-1
State: gas
Origin: EPA-IR VAPOR PHASE LIBRARY
1/CM	ABSORBANCE
549.8	0.008306
559.445	0.007106
569.09	0.005446
578.734	0.002946
588.379	0.003896
598.024	0.006736
607.669	0.003306
617.313	0.003386
626.958	0.002116
636.603	0.002496
646.248	0.005686
655.893	0.008446
665.537	0.013586
675.182	0.014016
684.827	0.020546
694.472	0.037746
704.116	0.055736
713.761	0.024696
723.406	0.011376
733.051	0.011166
742.695	0.029116
752.34	0.018246
761.985	0.006456
771.63	0.004706
781.275	0.004486
790.919	0.006186
800.564	0.006456
810.209	0.005146
819.854	0.007856
829.498	0.019186
839.143	0.021356
848.788	0.008086
858.433	0.005916
868.078	0.008806
877.722	0.026176
887.367	0.031836
897.012	0.020486
906.657	0.016036
916.301	0.017676
925.946	0.035106
935.591	0.123996
945.236	0.084816
954.88	0.018286
964.525	0.010526
974.17	0.005406
983.815	0.004486
993.46	0.004186
1003.1	0.006276
1012.75	0.002686
1022.39	0.005756
1032.04	0.005036
1041.68	0.005976
1051.33	0.012996
1060.97	0.053486
1070.62	0.041666
1080.26	0.013376
1089.91	0.012636
1099.55	0.012306
1109.2	0.023016
1118.84	0.046546
1128.49	0.044396
1138.13	0.073956
1147.78	0.187846
1157.42	0.217596
1167.07	0.115266
1176.71	0.172116
1186.36	0.130936
1196	0.045836
1205.64	0.045136
1215.29	0.074716
1224.93	0.044516
1234.58	0.063796
1244.22	0.082846
1253.87	0.042326
1263.51	0.036086
1273.16	0.067036
1282.8	0.076246
1292.45	0.069866
1302.09	0.056626
1311.74	0.068676
1321.38	0.142516
1331.03	0.306606
1340.67	0.083536
1350.32	0.021736
1359.96	0.011416
1369.61	0.009196
1379.25	0.009456
1388.9	0.012826
1398.54	0.026536
1408.18	0.049986
1417.83	0.094926
1427.47	0.100326
1437.12	0.036126
1446.76	0.033856
1456.41	0.018606
1466.05	0.008476
1475.7	0.008646
1485.34	0.011086
1494.99	0.020666
1504.63	0.028686
1514.28	0.014266
1523.92	0.007226
1533.57	0.006006
1543.21	0.006436
1552.86	0.007246
1562.5	0.008736
1572.15	0.014486
1581.79	0.019206
1591.44	0.017146
1601.08	0.016166
1610.73	0.010226
1620.37	0.012936
1630.01	0.011666
1639.66	0.009626
1649.3	0.010176
1658.95	0.011936
1668.59	0.019046
1678.24	0.045466
1687.88	0.105956
1697.53	0.078226
1707.17	0.030786
1716.82	0.015766
1726.46	0.010366
1736.11	0.006546
1745.75	0.004836
1755.4	0.005526
1765.04	0.006186
1774.69	0.004536
1784.33	0.003636
1793.98	0.003286
1803.62	0.003766
1813.27	0.003546
1822.91	0.002626
1832.55	0.002086
1842.2	0.001572
1851.84	0.0017174
1861.49	0.0016287
1871.13	0.001509
1880.78	0.001846
1890.42	0.002536
1900.07	0.003206
1909.71	0.003546
1919.36	0.003106
1929	0.002086
1938.65	0.002016
1948.29	0.002186
1957.94	0.002736
1967.58	0.002356
1977.23	0.002226
1986.87	0.00144
1996.52	0.0013893
2006.16	0.0010935
2015.81	0.0009972
2025.45	0.0010905
2035.1	0.0011691
2044.74	0.0011538
2054.38	0.0013251
2064.03	0.0014079
2073.67	0.001886
2083.32	0.0013666
2092.96	0.0012592
2102.61	0.0014266
2112.25	0.0013385
2121.9	0.0012181
2131.54	0.0010475
2141.19	0.0011819
2150.83	0.0011505
2160.48	0.0010754
2170.12	0.0011404
2179.77	0.0011765
2189.41	0.0011363
2199.06	0.0012235
2208.7	0.0013388
2218.35	0.0012828
2227.99	0.001323
2237.64	0.0013454
2247.28	0.0013488
2256.92	0.0013495
2266.57	0.0014225
2276.21	0.0015509
2285.86	0.0017109
2295.5	0.0014837
2305.15	0.0014415
2314.79	0.001936
2324.44	0.001866
2334.08	0.0016583
2343.73	0.001727
2353.37	0.001796
2363.02	0.001566
2372.66	0.0012143
2382.31	0.0011441
2391.95	0.0016412
2401.6	0.0015334
2411.24	0.0012012
2420.89	0.0014143
2430.53	0.0012069
2440.18	0.0014059
2449.82	0.0012502
2459.47	0.0010501
2469.11	0.0012342
2478.75	0.0009945
2488.4	0.0012419
2498.04	0.0011506
2507.69	0.0010922
2517.33	0.0015843
2526.98	0.0015271
2536.62	0.0011658
2546.27	0.0010228
2555.91	0.0010214
2565.56	0.0014814
2575.2	0.0010997
2584.85	0.0013064
2594.49	0.0012056
2604.14	0.0013034
2613.78	0.00085856
2623.43	0.0012635
2633.07	0.0012809
2642.72	0.0012895
2652.36	0.0013019
2662.01	0.0010031
2671.65	0.0007332
2681.29	0.000508
2690.94	0.0007249
2700.58	0.000791187
2710.23	0.0011429
2719.87	0.0011937
2729.52	0.0013523
2739.16	0.0012362
2748.81	0.001301
2758.45	0.00109
2768.1	0.0007462
2777.74	0.00080044
2787.39	0.00087882
2797.03	0.0007103
2806.68	0.000790762
2816.32	0.00087854
2825.97	0.0008349
2835.61	0.0011848
2845.26	0.001103
2854.9	0.0013776
2864.55	0.0011145
2874.19	0.0015918
2883.84	0.0013981
2893.48	0.001131
2903.12	0.0010278
2912.77	0.0012666
2922.41	0.00081083
2932.06	0.0010622
2941.7	0.0013944
2951.35	0.001569
2960.99	0.0013782
2970.64	0.0009034
2980.28	0.00080388
2989.93	0.001148
2999.57	0.0014917
3009.22	0.001956
3018.86	0.002706
3028.51	0.005376
3038.15	0.007086
3047.8	0.005886
3057.44	0.007336
3067.09	0.014256
3076.73	0.017466
3086.38	0.013626
3096.02	0.009866
3105.67	0.005356
3115.31	0.002556
3124.95	0.0014134
3134.6	0.0007622
3144.24	0.0012584
3153.89	0.0014427
3163.53	0.0012186
3173.18	0.0008716
3182.82	0.000513
3192.47	0.0010083
3202.11	0.000471
3211.76	0.0007001
3221.4	0.000552
3231.05	0.00081886
3240.69	0.000586
3250.34	0.00066
3259.98	0.0010854
3269.63	0.0014579
3279.27	0.0009149
3288.92	0.0009326
3298.56	0.00085902
3308.21	0.0009716
3317.85	0.00067
3327.49	0.0012678
3337.14	0.0012797
3346.78	0.0014648
3356.43	0.0016525
3366.07	0.002436
3375.72	0.0015168
3385.36	0.0011437
3395.01	0.0008868
3404.65	0.0007045
3414.3	0.0010893
3423.94	0.0011428
3433.59	0.000636
3443.23	0.00087102
3452.88	0.0007203
3462.52	0.000642
3472.17	0.000549
3481.81	0.000644
3491.46	0.000609
3501.1	0.00048
3510.75	0.0007742
3520.39	0.0013354
3530.04	0.0007112
3539.68	0.000164
3549.32	0.000428
3558.97	0.000595
3568.61	0.000436
3578.26	0.000274
3587.9	0.00088466
3597.55	0.000454
3607.19	0.000194
3616.84	0.000407
3626.48	0.000558
3636.13	0
3645.77	0.000463
3655.42	0.00099
3665.06	0.000237
3674.71	0.00085466
3684.35	0.0010214
3694	0.000458
3703.64	0.00084356
3713.29	0.0009315
3722.93	0.0012004
3732.58	0.0010671
3742.22	0.00047
3751.86	0.0010445
3761.51	0.00058
3771.15	0.001102
3780.8	0.0011932
3790.44	0.0014461
3800.09	0.000661
3809.73	0.0006964
3819.38	0.000363
3829.02	0.0010868
3838.67	0.0009492
3848.31	0.0011202
3857.96	0.000488
3867.6	0.0007745
3877.25	0.000454
3886.89	0.000382
3896.54	0.000682
3906.18	0.0011478
3915.83	0.00080829
3925.47	0.000926
3935.12	0.0009839
3944.76	0.000391
3954.41	0.0011457
3964.05	0.0012904
3973.69	0.0009071
3983.34	0.0010714
3992.98	0.001086
