Infrared Spectrum: 2-Fluoro-3-(trifluoromethyl)propiophenone
Formula: C 10 H 8 F 4 O
CAS: 207986-23-0
State: gas
Origin: EPA-IR VAPOR PHASE LIBRARY
1/CM	ABSORBANCE
549.8	0.005433
559.445	0.004303
569.09	0.004843
578.734	0.004473
588.379	0.003873
598.024	0.003903
607.669	0.003303
617.313	0.003373
626.958	0.001953
636.603	0.002363
646.248	0.003003
655.893	0.004383
665.537	0.007503
675.182	0.007103
684.827	0.004993
694.472	0.005083
704.116	0.006173
713.761	0.003903
723.406	0.002963
733.051	0.005623
742.695	0.014063
752.34	0.012443
761.985	0.006333
771.63	0.004773
781.275	0.008163
790.919	0.011243
800.564	0.009513
810.209	0.007333
819.854	0.008223
829.498	0.011733
839.143	0.007623
848.788	0.002213
858.433	0.001903
868.078	0.0012078
877.722	0.0012861
887.367	0.0011003
897.012	0.0010429
906.657	0.0013768
916.301	0.001523
925.946	0.002863
935.591	0.004553
945.236	0.007233
954.88	0.009333
964.525	0.009173
974.17	0.005313
983.815	0.003483
993.46	0.002573
1003.1	0.003303
1012.75	0.005533
1022.39	0.006993
1032.04	0.005183
1041.68	0.004703
1051.33	0.005883
1060.97	0.008083
1070.62	0.013973
1080.26	0.023293
1089.91	0.030003
1099.55	0.026223
1109.2	0.023703
1118.84	0.040193
1128.49	0.051283
1138.13	0.053233
1147.78	0.073213
1157.42	0.122633
1167.07	0.166273
1176.71	0.112463
1186.36	0.082813
1196	0.042023
1205.64	0.019523
1215.29	0.013833
1224.93	0.020743
1234.58	0.034093
1244.22	0.033693
1253.87	0.026953
1263.51	0.020083
1273.16	0.021073
1282.8	0.020633
1292.45	0.019483
1302.09	0.024833
1311.74	0.049393
1321.38	0.112483
1331.03	0.111453
1340.67	0.044883
1350.32	0.022973
1359.96	0.015943
1369.61	0.011073
1379.25	0.008143
1388.9	0.007273
1398.54	0.005463
1408.18	0.005873
1417.83	0.007163
1427.47	0.008503
1437.12	0.015083
1446.76	0.030093
1456.41	0.053583
1466.05	0.051733
1475.7	0.023443
1485.34	0.008583
1494.99	0.004963
1504.63	0.003673
1514.28	0.003153
1523.92	0.002743
1533.57	0.002483
1543.21	0.002393
1552.86	0.002493
1562.5	0.003803
1572.15	0.006563
1581.79	0.012063
1591.44	0.016383
1601.08	0.018923
1610.73	0.029153
1620.37	0.023383
1630.01	0.008513
1639.66	0.005273
1649.3	0.004423
1658.95	0.004943
1668.59	0.006253
1678.24	0.007563
1687.88	0.012113
1697.53	0.024943
1707.17	0.052153
1716.82	0.040983
1726.46	0.019803
1736.11	0.012403
1745.75	0.007183
1755.4	0.004203
1765.04	0.002643
1774.69	0.001923
1784.33	0.001613
1793.98	0.0014211
1803.62	0.0012463
1813.27	0.0011105
1822.91	0.0012292
1832.55	0.0010661
1842.2	0.0011232
1851.84	0.0012269
1861.49	0.0014216
1871.13	0.0014835
1880.78	0.0012849
1890.42	0.001733
1900.07	0.001763
1909.71	0.001993
1919.36	0.001713
1929	0.0013885
1938.65	0.0012568
1948.29	0.001523
1957.94	0.001513
1967.58	0.0013359
1977.23	0.0010244
1986.87	0.0009868
1996.52	0.0010248
2006.16	0.00104
2015.81	0.000828
2025.45	0.0009063
2035.1	0.0007539
2044.74	0.0008966
2054.38	0.0008247
2064.03	0.0009939
2073.67	0.0008849
2083.32	0.0009524
2092.96	0.0006301
2102.61	0.0007964
2112.25	0.0007964
2121.9	0.0007038
2131.54	0.0009935
2141.19	0.0010854
2150.83	0.0012414
2160.48	0.0009861
2170.12	0.0008226
2179.77	0.0009387
2189.41	0.0008026
2199.06	0.001001
2208.7	0.0008928
2218.35	0.0009934
2227.99	0.0009616
2237.64	0.00116
2247.28	0.0009659
2256.92	0.0011626
2266.57	0.0012434
2276.21	0.0014686
2285.86	0.0013005
2295.5	0.0012133
2305.15	0.0013053
2314.79	0.0011105
2324.44	0.0014082
2334.08	0.0012723
2343.73	0.0011916
2353.37	0.001211
2363.02	0.0010662
2372.66	0.0011364
2382.31	0.0010639
2391.95	0.0010305
2401.6	0.001016
2411.24	0.0007534
2420.89	0.0009463
2430.53	0.0009937
2440.18	0.0010348
2449.82	0.0010024
2459.47	0.0011753
2469.11	0.0011223
2478.75	0.0010543
2488.4	0.0006597
2498.04	0.0009252
2507.69	0.0008188
2517.33	0.0007195
2526.98	0.000938
2536.62	0.0008602
2546.27	0.0008242
2555.91	0.000685
2565.56	0.0008852
2575.2	0.0008596
2584.85	0.00057513
2594.49	0.0007236
2604.14	0.0007324
2613.78	0.00055979
2623.43	0.0007709
2633.07	0.0007175
2642.72	0.0007692
2652.36	0.000494714
2662.01	0.0007869
2671.65	0.0007857
2681.29	0.0008871
2690.94	0.0006175
2700.58	0.0006983
2710.23	0.0009404
2719.87	0.0007401
2729.52	0.0010348
2739.16	0.0014169
2748.81	0.0014053
2758.45	0.0014315
2768.1	0.0011676
2777.74	0.0010122
2787.39	0.0010666
2797.03	0.0012709
2806.68	0.0010229
2816.32	0.0011278
2825.97	0.0013073
2835.61	0.0013855
2845.26	0.001573
2854.9	0.001623
2864.55	0.002033
2874.19	0.002543
2883.84	0.003763
2893.48	0.004973
2903.12	0.004713
2912.77	0.005283
2922.41	0.005613
2932.06	0.005563
2941.7	0.006893
2951.35	0.010583
2960.99	0.008053
2970.64	0.006733
2980.28	0.009613
2989.93	0.011943
2999.57	0.008583
3009.22	0.004843
3018.86	0.002773
3028.51	0.002803
3038.15	0.002223
3047.8	0.002093
3057.44	0.002263
3067.09	0.001983
3076.73	0.002723
3086.38	0.003313
3096.02	0.003193
3105.67	0.002473
3115.31	0.001833
3124.95	0.0009707
3134.6	0.0005944
3144.24	0.0007526
3153.89	0.0010241
3163.53	0.0012068
3173.18	0.0008485
3182.82	0.0012117
3192.47	0.0011613
3202.11	0.0010161
3211.76	0.0007157
3221.4	0.0010777
3231.05	0.0009539
3240.69	0.00053631
3250.34	0.0013875
3259.98	0.0006088
3269.63	0.0009003
3279.27	0.001027
3288.92	0.00058314
3298.56	0.0009686
3308.21	4.7e-05
3317.85	0.0007289
3327.49	0.0004589
3337.14	0.00058932
3346.78	0.0009744
3356.43	0.001513
3366.07	0.0008336
3375.72	0.0008844
3385.36	0.0006944
3395.01	0.001583
3404.65	0.001182
3414.3	0.001723
3423.94	0.0012496
3433.59	0.0010031
3443.23	0.0006187
3452.88	0.0011796
3462.52	0.00055587
3472.17	0.000994
3481.81	0.0009092
3491.46	0.0007778
3501.1	0.00058475
3510.75	0.0009216
3520.39	0.0005329
3530.04	0.0006187
3539.68	0.0011623
3549.32	0.00052997
3558.97	0.000498934
3568.61	0.000158
3578.26	0.0008863
3587.9	0.0007549
3597.55	0.000499993
3607.19	0.0007644
3616.84	0.0009562
3626.48	0.0007298
3636.13	0.00016
3645.77	0.0011988
3655.42	0.000259
3665.06	0.0008706
3674.71	0.0012148
3684.35	0.0011804
3694	0.0008567
3703.64	0.000944
3713.29	0.000697
3722.93	0.000357
3732.58	0.0008013
3742.22	0.00050623
3751.86	0.000779
3761.51	0.0007579
3771.15	0.0008828
3780.8	0.0009721
3790.44	0.0006918
3800.09	0.00053591
3809.73	0.0006631
3819.38	0.00056643
3829.02	0.0004644
3838.67	0.0009122
3848.31	0.0010501
3857.96	0.000245
3867.6	0.0013054
3877.25	0.0008492
3886.89	0.000322
3896.54	0.001081
3906.18	0.0007328
3915.83	0.0010647
3925.47	0.001763
3935.12	0.0010058
3944.76	0.0010721
3954.41	0.0006078
3964.05	0.0009245
3973.69	0.0010319
3983.34	0.00050707
3992.98	0.0008054
