Infrared Spectrum: 2-Fluoro-3-(trifluoromethyl)benzyl alcohol
Formula: C 8 H 6 F 4 O
CAS: 207981-45-1
State: gas
Origin: EPA-IR VAPOR PHASE LIBRARY
1/CM	ABSORBANCE
549.8	0.005808
559.445	0.004948
569.09	0.005068
578.734	0.005648
588.379	0.005038
598.024	0.005528
607.669	0.007618
617.313	0.010048
626.958	0.011638
636.603	0.012628
646.248	0.015448
655.893	0.016428
665.537	0.008048
675.182	0.004238
684.827	0.002868
694.472	0.003408
704.116	0.003478
713.761	0.003428
723.406	0.007398
733.051	0.019798
742.695	0.033418
752.34	0.026648
761.985	0.011798
771.63	0.008738
781.275	0.016438
790.919	0.029918
800.564	0.024758
810.209	0.012658
819.854	0.012638
829.498	0.020958
839.143	0.016358
848.788	0.007248
858.433	0.009948
868.078	0.013258
877.722	0.010928
887.367	0.007278
897.012	0.004948
906.657	0.004698
916.301	0.005358
925.946	0.005518
935.591	0.006728
945.236	0.010638
954.88	0.013318
964.525	0.014288
974.17	0.012548
983.815	0.011238
993.46	0.012058
1003.1	0.017718
1012.75	0.026498
1022.39	0.034648
1032.04	0.036178
1041.68	0.030288
1051.33	0.027658
1060.97	0.029338
1070.62	0.029408
1080.26	0.032858
1089.91	0.032588
1099.55	0.035948
1109.2	0.069328
1118.84	0.136398
1128.49	0.123838
1138.13	0.111648
1147.78	0.174408
1157.42	0.277988
1167.07	0.346298
1176.71	0.232228
1186.36	0.121638
1196	0.060038
1205.64	0.039108
1215.29	0.040358
1224.93	0.065888
1234.58	0.077578
1244.22	0.046298
1253.87	0.027248
1263.51	0.027728
1273.16	0.026058
1282.8	0.026218
1292.45	0.029488
1302.09	0.043318
1311.74	0.093768
1321.38	0.251518
1331.03	0.312598
1340.67	0.113048
1350.32	0.037628
1359.96	0.025618
1369.61	0.024438
1379.25	0.025828
1388.9	0.024538
1398.54	0.019588
1408.18	0.015268
1417.83	0.012668
1427.47	0.011458
1437.12	0.013368
1446.76	0.025308
1456.41	0.057958
1466.05	0.089288
1475.7	0.086098
1485.34	0.048908
1494.99	0.018398
1504.63	0.009318
1514.28	0.006348
1523.92	0.004298
1533.57	0.003708
1543.21	0.003018
1552.86	0.003258
1562.5	0.004128
1572.15	0.006978
1581.79	0.013638
1591.44	0.022678
1601.08	0.025998
1610.73	0.024748
1620.37	0.026158
1630.01	0.020528
1639.66	0.012868
1649.3	0.007908
1658.95	0.006098
1668.59	0.004658
1678.24	0.003498
1687.88	0.002948
1697.53	0.002788
1707.17	0.003618
1716.82	0.003188
1726.46	0.002328
1736.11	0.002058
1745.75	0.001888
1755.4	0.001828
1765.04	0.001708
1774.69	0.001758
1784.33	0.001608
1793.98	0.001728
1803.62	0.001738
1813.27	0.001658
1822.91	0.002028
1832.55	0.001848
1842.2	0.001518
1851.84	0.001578
1861.49	0.001748
1871.13	0.002028
1880.78	0.003468
1890.42	0.003478
1900.07	0.002538
1909.71	0.001748
1919.36	0.001578
1929	0.001948
1938.65	0.002388
1948.29	0.002588
1957.94	0.002008
1967.58	0.001558
1977.23	0.001418
1986.87	0.0013389
1996.52	0.001548
2006.16	0.001588
2015.81	0.001498
2025.45	0.001658
2035.1	0.002098
2044.74	0.002018
2054.38	0.002168
2064.03	0.002078
2073.67	0.001938
2083.32	0.001538
2092.96	0.001358
2102.61	0.001332
2112.25	0.001138
2121.9	0.000963
2131.54	0.0012324
2141.19	0.0010511
2150.83	0.0011263
2160.48	0.0012594
2170.12	0.001418
2179.77	0.0013399
2189.41	0.001588
2199.06	0.001738
2208.7	0.001568
2218.35	0.001478
2227.99	0.001518
2237.64	0.001788
2247.28	0.001708
2256.92	0.002008
2266.57	0.001898
2276.21	0.002088
2285.86	0.002098
2295.5	0.002108
2305.15	0.002018
2314.79	0.002168
2324.44	0.002358
2334.08	0.002158
2343.73	0.002128
2353.37	0.002098
2363.02	0.001718
2372.66	0.001548
2382.31	0.0012683
2391.95	0.001698
2401.6	0.00128
2411.24	0.0013393
2420.89	0.001528
2430.53	0.001438
2440.18	0.001538
2449.82	0.001978
2459.47	0.001758
2469.11	0.001738
2478.75	0.001628
2488.4	0.001378
2498.04	0.001257
2507.69	0.001448
2517.33	0.0010664
2526.98	0.001408
2536.62	0.001518
2546.27	0.0011214
2555.91	0.0010857
2565.56	0.0010401
2575.2	0.0012721
2584.85	0.0009855
2594.49	0.000892
2604.14	0.0009271
2613.78	0.001013
2623.43	0.0011852
2633.07	0.0012652
2642.72	0.001438
2652.36	0.001628
2662.01	0.0013312
2671.65	0.000766
2681.29	0.0007991
2690.94	0.0010672
2700.58	0.0011949
2710.23	0.001648
2719.87	0.001608
2729.52	0.001488
2739.16	0.001628
2748.81	0.0012914
2758.45	0.001418
2768.1	0.002068
2777.74	0.001468
2787.39	0.001548
2797.03	0.002168
2806.68	0.002058
2816.32	0.002348
2825.97	0.002358
2835.61	0.002588
2845.26	0.003558
2854.9	0.003928
2864.55	0.005438
2874.19	0.007728
2883.84	0.010238
2893.48	0.012528
2903.12	0.012228
2912.77	0.009748
2922.41	0.009508
2932.06	0.010248
2941.7	0.011238
2951.35	0.010488
2960.99	0.009808
2970.64	0.008878
2980.28	0.007248
2989.93	0.005128
2999.57	0.003538
3009.22	0.002808
3018.86	0.002248
3028.51	0.003298
3038.15	0.003008
3047.8	0.003668
3057.44	0.004878
3067.09	0.005498
3076.73	0.005318
3086.38	0.004838
3096.02	0.004398
3105.67	0.003518
3115.31	0.001528
3124.95	0.000905
3134.6	0.0007939
3144.24	0.0011604
3153.89	0.0007457
3163.53	0.0007175
3173.18	0.0007652
3182.82	0.0009891
3192.47	0.0008317
3202.11	0.000925
3211.76	0.0010922
3221.4	0.0010047
3231.05	0.0007909
3240.69	0.0010573
3250.34	0.0012384
3259.98	0.0004929
3269.63	0.000646
3279.27	0.0010009
3288.92	0.0010595
3298.56	0.0009217
3308.21	0.0009322
3317.85	0.000321
3327.49	0.000127
3337.14	0.00040177
3346.78	0.0007956
3356.43	0.000805
3366.07	0.0010222
3375.72	0.0006057
3385.36	0.0012279
3395.01	0.0007722
3404.65	0.00037579
3414.3	0.0012302
3423.94	0.001618
3433.59	0.001418
3443.23	0.001958
3452.88	0.0011923
3462.52	0.0011957
3472.17	0.0012324
3481.81	0.000804
3491.46	0.0005232
3501.1	0.001107
3510.75	0.001418
3520.39	0.0007271
3530.04	0.0011317
3539.68	0.001688
3549.32	0.001548
3558.97	0.001089
3568.61	0.0010946
3578.26	0.001508
3587.9	0.0012216
3597.55	0.001888
3607.19	0.002398
3616.84	0.002998
3626.48	0.003588
3636.13	0.005718
3645.77	0.009018
3655.42	0.014708
3665.06	0.016378
3674.71	0.012678
3684.35	0.009018
3694	0.005148
3703.64	0.003948
3713.29	0.002768
3722.93	0.001838
3732.58	0.0010688
3742.22	0.001388
3751.86	0.001608
3761.51	0.001588
3771.15	9.9e-05
3780.8	0.001378
3790.44	0.001518
3800.09	0.0005801
3809.73	0.0007882
3819.38	0.00039825
3829.02	0.0010974
3838.67	0.001438
3848.31	0.0009445
3857.96	0.001458
3867.6	0.0010977
3877.25	0.001358
3886.89	0.001748
3896.54	0.001998
3906.18	0.0013446
3915.83	0.001508
3925.47	0.0012877
3935.12	0.001738
3944.76	0.001918
3954.41	0.001009
3964.05	0.0011663
3973.69	0.0011172
3983.34	0.0008383
3992.98	0.0010944
