Infrared Spectrum: 3-Ethyl-5-methyl-1-heptyn-3-ol
Formula: C 10 H 18 O
CAS: 207974-16-1
State: gas
Origin: EPA-IR VAPOR PHASE LIBRARY
1/CM	ABSORBANCE
549.8	0.0029228
559.445	0.0041628
569.09	0.0033728
578.734	0.0030928
588.379	0.0031028
598.024	0.0019928
607.669	0.0019028
617.313	0.0080928
626.958	0.0233728
636.603	0.0260728
646.248	0.0192328
655.893	0.0190628
665.537	0.0089528
675.182	0.0036828
684.827	0.0018028
694.472	0.0018428
704.116	0.0020228
713.761	0.0026928
723.406	0.0019528
733.051	0.0015628
742.695	0.0009273
752.34	0.0012128
761.985	0.0018428
771.63	0.0020628
781.275	0.0024828
790.919	0.0027128
800.564	0.0019028
810.209	0.0013528
819.854	0.0014828
829.498	0.0013628
839.143	0.0018328
848.788	0.0018928
858.433	0.0022028
868.078	0.0023128
877.722	0.0023728
887.367	0.0018028
897.012	0.0030228
906.657	0.0037828
916.301	0.0032028
925.946	0.0031028
935.591	0.0040628
945.236	0.0067328
954.88	0.0103628
964.525	0.0134428
974.17	0.0138828
983.815	0.0113928
993.46	0.0104528
1003.1	0.0102728
1012.75	0.0101128
1022.39	0.0083128
1032.04	0.0068628
1041.68	0.0058428
1051.33	0.0063428
1060.97	0.0051328
1070.62	0.0044628
1080.26	0.0029828
1089.91	0.0045228
1099.55	0.0052428
1109.2	0.0063528
1118.84	0.0069928
1128.49	0.0086728
1138.13	0.0105628
1147.78	0.0122028
1157.42	0.0102328
1167.07	0.0077828
1176.71	0.0050428
1186.36	0.0045528
1196	0.0038228
1205.64	0.0059228
1215.29	0.0067828
1224.93	0.0065428
1234.58	0.0072728
1244.22	0.0106628
1253.87	0.0142228
1263.51	0.0131328
1273.16	0.0101128
1282.8	0.0091528
1292.45	0.0090028
1302.09	0.0096928
1311.74	0.0101828
1321.38	0.0099028
1331.03	0.0095228
1340.67	0.0090928
1350.32	0.0089828
1359.96	0.0091128
1369.61	0.0091828
1379.25	0.0102428
1388.9	0.0094828
1398.54	0.0053628
1408.18	0.0036528
1417.83	0.0033928
1427.47	0.0039428
1437.12	0.0052228
1446.76	0.0071428
1456.41	0.0096728
1466.05	0.0105028
1475.7	0.0074728
1485.34	0.0039628
1494.99	0.0023528
1504.63	0.0017528
1514.28	0.0014628
1523.92	0.0012028
1533.57	0.0008388
1543.21	0.00097
1552.86	0.0010278
1562.5	0.0010792
1572.15	0.0011128
1581.79	0.0011428
1591.44	0.0012028
1601.08	0.0010459
1610.73	0.0012328
1620.37	0.0011228
1630.01	0.0010279
1639.66	0.0010365
1649.3	0.0010262
1658.95	0.0007773
1668.59	0.0009938
1678.24	0.0008923
1687.88	0.0008975
1697.53	0.000914
1707.17	0.0007616
1716.82	0.0009995
1726.46	0.0007935
1736.11	0.0007556
1745.75	0.0007665
1755.4	0.0007902
1765.04	0.0006962
1774.69	0.0009601
1784.33	0.0007311
1793.98	0.0009004
1803.62	0.0007054
1813.27	0.0006882
1822.91	0.0006498
1832.55	0.0005809
1842.2	0.0006665
1851.84	0.0007083
1861.49	0.000536
1871.13	0.0007444
1880.78	0.0006613
1890.42	0.0006843
1900.07	0.0006656
1909.71	0.0007202
1919.36	0.0006519
1929	0.0005025
1938.65	0.0005436
1948.29	0.000702
1957.94	0.0005721
1967.58	0.0006304
1977.23	0.0006614
1986.87	0.0005143
1996.52	0.0006619
2006.16	0.0006731
2015.81	0.0007594
2025.45	0.0007805
2035.1	0.0007675
2044.74	0.0006141
2054.38	0.000565
2064.03	0.0005449
2073.67	0.0007056
2083.32	0.0007151
2092.96	0.0006929
2102.61	0.0006722
2112.25	0.0008032
2121.9	0.0007879
2131.54	0.0006635
2141.19	0.0005633
2150.83	0.0006657
2160.48	0.0005333
2170.12	0.0005644
2179.77	0.0004444
2189.41	0.0006766
2199.06	0.0006156
2208.7	0.0005893
2218.35	0.0006196
2227.99	0.000693
2237.64	0.0006678
2247.28	0.0007925
2256.92	0.000685
2266.57	0.0007518
2276.21	0.0005152
2285.86	0.0007871
2295.5	0.0005146
2305.15	0.0006976
2314.79	0.0008595
2324.44	0.0007158
2334.08	0.0007221
2343.73	0.0007699
2353.37	0.0007029
2363.02	0.0008392
2372.66	0.0009159
2382.31	0.0009365
2391.95	0.0005887
2401.6	0.000733
2411.24	0.0008939
2420.89	0.0007655
2430.53	0.0006271
2440.18	0.0006751
2449.82	0.0006904
2459.47	0.0007618
2469.11	0.0005731
2478.75	0.0004794
2488.4	0.0006491
2498.04	0.0005603
2507.69	0.0007416
2517.33	0.0007925
2526.98	0.000751
2536.62	0.0008664
2546.27	0.000606
2555.91	0.0005916
2565.56	0.0008024
2575.2	0.0009399
2584.85	0.0011328
2594.49	0.0012728
2604.14	0.0011328
2613.78	0.0011128
2623.43	0.0013828
2633.07	0.000838
2642.72	0.0009261
2652.36	0.0010148
2662.01	0.0010565
2671.65	0.0012628
2681.29	0.0015528
2690.94	0.0013728
2700.58	0.0011128
2710.23	0.0012128
2719.87	0.0011728
2729.52	0.0017428
2739.16	0.0019928
2748.81	0.0018128
2758.45	0.0017428
2768.1	0.0018428
2777.74	0.0019128
2787.39	0.0022728
2797.03	0.0022728
2806.68	0.0024328
2816.32	0.0028228
2825.97	0.0036328
2835.61	0.0045328
2845.26	0.0058428
2854.9	0.0094228
2864.55	0.0141028
2874.19	0.0186728
2883.84	0.0228428
2893.48	0.0227928
2903.12	0.0222528
2912.77	0.0272728
2922.41	0.0355528
2932.06	0.0434228
2941.7	0.0478528
2951.35	0.0459128
2960.99	0.0487228
2970.64	0.0561328
2980.28	0.0458928
2989.93	0.0244128
2999.57	0.0114428
3009.22	0.0061528
3018.86	0.0042928
3028.51	0.0035428
3038.15	0.0029828
3047.8	0.0028528
3057.44	0.0029628
3067.09	0.0025828
3076.73	0.0027728
3086.38	0.0026028
3096.02	0.0027228
3105.67	0.0021528
3115.31	0.0017028
3124.95	0.0021728
3134.6	0.0019328
3144.24	0.0012928
3153.89	0.0013928
3163.53	0.0014228
3173.18	0.0014628
3182.82	0.0017128
3192.47	0.0014028
3202.11	0.0012028
3211.76	0.0010851
3221.4	0.0007509
3231.05	0.0007095
3240.69	0.0012128
3250.34	0.0013228
3259.98	0.0009367
3269.63	0.0018328
3279.27	0.0023328
3288.92	0.0044228
3298.56	0.0069228
3308.21	0.0101028
3317.85	0.0175528
3327.49	0.0171528
3337.14	0.0062128
3346.78	0.0025828
3356.43	0.0017228
3366.07	0.0014028
3375.72	0.0011828
3385.36	0.0017228
3395.01	0.0009569
3404.65	0.0012228
3414.3	0.0009673
3423.94	0.0011428
3433.59	0.0004319
3443.23	0.0013328
3452.88	0.0013828
3462.52	0.0009411
3472.17	0.0014028
3481.81	0.0008291
3491.46	0.0009223
3501.1	0.0004747
3510.75	0.000941
3520.39	0.00049
3530.04	0.0008025
3539.68	0.0007196
3549.32	0.000502
3558.97	0.0007318
3568.61	0.0004273
3578.26	0.000699
3587.9	0.0008237
3597.55	0.0012328
3607.19	0.0008968
3616.84	0.0017728
3626.48	0.0038728
3636.13	0.0070028
3645.77	0.0069528
3655.42	0.0030728
3665.06	0.0017328
3674.71	0.0014828
3684.35	0.0009896
3694	0.000844
3703.64	0.0006577
3713.29	0.0007861
3722.93	0.0008622
3732.58	0.0005706
3742.22	0.0004689
3751.86	0.0006779
3761.51	0.0010338
3771.15	0.0005088
3780.8	0.0009073
3790.44	0.0010805
3800.09	0.0014028
3809.73	0.000966
3819.38	0.0006796
3829.02	0.000873
3838.67	0.0010913
3848.31	0.0007447
3857.96	0.000688
3867.6	0.0005812
3877.25	0.0006404
3886.89	0.0007905
3896.54	0.0008368
3906.18	0.0008014
3915.83	0.0013628
3925.47	0.0008653
3935.12	0.0009227
3944.76	0.0006198
3954.41	0.0010051
3964.05	0.0011328
3973.69	0.0006556
3983.34	9.9475e-05
3992.98	0.0012728
