Infrared Spectrum: 3-Fluoro-5-(trifluoromethyl)propiophenone
Formula: C 10 H 8 F 4 O
CAS: 207974-20-7
State: gas
Origin: EPA-IR VAPOR PHASE LIBRARY
1/CM	ABSORBANCE
549.8	0.002521
559.445	0.002181
569.09	0.002831
578.734	0.003041
588.379	0.002381
598.024	0.0016358
607.669	0.0017821
617.313	0.002171
626.958	0.002271
636.603	0.002941
646.248	0.003001
655.893	0.004021
665.537	0.004591
675.182	0.005391
684.827	0.009071
694.472	0.015871
704.116	0.014121
713.761	0.009221
723.406	0.006261
733.051	0.003771
742.695	0.002691
752.34	0.002721
761.985	0.001811
771.63	0.002161
781.275	0.002061
790.919	0.002591
800.564	0.004611
810.209	0.006771
819.854	0.008901
829.498	0.007791
839.143	0.004071
848.788	0.002891
858.433	0.002641
868.078	0.004251
877.722	0.013131
887.367	0.025161
897.012	0.019871
906.657	0.029211
916.301	0.022231
925.946	0.018191
935.591	0.011921
945.236	0.004781
954.88	0.004231
964.525	0.004961
974.17	0.005211
983.815	0.004631
993.46	0.003681
1003.1	0.003321
1012.75	0.003541
1022.39	0.004111
1032.04	0.004211
1041.68	0.003461
1051.33	0.003231
1060.97	0.004011
1070.62	0.006961
1080.26	0.011351
1089.91	0.016331
1099.55	0.014771
1109.2	0.007631
1118.84	0.009481
1128.49	0.016521
1138.13	0.044641
1147.78	0.114201
1157.42	0.128081
1167.07	0.071291
1176.71	0.107441
1186.36	0.083681
1196	0.031461
1205.64	0.023441
1215.29	0.039901
1224.93	0.095191
1234.58	0.084021
1244.22	0.041311
1253.87	0.033341
1263.51	0.029631
1273.16	0.021181
1282.8	0.013851
1292.45	0.012211
1302.09	0.015301
1311.74	0.022111
1321.38	0.034061
1331.03	0.055171
1340.67	0.060591
1350.32	0.075251
1359.96	0.074591
1369.61	0.043231
1379.25	0.020041
1388.9	0.012511
1398.54	0.008741
1408.18	0.008701
1417.83	0.010371
1427.47	0.014861
1437.12	0.027341
1446.76	0.036421
1456.41	0.029261
1466.05	0.021871
1475.7	0.011011
1485.34	0.006131
1494.99	0.004451
1504.63	0.003731
1514.28	0.003361
1523.92	0.002831
1533.57	0.002861
1543.21	0.002521
1552.86	0.002841
1562.5	0.003171
1572.15	0.004411
1581.79	0.006861
1591.44	0.012441
1601.08	0.019151
1610.73	0.017341
1620.37	0.009661
1630.01	0.006531
1639.66	0.004761
1649.3	0.003721
1658.95	0.003621
1668.59	0.004441
1678.24	0.006131
1687.88	0.009411
1697.53	0.018851
1707.17	0.044991
1716.82	0.040911
1726.46	0.015151
1736.11	0.008341
1745.75	0.006671
1755.4	0.004871
1765.04	0.004691
1774.69	0.004481
1784.33	0.003081
1793.98	0.002451
1803.62	0.002331
1813.27	0.002421
1822.91	0.002081
1832.55	0.001831
1842.2	0.0016733
1851.84	0.001714
1861.49	0.0015609
1871.13	0.0014964
1880.78	0.00134
1890.42	0.0013952
1900.07	0.0012579
1909.71	0.0012583
1919.36	0.0012994
1929	0.001239
1938.65	0.0010253
1948.29	0.0011463
1957.94	0.0011938
1967.58	0.0011847
1977.23	0.0012012
1986.87	0.0012896
1996.52	0.0011685
2006.16	0.0014264
2015.81	0.0012218
2025.45	0.0011845
2035.1	0.0013031
2044.74	0.0013462
2054.38	0.001396
2064.03	0.0013368
2073.67	0.0013231
2083.32	0.0011448
2092.96	0.0013358
2102.61	0.0011754
2112.25	0.0010203
2121.9	0.0012525
2131.54	0.0012196
2141.19	0.0014138
2150.83	0.0009668
2160.48	0.001216
2170.12	0.0011885
2179.77	0.0012051
2189.41	0.0011902
2199.06	0.0012464
2208.7	0.0012028
2218.35	0.0011364
2227.99	0.0011283
2237.64	0.0011519
2247.28	0.0014185
2256.92	0.0013212
2266.57	0.0013281
2276.21	0.0014761
2285.86	0.0015982
2295.5	0.0014875
2305.15	0.0011488
2314.79	0.0014237
2324.44	0.0012518
2334.08	0.0012144
2343.73	0.0015855
2353.37	0.0013876
2363.02	0.0014134
2372.66	0.0015069
2382.31	0.0014256
2391.95	0.0012481
2401.6	0.0011059
2411.24	0.0012931
2420.89	0.001091
2430.53	0.0010099
2440.18	0.0012413
2449.82	0.001143
2459.47	0.0010537
2469.11	0.0012529
2478.75	0.001349
2488.4	0.001135
2498.04	0.0010076
2507.69	0.0010969
2517.33	0.0012629
2526.98	0.0009631
2536.62	0.0011758
2546.27	0.0013451
2555.91	0.0010807
2565.56	0.0014642
2575.2	0.0009185
2584.85	0.0014192
2594.49	0.0011835
2604.14	0.0009531
2613.78	0.0009728
2623.43	0.0011564
2633.07	0.00085227
2642.72	0.0011033
2652.36	0.0013153
2662.01	0.0011339
2671.65	0.0012982
2681.29	0.0010817
2690.94	0.0010221
2700.58	0.00086891
2710.23	0.0011502
2719.87	0.000918
2729.52	0.0009144
2739.16	0.0009914
2748.81	0.0010349
2758.45	0.0012546
2768.1	0.001106
2777.74	0.00082976
2787.39	0.0011416
2797.03	0.0011254
2806.68	0.0012114
2816.32	0.0015823
2825.97	0.0015477
2835.61	0.002031
2845.26	0.001725
2854.9	0.002121
2864.55	0.002091
2874.19	0.003401
2883.84	0.004051
2893.48	0.004911
2903.12	0.005081
2912.77	0.006981
2922.41	0.006941
2932.06	0.005871
2941.7	0.006991
2951.35	0.009681
2960.99	0.007381
2970.64	0.006401
2980.28	0.009301
2989.93	0.012911
2999.57	0.008471
3009.22	0.003911
3018.86	0.003471
3028.51	0.002591
3038.15	0.002181
3047.8	0.001841
3057.44	0.001861
3067.09	0.002271
3076.73	0.002011
3086.38	0.003581
3096.02	0.003651
3105.67	0.0015962
3115.31	0.0013653
3124.95	0.0014654
3134.6	0.0011682
3144.24	0.0015526
3153.89	0.00136
3163.53	0.0012159
3173.18	0.0007112
3182.82	0.0012989
3192.47	0.000673
3202.11	0.0012494
3211.76	0.0009969
3221.4	0.0011915
3231.05	0.0011515
3240.69	0.0009876
3250.34	0.0011344
3259.98	0.000800071
3269.63	0.0010777
3279.27	0.0013811
3288.92	0.0008065
3298.56	0.001038
3308.21	0.0012827
3317.85	0.001426
3327.49	0.0006987
3337.14	0.0015026
3346.78	0.000483
3356.43	0.0009645
3366.07	0.0010358
3375.72	0.0016324
3385.36	0.0011487
3395.01	0.0016339
3404.65	0.00152
3414.3	0.0015391
3423.94	0.0013123
3433.59	0.0012928
3443.23	0.0007382
3452.88	0.0009741
3462.52	0.0013821
3472.17	0.0011643
3481.81	0.00085974
3491.46	0.0014393
3501.1	0.00088367
3510.75	0.001821
3520.39	0.00078633
3530.04	0.001143
3539.68	0.00082146
3549.32	0.000665
3558.97	0.0012128
3568.61	0.0015981
3578.26	0.0010944
3587.9	0.000737
3597.55	0.0012068
3607.19	0.0012357
3616.84	0.0011561
3626.48	0.0016232
3636.13	0.0011244
3645.77	0.0009298
3655.42	0.0013753
3665.06	0.0009306
3674.71	0.0011519
3684.35	0.000617
3694	0.0012992
3703.64	0.0009085
3713.29	0.0007603
3722.93	0.0008694
3732.58	0.0009794
3742.22	0.0011473
3751.86	0.0011198
3761.51	0.0010656
3771.15	0.0011789
3780.8	0.000619
3790.44	0.00084549
3800.09	0.0009319
3809.73	0.0013895
3819.38	0.000275
3829.02	0.00087006
3838.67	0.000493
3848.31	0.00082713
3857.96	0.0009909
3867.6	0.0012226
3877.25	0.0008069
3886.89	0.0011507
3896.54	0.000504
3906.18	0.000511
3915.83	0.0010134
3925.47	0.00083631
3935.12	0.0012449
3944.76	0.0010275
3954.41	0.0013296
3964.05	0.0007417
3973.69	0.0009867
3983.34	0.0009751
3992.98	0.0011022
