Infrared Spectrum: 2,6-Dichlorophenyl ethyl sulphide
Formula: C 8 H 8 Cl 2 S
CAS: 207853-62-1
State: gas
Origin: EPA-IR VAPOR PHASE LIBRARY
1/CM	ABSORBANCE
549.8	0.001689
559.445	0.0011616
569.09	0.0010377
578.734	0.00062571
588.379	0.0012292
598.024	0.0011064
607.669	0.000937
617.313	0.0007779
626.958	0.0011654
636.603	0.000909
646.248	0.002999
655.893	0.001969
665.537	0.001669
675.182	0.001989
684.827	0.001889
694.472	0.003549
704.116	0.006849
713.761	0.007999
723.406	0.004779
733.051	0.003649
742.695	0.003609
752.34	0.006469
761.985	0.025169
771.63	0.080909
781.275	0.073249
790.919	0.021759
800.564	0.007859
810.209	0.005639
819.854	0.004199
829.498	0.002869
839.143	0.001939
848.788	0.0015606
858.433	0.0011516
868.078	0.0010277
877.722	0.0011308
887.367	0.0013007
897.012	0.0014238
906.657	0.001799
916.301	0.0010997
925.946	0.0009719
935.591	0.0011746
945.236	0.0013703
954.88	0.002689
964.525	0.005159
974.17	0.005259
983.815	0.003459
993.46	0.001709
1003.1	0.001739
1012.75	0.002029
1022.39	0.002919
1032.04	0.004239
1041.68	0.004929
1051.33	0.004029
1060.97	0.002519
1070.62	0.002309
1080.26	0.006219
1089.91	0.006059
1099.55	0.003409
1109.2	0.001909
1118.84	0.0009061
1128.49	0.004619
1138.13	0.008809
1147.78	0.010719
1157.42	0.012359
1167.07	0.008489
1176.71	0.014519
1186.36	0.025029
1196	0.011999
1205.64	0.003469
1215.29	0.003429
1224.93	0.003949
1234.58	0.004569
1244.22	0.006699
1253.87	0.010739
1263.51	0.013619
1273.16	0.009589
1282.8	0.004899
1292.45	0.003659
1302.09	0.003309
1311.74	0.002089
1321.38	0.001729
1331.03	0.001629
1340.67	0.001699
1350.32	0.001779
1359.96	0.002169
1369.61	0.003119
1379.25	0.006519
1388.9	0.013219
1398.54	0.021019
1408.18	0.021189
1417.83	0.046429
1427.47	0.057709
1437.12	0.019179
1446.76	0.008729
1456.41	0.007219
1466.05	0.005469
1475.7	0.004459
1485.34	0.004959
1494.99	0.004329
1504.63	0.002819
1514.28	0.002299
1523.92	0.002679
1533.57	0.004359
1543.21	0.012819
1552.86	0.028179
1562.5	0.019379
1572.15	0.005219
1581.79	0.002109
1591.44	0.001739
1601.08	0.0014355
1610.73	0.0015413
1620.37	0.0014767
1630.01	0.001829
1639.66	0.001689
1649.3	0.001969
1658.95	0.002539
1668.59	0.002489
1678.24	0.001649
1687.88	0.000966
1697.53	0.0010177
1707.17	0.0009423
1716.82	0.0010536
1726.46	0.0009675
1736.11	0.0009746
1745.75	0.0010374
1755.4	0.0012026
1765.04	0.0015091
1774.69	0.002039
1784.33	0.0014384
1793.98	0.0009583
1803.62	0.0008247
1813.27	0.000617601
1822.91	0.0009133
1832.55	0.0011164
1842.2	0.001939
1851.84	0.002109
1861.49	0.0013404
1871.13	0.0010566
1880.78	0.0008002
1890.42	0.00095
1900.07	0.0012637
1909.71	0.001819
1919.36	0.002839
1929	0.002519
1938.65	0.0013552
1948.29	0.000885
1957.94	0.0008535
1967.58	0.00068423
1977.23	0.0008117
1986.87	0.000616707
1996.52	0.0007459
2006.16	0.00067851
2015.81	0.0007278
2025.45	0.0007928
2035.1	0.0006946
2044.74	0.00066095
2054.38	0.0008236
2064.03	0.0005195
2073.67	0.00082
2083.32	0.0005563
2092.96	0.0007554
2102.61	0.0007892
2112.25	0.00068772
2121.9	0.000828
2131.54	0.0007965
2141.19	0.0007014
2150.83	0.0008536
2160.48	0.0007226
2170.12	0.0005432
2179.77	0.00064135
2189.41	0.0009818
2199.06	0.0008664
2208.7	0.0008205
2218.35	0.0007115
2227.99	0.00070425
2237.64	0.00068427
2247.28	0.0007279
2256.92	0.00067715
2266.57	0.000807
2276.21	0.0008081
2285.86	0.0007367
2295.5	0.0009782
2305.15	0.0010676
2314.79	0.0010341
2324.44	0.0009376
2334.08	0.0009235
2343.73	0.00068584
2353.37	0.000954
2363.02	0.0010146
2372.66	0.0010389
2382.31	0.0008933
2391.95	0.00067745
2401.6	0.0009692
2411.24	0.0007372
2420.89	0.0009746
2430.53	0.0010524
2440.18	0.0009841
2449.82	0.0009644
2459.47	0.0008457
2469.11	0.0008463
2478.75	0.0010028
2488.4	0.0009008
2498.04	0.000482
2507.69	0.0009151
2517.33	0.000433
2526.98	0.00066934
2536.62	0.0005444
2546.27	0.0005774
2555.91	0.00062568
2565.56	0.0008851
2575.2	0.00070739
2584.85	0.00060236
2594.49	0.0007244
2604.14	0.0008311
2613.78	0.00068167
2623.43	0.0009082
2633.07	0.0011502
2642.72	0.0009771
2652.36	0.0007781
2662.01	0.00060704
2671.65	0.000856
2681.29	0.0011901
2690.94	0.0011128
2700.58	0.0011334
2710.23	0.0010324
2719.87	0.0008355
2729.52	0.0009907
2739.16	0.0012353
2748.81	0.0011627
2758.45	0.0007157
2768.1	0.0009086
2777.74	0.0009226
2787.39	0.0010403
2797.03	0.001062
2806.68	0.0014123
2816.32	0.0015562
2825.97	0.001759
2835.61	0.001909
2845.26	0.002619
2854.9	0.003079
2864.55	0.004099
2874.19	0.006179
2883.84	0.008679
2893.48	0.008079
2903.12	0.005939
2912.77	0.006559
2922.41	0.009089
2932.06	0.019309
2941.7	0.023289
2951.35	0.012499
2960.99	0.012249
2970.64	0.018329
2980.28	0.018999
2989.93	0.013579
2999.57	0.007969
3009.22	0.004959
3018.86	0.004219
3028.51	0.003459
3038.15	0.003039
3047.8	0.003729
3057.44	0.004169
3067.09	0.004309
3076.73	0.004779
3086.38	0.002979
3096.02	0.002609
3105.67	0.003049
3115.31	0.003539
3124.95	0.001889
3134.6	0.001558
3144.24	0.0008756
3153.89	0.001247
3163.53	0.0013749
3173.18	0.0008155
3182.82	0.0009653
3192.47	0.0013553
3202.11	0.0011313
3211.76	0.0011042
3221.4	0.0005586
3231.05	0.00064217
3240.69	0.00062588
3250.34	0.0010473
3259.98	0.0007167
3269.63	0.0008735
3279.27	0.000736
3288.92	0.0007845
3298.56	0.00069252
3308.21	0.00069433
3317.85	0.000364
3327.49	0.0006266
3337.14	0.0012734
3346.78	0.00064179
3356.43	0.0005544
3366.07	0.0005723
3375.72	0.0005222
3385.36	0.000297
3395.01	0.00070527
3404.65	0.0005211
3414.3	0.000448
3423.94	0.000152
3433.59	0.000917
3443.23	0.0009154
3452.88	0.0008607
3462.52	0.0008907
3472.17	0.0009291
3481.81	0.0010088
3491.46	0.0007789
3501.1	0.000455
3510.75	0.000564
3520.39	0.0010041
3530.04	0.000458
3539.68	0.0008378
3549.32	0.0009327
3558.97	0.0007687
3568.61	0.00068546
3578.26	0.00033
3587.9	0.000308
3597.55	0.0008873
3607.19	0.00064616
3616.84	0.0005096
3626.48	0.0008551
3636.13	0.000435
3645.77	0.000418
3655.42	0.000412
3665.06	0.0008043
3674.71	0.00068678
3684.35	0.00066761
3694	0.0009482
3703.64	0.00060174
3713.29	0
3722.93	0.000205
3732.58	0.0010208
3742.22	0.0008503
3751.86	0.0005467
3761.51	0.0008288
3771.15	0.0007473
3780.8	0.0009241
3790.44	0.0012023
3800.09	0.0005981
3809.73	0.000437
3819.38	0.0008862
3829.02	0.000882
3838.67	0.00060522
3848.31	0.001729
3857.96	0.0013392
3867.6	0.000449
3877.25	0.000338
3886.89	0.0005815
3896.54	0.0012136
3906.18	0.0009055
3915.83	0.000926
3925.47	0.0008029
3935.12	0.00066826
3944.76	0.0011271
3954.41	0.00046
3964.05	0.0008264
3973.69	0.0007882
3983.34	0.0009212
3992.98	0.0010028
