Infrared Spectrum: 2-Fluoro-5-(trifluoromethyl)propiophenone
Formula: C 10 H 8 F 4 O
CAS: 207974-18-3
State: gas
Origin: EPA-IR VAPOR PHASE LIBRARY
1/CM	ABSORBANCE
549.8	0.005259
559.445	0.006149
569.09	0.006479
578.734	0.006589
588.379	0.006199
598.024	0.006039
607.669	0.009769
617.313	0.019729
626.958	0.012229
636.603	0.006059
646.248	0.006689
655.893	0.006369
665.537	0.004199
675.182	0.003079
684.827	0.002989
694.472	0.002739
704.116	0.002059
713.761	0.002179
723.406	0.001699
733.051	0.002639
742.695	0.002199
752.34	0.002689
761.985	0.002189
771.63	0.001889
781.275	0.00126
790.919	0.0011804
800.564	0.001659
810.209	0.002689
819.854	0.009089
829.498	0.024339
839.143	0.014779
848.788	0.005899
858.433	0.004669
868.078	0.002399
877.722	0.001519
887.367	0.002179
897.012	0.003409
906.657	0.005669
916.301	0.007789
925.946	0.007139
935.591	0.005069
945.236	0.005109
954.88	0.006299
964.525	0.005899
974.17	0.004459
983.815	0.002459
993.46	0.002629
1003.1	0.002769
1012.75	0.004599
1022.39	0.005519
1032.04	0.005739
1041.68	0.004289
1051.33	0.006289
1060.97	0.010099
1070.62	0.021599
1080.26	0.030119
1089.91	0.024319
1099.55	0.018059
1109.2	0.014079
1118.84	0.029039
1128.49	0.043289
1138.13	0.073719
1147.78	0.140289
1157.42	0.105619
1167.07	0.076529
1176.71	0.121659
1186.36	0.126559
1196	0.082369
1205.64	0.043589
1215.29	0.025709
1224.93	0.025719
1234.58	0.026449
1244.22	0.022989
1253.87	0.030139
1263.51	0.079749
1273.16	0.076819
1282.8	0.024819
1292.45	0.018529
1302.09	0.023289
1311.74	0.045369
1321.38	0.114339
1331.03	0.129249
1340.67	0.049729
1350.32	0.021159
1359.96	0.013409
1369.61	0.010219
1379.25	0.009059
1388.9	0.007199
1398.54	0.005729
1408.18	0.006959
1417.83	0.008459
1427.47	0.006129
1437.12	0.005729
1446.76	0.005779
1456.41	0.006649
1466.05	0.008159
1475.7	0.008059
1485.34	0.010689
1494.99	0.019809
1504.63	0.015589
1514.28	0.005089
1523.92	0.002859
1533.57	0.002419
1543.21	0.002559
1552.86	0.002849
1562.5	0.003349
1572.15	0.005119
1581.79	0.007119
1591.44	0.011819
1601.08	0.016729
1610.73	0.025199
1620.37	0.028229
1630.01	0.014939
1639.66	0.006429
1649.3	0.004729
1658.95	0.005479
1668.59	0.005619
1678.24	0.006909
1687.88	0.012009
1697.53	0.024249
1707.17	0.042969
1716.82	0.043619
1726.46	0.025709
1736.11	0.013329
1745.75	0.007219
1755.4	0.004069
1765.04	0.002779
1774.69	0.002499
1784.33	0.002299
1793.98	0.001509
1803.62	0.0014722
1813.27	0.0014819
1822.91	0.0013926
1832.55	0.0013823
1842.2	0.0012127
1851.84	0.0011141
1861.49	0.0010063
1871.13	0.0011928
1880.78	0.0013158
1890.42	0.001679
1900.07	0.001969
1909.71	0.002269
1919.36	0.0014586
1929	0.0008189
1938.65	0.0007682
1948.29	0.0007166
1957.94	0.0008079
1967.58	0.0008118
1977.23	0.0007293
1986.87	0.0007767
1996.52	0.0007041
2006.16	0.0007917
2015.81	0.000804
2025.45	0.00059629
2035.1	0.0008202
2044.74	0.0008087
2054.38	0.0007073
2064.03	0.0006809
2073.67	0.0009549
2083.32	0.0008483
2092.96	0.0007258
2102.61	0.0007107
2112.25	0.0008296
2121.9	0.0006621
2131.54	0.0007063
2141.19	0.0007943
2150.83	0.0007361
2160.48	0.0006152
2170.12	0.0006498
2179.77	0.0009616
2189.41	0.0008512
2199.06	0.00059414
2208.7	0.000798
2218.35	0.0008343
2227.99	0.0008405
2237.64	0.0009043
2247.28	0.0009154
2256.92	0.001015
2266.57	0.0011092
2276.21	0.0007905
2285.86	0.001041
2295.5	0.0013062
2305.15	0.0008916
2314.79	0.0009855
2324.44	0.0010272
2334.08	0.0009435
2343.73	0.0012796
2353.37	0.0012335
2363.02	0.0008321
2372.66	0.0004853
2382.31	0.0007031
2391.95	0.00058419
2401.6	0.0007688
2411.24	0.0009036
2420.89	0.0006224
2430.53	0.000369
2440.18	0.0009432
2449.82	0.0013841
2459.47	0.0009534
2469.11	0.0009749
2478.75	0.0008743
2488.4	0.0009524
2498.04	0.000861
2507.69	0.0007877
2517.33	0.0007012
2526.98	0.0006634
2536.62	0.00058852
2546.27	0.00059329
2555.91	0.00058698
2565.56	0.0009876
2575.2	0.00058306
2584.85	0.00056091
2594.49	0.0008754
2604.14	0.0008829
2613.78	0.0006993
2623.43	0.0009391
2633.07	0.00052767
2642.72	0.000324
2652.36	0.00056684
2662.01	0.0006589
2671.65	0.00059718
2681.29	0.0006529
2690.94	0.0006896
2700.58	0.00058187
2710.23	0.00052849
2719.87	0.0007583
2729.52	0.00059001
2739.16	0.000777
2748.81	0.0008859
2758.45	0.0008019
2768.1	0.0010649
2777.74	0.0009616
2787.39	0.0010064
2797.03	0.0010443
2806.68	0.0007498
2816.32	0.0012192
2825.97	0.0013032
2835.61	0.0009488
2845.26	0.0012878
2854.9	0.001819
2864.55	0.002109
2874.19	0.002479
2883.84	0.003879
2893.48	0.004599
2903.12	0.004989
2912.77	0.005049
2922.41	0.005839
2932.06	0.005849
2941.7	0.007539
2951.35	0.010749
2960.99	0.007839
2970.64	0.006549
2980.28	0.009419
2989.93	0.012649
2999.57	0.007919
3009.22	0.004519
3018.86	0.002969
3028.51	0.002729
3038.15	0.002069
3047.8	0.0012086
3057.44	0.0015073
3067.09	0.001709
3076.73	0.002379
3086.38	0.001719
3096.02	0.0014142
3105.67	0.001609
3115.31	0.001539
3124.95	0.0010046
3134.6	0.0008842
3144.24	0.0011334
3153.89	0.00060343
3163.53	0.00058346
3173.18	0.0008716
3182.82	0.0008295
3192.47	0.0008287
3202.11	0.0009397
3211.76	0.0006874
3221.4	0.00057935
3231.05	0.00053941
3240.69	0.000646
3250.34	0.0007399
3259.98	0.0008383
3269.63	0.00060214
3279.27	0.0004448
3288.92	0.00024
3298.56	0.0009805
3308.21	0.0007624
3317.85	0.0006364
3327.49	0.000234
3337.14	0.0011305
3346.78	0.0009167
3356.43	0.0009285
3366.07	0.0008622
3375.72	0.00050593
3385.36	0.0013699
3395.01	0.0012103
3404.65	0.0012356
3414.3	0.0007033
3423.94	0.0009253
3433.59	0.0010136
3443.23	0.0006125
3452.88	0.0008118
3462.52	0.0004187
3472.17	0.0007246
3481.81	0.0006781
3491.46	0.0010744
3501.1	0.00054921
3510.75	0.000257
3520.39	0.0006666
3530.04	0.0008664
3539.68	0.000362
3549.32	0.0008772
3558.97	0.0006956
3568.61	0.0007425
3578.26	0.0006472
3587.9	0.000937
3597.55	0.00059307
3607.19	0.0008435
3616.84	0.00052643
3626.48	7e-06
3636.13	0.000359
3645.77	0.000765
3655.42	0.0007067
3665.06	0.000101
3674.71	0.0007076
3684.35	0.0012425
3694	0.0012057
3703.64	0.000232
3713.29	0.000473
3722.93	0.0007412
3732.58	0.0007062
3742.22	0.0008999
3751.86	0.0008505
3761.51	0.0004406
3771.15	0.000358
3780.8	0.0008637
3790.44	0.0008725
3800.09	0.000268
3809.73	0.0006568
3819.38	0.0006687
3829.02	0.00053005
3838.67	0.0007215
3848.31	0.0008226
3857.96	0.00055351
3867.6	0.0010141
3877.25	0.0008504
3886.89	0.000398
3896.54	0.0009171
3906.18	0.000181
3915.83	0.0007419
3925.47	0.0011617
3935.12	0.0013165
3944.76	0.00060361
3954.41	0.0011106
3964.05	0.00058351
3973.69	0.0009068
3983.34	0.0009865
3992.98	0.000185
