Infrared Spectrum: 2-Fluoro-4-(trifluoromethyl)benzamide
Formula: C 8 H 5 F 4 N O
CAS: 207853-64-3
State: gas
Origin: EPA-IR VAPOR PHASE LIBRARY
1/CM	ABSORBANCE
549.8	0.009751
559.445	0.006011
569.09	0.003491
578.734	0.002301
588.379	0.002811
598.024	0.002431
607.669	0.002311
617.313	0.001941
626.958	0.0015322
636.603	0.002191
646.248	0.0017645
655.893	0.002391
665.537	0.002391
675.182	0.003041
684.827	0.004691
694.472	0.007751
704.116	0.008861
713.761	0.008031
723.406	0.009491
733.051	0.006871
742.695	0.011541
752.34	0.009631
761.985	0.004931
771.63	0.006971
781.275	0.006021
790.919	0.004751
800.564	0.004401
810.209	0.004301
819.854	0.004551
829.498	0.006321
839.143	0.008751
848.788	0.009801
858.433	0.008531
868.078	0.010341
877.722	0.014991
887.367	0.013321
897.012	0.010981
906.657	0.027761
916.301	0.032571
925.946	0.008811
935.591	0.005291
945.236	0.004811
954.88	0.003441
964.525	0.003351
974.17	0.003681
983.815	0.003801
993.46	0.002991
1003.1	0.002881
1012.75	0.002791
1022.39	0.002231
1032.04	0.002731
1041.68	0.003121
1051.33	0.005791
1060.97	0.011131
1070.62	0.008001
1080.26	0.007441
1089.91	0.012501
1099.55	0.018071
1109.2	0.015261
1118.84	0.012351
1128.49	0.016421
1138.13	0.034351
1147.78	0.081491
1157.42	0.107041
1167.07	0.062921
1176.71	0.082941
1186.36	0.060591
1196	0.036401
1205.64	0.022881
1215.29	0.015611
1224.93	0.011641
1234.58	0.008851
1244.22	0.010831
1253.87	0.010731
1263.51	0.006991
1273.16	0.006341
1282.8	0.007961
1292.45	0.013631
1302.09	0.028981
1311.74	0.044411
1321.38	0.096471
1331.03	0.144411
1340.67	0.045641
1350.32	0.025491
1359.96	0.019871
1369.61	0.010281
1379.25	0.006921
1388.9	0.007971
1398.54	0.011831
1408.18	0.022191
1417.83	0.049811
1427.47	0.063391
1437.12	0.030361
1446.76	0.011611
1456.41	0.006811
1466.05	0.004731
1475.7	0.003731
1485.34	0.004951
1494.99	0.008411
1504.63	0.009201
1514.28	0.005311
1523.92	0.003381
1533.57	0.003221
1543.21	0.003841
1552.86	0.004301
1562.5	0.006371
1572.15	0.012321
1581.79	0.023841
1591.44	0.037021
1601.08	0.024241
1610.73	0.011001
1620.37	0.007681
1630.01	0.006491
1639.66	0.005401
1649.3	0.004731
1658.95	0.004221
1668.59	0.005311
1678.24	0.007881
1687.88	0.010371
1697.53	0.015791
1707.17	0.036971
1716.82	0.077801
1726.46	0.080251
1736.11	0.035411
1745.75	0.015731
1755.4	0.013301
1765.04	0.010161
1774.69	0.005461
1784.33	0.002981
1793.98	0.002461
1803.62	0.002251
1813.27	0.002261
1822.91	0.002261
1832.55	0.0016882
1842.2	0.0014481
1851.84	0.0012444
1861.49	0.0013549
1871.13	0.0013084
1880.78	0.0011859
1890.42	0.0012319
1900.07	0.0013077
1909.71	0.0014212
1919.36	0.0016246
1929	0.0014283
1938.65	0.0014548
1948.29	0.0015654
1957.94	0.0013634
1967.58	0.0012233
1977.23	0.0011641
1986.87	0.0011639
1996.52	0.0010562
2006.16	0.0012655
2015.81	0.0009904
2025.45	0.0010386
2035.1	0.0009913
2044.74	0.0009412
2054.38	0.0010422
2064.03	0.0013765
2073.67	0.0013179
2083.32	0.0011473
2092.96	0.0010255
2102.61	0.0010714
2112.25	0.001224
2121.9	0.0009579
2131.54	0.0007908
2141.19	0.0009557
2150.83	0.0007293
2160.48	0.0009017
2170.12	0.0008397
2179.77	0.0010197
2189.41	0.0009439
2199.06	0.0010545
2208.7	0.0009778
2218.35	0.0009734
2227.99	0.0009944
2237.64	0.0009779
2247.28	0.001014
2256.92	0.001014
2266.57	0.0009771
2276.21	0.001074
2285.86	0.00082544
2295.5	0.0011988
2305.15	0.0010339
2314.79	0.0009345
2324.44	0.0011089
2334.08	0.0011676
2343.73	0.0013984
2353.37	0.0011127
2363.02	0.0012512
2372.66	0.0013452
2382.31	0.0009892
2391.95	0.0009411
2401.6	0.0011592
2411.24	0.000994
2420.89	0.0009521
2430.53	0.0007547
2440.18	0.0009018
2449.82	0.0010892
2459.47	0.0009463
2469.11	0.0011834
2478.75	0.0009403
2488.4	0.0011206
2498.04	0.0009994
2507.69	0.00083985
2517.33	0.0010791
2526.98	0.0009341
2536.62	0.00089288
2546.27	0.00082921
2555.91	0.0007905
2565.56	0.001043
2575.2	0.0008345
2584.85	0.00082234
2594.49	0.000571
2604.14	0.0009678
2613.78	0.000628
2623.43	0.0009916
2633.07	0.0009102
2642.72	0.000726
2652.36	0.00081932
2662.01	0.0010068
2671.65	0.00089309
2681.29	0.0009907
2690.94	0.00088562
2700.58	0.00083907
2710.23	0.000737
2719.87	0.0009139
2729.52	0.000624
2739.16	0.0009774
2748.81	0.0009108
2758.45	0.0007695
2768.1	0.000461
2777.74	0.0010116
2787.39	0.000706
2797.03	0.000661
2806.68	0.0007609
2816.32	0.0007653
2825.97	0.0010896
2835.61	0.000586
2845.26	0.000672
2854.9	0.0007635
2864.55	0.000672
2874.19	0.00065
2883.84	0.00079831
2893.48	0.000664
2903.12	0.000668
2912.77	0.0009388
2922.41	0.000804908
2932.06	0.00086962
2941.7	0.0012643
2951.35	0.001084
2960.99	0.00089061
2970.64	0.00085617
2980.28	0.00081353
2989.93	0.0007983
2999.57	0.0010505
3009.22	0.0010704
3018.86	0.000686
3028.51	0.0011205
3038.15	0.0010059
3047.8	0.000571
3057.44	0.0012271
3067.09	0.0018001
3076.73	0.0012266
3086.38	0.00084194
3096.02	0.0016182
3105.67	0.0012898
3115.31	0.0009043
3124.95	0.0009601
3134.6	0.0010266
3144.24	0.0010316
3153.89	0.0005
3163.53	0.001303
3173.18	0.000283
3182.82	0.0010619
3192.47	0.000709
3202.11	0.00081648
3211.76	0.000453
3221.4	0.000571
3231.05	0.000414
3240.69	0.000484
3250.34	0.0009245
3259.98	0.0009856
3269.63	0.00055
3279.27	0.000582
3288.92	0.00085559
3298.56	0.00085694
3308.21	0.0013215
3317.85	0.0007589
3327.49	0.000512
3337.14	0.0012043
3346.78	0.0007415
3356.43	0.0007065
3366.07	0.0010277
3375.72	0.0011081
3385.36	0.000942
3395.01	0.001841
3404.65	0.002241
3414.3	0.004541
3423.94	0.006271
3433.59	0.008521
3443.23	0.010761
3452.88	0.006881
3462.52	0.002081
3472.17	0.0017801
3481.81	0.0013507
3491.46	0.0014687
3501.1	0.0014886
3510.75	0.002641
3520.39	0.003141
3530.04	0.004361
3539.68	0.006251
3549.32	0.007251
3558.97	0.010291
3568.61	0.013281
3578.26	0.005751
3587.9	0.0015979
3597.55	0.0015267
3607.19	0.0009115
3616.84	0.000528
3626.48	0.000654
3636.13	0.0010979
3645.77	0.000809171
3655.42	0.00081529
3665.06	0.00082673
3674.71	0.001127
3684.35	0.000585
3694	0.00068
3703.64	0.000524
3713.29	0.0011563
3722.93	0.0013155
3732.58	0.000802901
3742.22	0.00088773
3751.86	0.0009987
3761.51	0.0007065
3771.15	0.000559
3780.8	0.0011262
3790.44	0.0012325
3800.09	0.0011429
3809.73	0.0010146
3819.38	0.0009378
3829.02	0.000348
3838.67	0.00097
3848.31	0.0007072
3857.96	0.00087376
3867.6	0.0009906
3877.25	0.00084852
3886.89	0.0007806
3896.54	0.000481
3906.18	0.000656
3915.83	0.000622
3925.47	0.00041
3935.12	0.0012296
3944.76	0.000569
3954.41	0.0007417
3964.05	9.5e-05
3973.69	0.000305
3983.34	0
3992.98	0.000508
