Infrared Spectrum: 2-Fluoro-3-(trifluoromethyl)benzamide
Formula: C 8 H 5 F 4 N O
CAS: 207853-60-9
State: gas
Origin: EPA-IR VAPOR PHASE LIBRARY
1/CM	ABSORBANCE
549.8	0.015155
559.445	0.025675
569.09	0.021085
578.734	0.010275
588.379	0.007735
598.024	0.007725
607.669	0.007785
617.313	0.009315
626.958	0.020205
636.603	0.037745
646.248	0.018705
655.893	0.009955
665.537	0.005575
675.182	0.004645
684.827	0.004785
694.472	0.005105
704.116	0.005885
713.761	0.010995
723.406	0.015295
733.051	0.012225
742.695	0.021465
752.34	0.047495
761.985	0.052035
771.63	0.024995
781.275	0.012895
790.919	0.011965
800.564	0.014265
810.209	0.019015
819.854	0.026175
829.498	0.033695
839.143	0.024615
848.788	0.012845
858.433	0.010945
868.078	0.010645
877.722	0.010945
887.367	0.010225
897.012	0.009095
906.657	0.008025
916.301	0.007575
925.946	0.008435
935.591	0.008275
945.236	0.008755
954.88	0.008215
964.525	0.007375
974.17	0.008115
983.815	0.008265
993.46	0.006675
1003.1	0.006225
1012.75	0.006435
1022.39	0.006375
1032.04	0.006225
1041.68	0.008795
1051.33	0.015655
1060.97	0.026635
1070.62	0.037805
1080.26	0.039635
1089.91	0.051825
1099.55	0.104155
1109.2	0.085985
1118.84	0.035795
1128.49	0.035785
1138.13	0.061655
1147.78	0.133475
1157.42	0.255065
1167.07	0.293275
1176.71	0.159895
1186.36	0.056305
1196	0.033115
1205.64	0.041945
1215.29	0.073975
1224.93	0.084415
1234.58	0.069925
1244.22	0.038745
1253.87	0.019745
1263.51	0.014935
1273.16	0.020375
1282.8	0.032465
1292.45	0.048725
1302.09	0.112055
1311.74	0.290845
1321.38	0.247335
1331.03	0.066395
1340.67	0.049135
1350.32	0.076495
1359.96	0.127965
1369.61	0.139355
1379.25	0.082445
1388.9	0.033925
1398.54	0.018385
1408.18	0.011835
1417.83	0.009585
1427.47	0.011685
1437.12	0.024065
1446.76	0.061175
1456.41	0.105325
1466.05	0.094335
1475.7	0.049885
1485.34	0.017825
1494.99	0.008515
1504.63	0.006625
1514.28	0.005755
1523.92	0.004975
1533.57	0.004895
1543.21	0.006005
1552.86	0.008735
1562.5	0.014585
1572.15	0.032205
1581.79	0.081325
1591.44	0.113635
1601.08	0.076985
1610.73	0.054945
1620.37	0.053575
1630.01	0.026935
1639.66	0.013295
1649.3	0.011775
1658.95	0.013225
1668.59	0.017655
1678.24	0.027405
1687.88	0.035845
1697.53	0.042755
1707.17	0.099635
1716.82	0.250785
1726.46	0.212635
1736.11	0.064015
1745.75	0.043195
1755.4	0.043255
1765.04	0.027225
1774.69	0.010505
1784.33	0.005175
1793.98	0.003445
1803.62	0.002665
1813.27	0.002375
1822.91	0.002645
1832.55	0.002415
1842.2	0.002175
1851.84	0.002015
1861.49	0.002455
1871.13	0.002455
1880.78	0.002295
1890.42	0.002175
1900.07	0.002305
1909.71	0.002935
1919.36	0.003475
1929	0.003095
1938.65	0.002305
1948.29	0.002265
1957.94	0.002265
1967.58	0.002205
1977.23	0.001875
1986.87	0.001795
1996.52	0.001665
2006.16	0.001695
2015.81	0.0013299
2025.45	0.0011063
2035.1	0.0011766
2044.74	0.0012392
2054.38	0.0012515
2064.03	0.001445
2073.67	0.0012159
2083.32	0.0009944
2092.96	0.0010925
2102.61	0.0009645
2112.25	0.0007382
2121.9	0.0007473
2131.54	0.0009689
2141.19	0.0013459
2150.83	0.0013553
2160.48	0.0013168
2170.12	0.001018
2179.77	0.0011643
2189.41	0.0013529
2199.06	0.0011564
2208.7	0.0012407
2218.35	0.0011756
2227.99	0.0010979
2237.64	0.0011806
2247.28	0.0013827
2256.92	0.001805
2266.57	0.001745
2276.21	0.001645
2285.86	0.001555
2295.5	0.001825
2305.15	0.001865
2314.79	0.002045
2324.44	0.001665
2334.08	0.001535
2343.73	0.001415
2353.37	0.0010278
2363.02	0.0011534
2372.66	0.0010325
2382.31	0.0010679
2391.95	0.0008804
2401.6	0.0007811
2411.24	0.0010103
2420.89	0.0012394
2430.53	0.001575
2440.18	0.001465
2449.82	0.001505
2459.47	0.0013302
2469.11	0.0013532
2478.75	0.0011102
2488.4	0.0007385
2498.04	0.0007667
2507.69	0.0009482
2517.33	0.0006101
2526.98	0.0006544
2536.62	0.0003617
2546.27	0.0007481
2555.91	0.0008042
2565.56	0.000689
2575.2	0.0008348
2584.85	0.0005248
2594.49	0.0006501
2604.14	0.0006858
2613.78	0.00048293
2623.43	0.0009654
2633.07	0.0006547
2642.72	0.0003549
2652.36	0.0005914
2662.01	0.0008986
2671.65	0.0010015
2681.29	0.0011158
2690.94	0.0008668
2700.58	0.0005542
2710.23	0.0006672
2719.87	0.0006755
2729.52	0.0008835
2739.16	0.0008289
2748.81	0.0013075
2758.45	0.0011195
2768.1	0.0006061
2777.74	0.0011094
2787.39	0.0005736
2797.03	0.0009329
2806.68	0.001505
2816.32	0.001665
2825.97	0.0011115
2835.61	0.0005684
2845.26	0.0005452
2854.9	0.0005859
2864.55	0.00042119
2874.19	0.0004932
2883.84	0.0008767
2893.48	0.0005972
2903.12	0.0009771
2912.77	0.0008034
2922.41	0.0008378
2932.06	0.0010423
2941.7	0.0011633
2951.35	0.0010821
2960.99	0.0007977
2970.64	0.0012341
2980.28	0.000223
2989.93	0.0007161
2999.57	0.0006794
3009.22	0.0006975
3018.86	0.0010286
3028.51	0.0009237
3038.15	0.000987
3047.8	0.0013623
3057.44	0.002215
3067.09	0.002525
3076.73	0.003225
3086.38	0.005245
3096.02	0.004675
3105.67	0.003115
3115.31	0.001835
3124.95	0.0011392
3134.6	0.0011882
3144.24	0.0006595
3153.89	0.0009018
3163.53	0.0012052
3173.18	0.001193
3182.82	0.0013593
3192.47	0.001144
3202.11	0.001344
3211.76	0.0008356
3221.4	0.0006326
3231.05	0.0009083
3240.69	0.000636
3250.34	0.000229
3259.98	0.0006546
3269.63	0.0005574
3279.27	0.000238
3288.92	0.0005249
3298.56	0.0006954
3308.21	0.0011235
3317.85	0.0010456
3327.49	0.0009139
3337.14	0.0012956
3346.78	0.0007595
3356.43	0.0008917
3366.07	0.0009473
3375.72	0.001685
3385.36	0.001745
3395.01	0.004015
3404.65	0.005695
3414.3	0.010405
3423.94	0.016255
3433.59	0.022595
3443.23	0.026825
3452.88	0.017955
3462.52	0.005725
3472.17	0.003495
3481.81	0.002865
3491.46	0.002665
3501.1	0.003605
3510.75	0.005305
3520.39	0.008105
3530.04	0.010215
3539.68	0.016065
3549.32	0.019025
3558.97	0.028035
3568.61	0.037865
3578.26	0.017325
3587.9	0.004195
3597.55	0.002325
3607.19	0.0010583
3616.84	0.0012883
3626.48	0.0010565
3636.13	0.0012458
3645.77	0.0008948
3655.42	0.0008484
3665.06	0.0009647
3674.71	0.0007223
3684.35	0.0010557
3694	0.000951
3703.64	0.0007743
3713.29	0.0008245
3722.93	0.0007024
3732.58	0.0009834
3742.22	0.0006257
3751.86	0.0007946
3761.51	0.0010938
3771.15	0.0006994
3780.8	0.0006711
3790.44	0.0010879
3800.09	0.0007041
3809.73	0.00037956
3819.38	0.0006633
3829.02	0.0008794
3838.67	0.000854
3848.31	0.000314
3857.96	0.0006759
3867.6	0.0008012
3877.25	0.0008981
3886.89	0.00045859
3896.54	0.0008349
3906.18	0.0005575
3915.83	0.0006559
3925.47	0.0008708
3935.12	0.0007019
3944.76	0.0009179
3954.41	0.0005899
3964.05	0.0005736
3973.69	0.0007233
3983.34	0.0006743
3992.98	0.0006127
