Infrared Spectrum: 2,6-Difluoromandelic acid
Formula: C 8 H 6 F 2 O 3
CAS: 207981-50-8
State: gas
Origin: EPA-IR VAPOR PHASE LIBRARY
1/CM	ABSORBANCE
549.8	0.0293
559.445	0.0264
569.09	0.0233
578.734	0.01772
588.379	0.0124
598.024	0.01071
607.669	0.01159
617.313	0.01472
626.958	0.01663
636.603	0.01466
646.248	0.01178
655.893	0.00997
665.537	0.01379
675.182	0.02033
684.827	0.01455
694.472	0.00757
704.116	0.00583
713.761	0.00707
723.406	0.01141
733.051	0.01062
742.695	0.0086
752.34	0.00963
761.985	0.00851
771.63	0.0135
781.275	0.03253
790.919	0.0298
800.564	0.01004
810.209	0.00266
819.854	0.00245
829.498	0.00329
839.143	0.0044
848.788	0.0039
858.433	0.00382
868.078	0.004
877.722	0.00293
887.367	0.00441
897.012	0.00844
906.657	0.01056
916.301	0.00592
925.946	0.0016272
935.591	0.000549
945.236	0.00251
954.88	0.00417
964.525	0.00519
974.17	0.00634
983.815	0.00859
993.46	0.01982
1003.1	0.05092
1012.75	0.0571
1022.39	0.02497
1032.04	0.01357
1041.68	0.01335
1051.33	0.01978
1060.97	0.03048
1070.62	0.04928
1080.26	0.06867
1089.91	0.05943
1099.55	0.03333
1109.2	0.02634
1118.84	0.03349
1128.49	0.04727
1138.13	0.05429
1147.78	0.04224
1157.42	0.02889
1167.07	0.02187
1176.71	0.01689
1186.36	0.02267
1196	0.02614
1205.64	0.02122
1215.29	0.0207
1224.93	0.03275
1234.58	0.04305
1244.22	0.03379
1253.87	0.02223
1263.51	0.02325
1273.16	0.03178
1282.8	0.03464
1292.45	0.02511
1302.09	0.02211
1311.74	0.02353
1321.38	0.02842
1331.03	0.03433
1340.67	0.03398
1350.32	0.02827
1359.96	0.02191
1369.61	0.0161
1379.25	0.01302
1388.9	0.01163
1398.54	0.01087
1408.18	0.00951
1417.83	0.00816
1427.47	0.00739
1437.12	0.00749
1446.76	0.0096
1456.41	0.01989
1466.05	0.04747
1475.7	0.06187
1485.34	0.03207
1494.99	0.01024
1504.63	0.00586
1514.28	0.00479
1523.92	0.00441
1533.57	0.00496
1543.21	0.00741
1552.86	0.00946
1562.5	0.01172
1572.15	0.01452
1581.79	0.02057
1591.44	0.02866
1601.08	0.02788
1610.73	0.02789
1620.37	0.03991
1630.01	0.02979
1639.66	0.01024
1649.3	0.0056
1658.95	0.00453
1668.59	0.00393
1678.24	0.00407
1687.88	0.00436
1697.53	0.0047
1707.17	0.00553
1716.82	0.0065
1726.46	0.0082
1736.11	0.01114
1745.75	0.01489
1755.4	0.02014
1765.04	0.03468
1774.69	0.0842
1784.33	0.12212
1793.98	0.07618
1803.62	0.03925
1813.27	0.02772
1822.91	0.01748
1832.55	0.01086
1842.2	0.00762
1851.84	0.00569
1861.49	0.00451
1871.13	0.00357
1880.78	0.00283
1890.42	0.00263
1900.07	0.00281
1909.71	0.00395
1919.36	0.00406
1929	0.00264
1938.65	0.00206
1948.29	0.0021655
1957.94	0.002147
1967.58	0.0018961
1977.23	0.0020249
1986.87	0.0020367
1996.52	0.0019285
2006.16	0.0019895
2015.81	0.0021836
2025.45	0.002079
2035.1	0.0019548
2044.74	0.0018618
2054.38	0.0018691
2064.03	0.00193
2073.67	0.0019829
2083.32	0.0018211
2092.96	0.0017728
2102.61	0.0018805
2112.25	0.0019468
2121.9	0.0019649
2131.54	0.0019766
2141.19	0.001864
2150.83	0.0020546
2160.48	0.002067
2170.12	0.0018586
2179.77	0.0018871
2189.41	0.0018304
2199.06	0.0018951
2208.7	0.0018924
2218.35	0.0020759
2227.99	0.00248
2237.64	0.00223
2247.28	0.0021025
2256.92	0.00234
2266.57	0.00242
2276.21	0.00239
2285.86	0.00259
2295.5	0.00245
2305.15	0.00236
2314.79	0.00227
2324.44	0.0019301
2334.08	0.001708
2343.73	0.0021347
2353.37	0.0020435
2363.02	0.002202
2372.66	0.0021849
2382.31	0.00225
2391.95	0.0019735
2401.6	0.0018082
2411.24	0.0017863
2420.89	0.001915
2430.53	0.0019424
2440.18	0.0021978
2449.82	0.00229
2459.47	0.0021968
2469.11	0.00239
2478.75	0.0023
2488.4	0.00252
2498.04	0.002181
2507.69	0.0021563
2517.33	0.00248
2526.98	0.0021001
2536.62	0.0020871
2546.27	0.0020197
2555.91	0.0018793
2565.56	0.002114
2575.2	0.0017028
2584.85	0.0017697
2594.49	0.0015349
2604.14	0.0017754
2613.78	0.0016981
2623.43	0.0020887
2633.07	0.0018355
2642.72	0.0017234
2652.36	0.0016908
2662.01	0.001994
2671.65	0.00122801
2681.29	0.001953
2690.94	0.0016608
2700.58	0.0014893
2710.23	0.0017777
2719.87	0.0016641
2729.52	0.0020826
2739.16	0.0015155
2748.81	0.0018401
2758.45	0.001972
2768.1	0.0016143
2777.74	0.0017174
2787.39	0.0016769
2797.03	0.0017078
2806.68	0.0018946
2816.32	0.0017669
2825.97	0.001529
2835.61	0.001787
2845.26	0.0017113
2854.9	0.0016438
2864.55	0.0018477
2874.19	0.001924
2883.84	0.0017631
2893.48	0.00223
2903.12	0.00231
2912.77	0.00295
2922.41	0.0029
2932.06	0.0037
2941.7	0.00364
2951.35	0.00295
2960.99	0.00235
2970.64	0.0019785
2980.28	0.0017618
2989.93	0.0014094
2999.57	0.0016829
3009.22	0.0016237
3018.86	0.001913
3028.51	0.00249
3038.15	0.0026
3047.8	0.00246
3057.44	0.0018748
3067.09	0.00272
3076.73	0.00315
3086.38	0.00393
3096.02	0.0037
3105.67	0.00294
3115.31	0.0022074
3124.95	0.0016124
3134.6	0.001117
3144.24	0.0018762
3153.89	0.0018609
3163.53	0.0017724
3173.18	0.0017275
3182.82	0.0017514
3192.47	0.0015288
3202.11	0.0019079
3211.76	0.0017807
3221.4	0.0021577
3231.05	0.0016454
3240.69	0.0014718
3250.34	0.00251
3259.98	0.0015578
3269.63	0.0017181
3279.27	0.0019237
3288.92	0.0016883
3298.56	0.0020326
3308.21	0.0021574
3317.85	0.0020134
3327.49	0.0019412
3337.14	0.002216
3346.78	0.0020504
3356.43	0.00216
3366.07	0.0018432
3375.72	0.0020177
3385.36	0.00235
3395.01	0.00258
3404.65	0.0018721
3414.3	0.0020836
3423.94	0.0019175
3433.59	0.0020754
3443.23	0.0020036
3452.88	0.0021047
3462.52	0.0023
3472.17	0.00273
3481.81	0.00347
3491.46	0.00547
3501.1	0.00651
3510.75	0.007
3520.39	0.00667
3530.04	0.00652
3539.68	0.00722
3549.32	0.00928
3558.97	0.01559
3568.61	0.04272
3578.26	0.0652
3587.9	0.03397
3597.55	0.0137
3607.19	0.00881
3616.84	0.00582
3626.48	0.00543
3636.13	0.0079
3645.77	0.00799
3655.42	0.00572
3665.06	0.00439
3674.71	0.00349
3684.35	0.00313
3694	0.0021863
3703.64	0.00254
3713.29	0.00246
3722.93	0.0018707
3732.58	0.00234
3742.22	0.0015796
3751.86	0.0017635
3761.51	0.0014844
3771.15	0.0017806
3780.8	0.001829
3790.44	0.00239
3800.09	0.00267
3809.73	0.00228
3819.38	0.00227
3829.02	0.00251
3838.67	0.00261
3848.31	0.0016464
3857.96	0.00227
3867.6	0.0020399
3877.25	0.0023
3886.89	0.0018487
3896.54	0.0018217
3906.18	0.00236
3915.83	0.0019946
3925.47	0.00255
3935.12	0.002042
3944.76	0.0016413
3954.41	0.0016577
3964.05	0.00227
3973.69	0.0015768
3983.34	0.0017336
3992.98	0.0017054
