Infrared Spectrum: 4-Fluoro-3-(trifluoromethyl)acetophenone
Formula: C 9 H 6 F 4 O
CAS: 208173-24-4
State: gas
Origin: EPA-IR VAPOR PHASE LIBRARY
1/CM	ABSORBANCE
549.8	0.01452
559.445	0.02399
569.09	0.03364
578.734	0.01741
588.379	0.00926
598.024	0.01085
607.669	0.0088
617.313	0.00675
626.958	0.00325
636.603	0.00424
646.248	0.01174
655.893	0.02091
665.537	0.00755
675.182	0.00275
684.827	0.00399
694.472	0.01073
704.116	0.01776
713.761	0.00677
723.406	0.0034
733.051	0.00324
742.695	0.0020792
752.34	0.00279
761.985	0.00512
771.63	0.00746
781.275	0.00312
790.919	0.00271
800.564	0.0023491
810.209	0.00457
819.854	0.01377
829.498	0.02705
839.143	0.02668
848.788	0.01198
858.433	0.00789
868.078	0.00798
877.722	0.00445
887.367	0.00437
897.012	0.01011
906.657	0.01131
916.301	0.00951
925.946	0.00829
935.591	0.00721
945.236	0.00854
954.88	0.01331
964.525	0.01216
974.17	0.00691
983.815	0.00448
993.46	0.00396
1003.1	0.00387
1012.75	0.00492
1022.39	0.00502
1032.04	0.00516
1041.68	0.01509
1051.33	0.04386
1060.97	0.06071
1070.62	0.02897
1080.26	0.0241
1089.91	0.018
1099.55	0.01337
1109.2	0.0138
1118.84	0.04397
1128.49	0.08563
1138.13	0.08368
1147.78	0.11503
1157.42	0.18884
1167.07	0.25266
1176.71	0.14474
1186.36	0.06893
1196	0.04233
1205.64	0.0369
1215.29	0.05267
1224.93	0.10533
1234.58	0.25579
1244.22	0.29329
1253.87	0.23236
1263.51	0.12526
1273.16	0.09707
1282.8	0.05347
1292.45	0.0428
1302.09	0.04272
1311.74	0.06595
1321.38	0.1181
1331.03	0.10172
1340.67	0.04186
1350.32	0.0334
1359.96	0.06155
1369.61	0.05414
1379.25	0.02385
1388.9	0.01486
1398.54	0.01678
1408.18	0.03033
1417.83	0.05482
1427.47	0.03845
1437.12	0.01912
1446.76	0.01292
1456.41	0.00948
1466.05	0.00977
1475.7	0.01393
1485.34	0.02135
1494.99	0.04593
1504.63	0.06197
1514.28	0.02539
1523.92	0.00898
1533.57	0.00756
1543.21	0.00831
1552.86	0.00934
1562.5	0.01148
1572.15	0.01705
1581.79	0.02798
1591.44	0.04644
1601.08	0.05685
1610.73	0.06633
1620.37	0.05861
1630.01	0.03077
1639.66	0.01814
1649.3	0.01045
1658.95	0.00956
1668.59	0.01337
1678.24	0.01322
1687.88	0.01604
1697.53	0.04725
1707.17	0.13319
1716.82	0.09265
1726.46	0.02275
1736.11	0.0123
1745.75	0.01189
1755.4	0.01005
1765.04	0.0057
1774.69	0.00414
1784.33	0.00378
1793.98	0.0043
1803.62	0.00425
1813.27	0.00337
1822.91	0.00285
1832.55	0.00276
1842.2	0.0025677
1851.84	0.0025656
1861.49	0.002516
1871.13	0.00271
1880.78	0.00279
1890.42	0.0023784
1900.07	0.00325
1909.71	0.00285
1919.36	0.00297
1929	0.00334
1938.65	0.00321
1948.29	0.0024967
1957.94	0.0017909
1967.58	0.00172806
1977.23	0.001456
1986.87	0.00147
1996.52	0.00173012
2006.16	0.0020296
2015.81	0.0019552
2025.45	0.0021065
2035.1	0.002016
2044.74	0.002133
2054.38	0.0017856
2064.03	0.0017962
2073.67	0.0017868
2083.32	0.0016574
2092.96	0.00168067
2102.61	0.00166247
2112.25	0.0018275
2121.9	0.0019293
2131.54	0.0021721
2141.19	0.00167454
2150.83	0.001552
2160.48	0.001566
2170.12	0.00173209
2179.77	0.0015895
2189.41	0.0019703
2199.06	0.0020215
2208.7	0.0015874
2218.35	0.0017944
2227.99	0.0021103
2237.64	0.001882
2247.28	0.002032
2256.92	0.00176508
2266.57	0.002105
2276.21	0.00168281
2285.86	0.0021306
2295.5	0.001568
2305.15	0.0018953
2314.79	0.0023512
2324.44	0.00268
2334.08	0.0024514
2343.73	0.0022684
2353.37	0.0020786
2363.02	0.0018595
2372.66	0.0019288
2382.31	0.0019743
2391.95	0.001624
2401.6	0.0016117
2411.24	0.001247
2420.89	0.00174119
2430.53	0.0019268
2440.18	0.0015868
2449.82	0.0020165
2459.47	0.00172421
2469.11	0.0018058
2478.75	0.0017396
2488.4	0.0020657
2498.04	0.0022558
2507.69	0.0020303
2517.33	0.0017844
2526.98	0.0021151
2536.62	0.001545
2546.27	0.001907
2555.91	0.0018479
2565.56	0.001505
2575.2	0.0017921
2584.85	0.00170762
2594.49	0.0016593
2604.14	0.0021722
2613.78	0.0019461
2623.43	0.001412
2633.07	0.0016203
2642.72	0.001277
2652.36	0.0015853
2662.01	0.001352
2671.65	0.001356
2681.29	0.000944
2690.94	0.0019087
2700.58	0.001435
2710.23	0.000917
2719.87	0.001177
2729.52	0.001187
2739.16	0.001148
2748.81	0.001276
2758.45	0.00169329
2768.1	0.001338
2777.74	0.001497
2787.39	0.00104
2797.03	0.001319
2806.68	0.000803
2816.32	0.001215
2825.97	0.001233
2835.61	0.001349
2845.26	0.00170317
2854.9	0.0019274
2864.55	0.001475
2874.19	0.001066
2883.84	0.001184
2893.48	0.001255
2903.12	0.00169476
2912.77	0.001954
2922.41	0.00272
2932.06	0.00295
2941.7	0.0024187
2951.35	0.0026453
2960.99	0.00283
2970.64	0.00309
2980.28	0.00343
2989.93	0.00295
2999.57	0.00322
3009.22	0.00464
3018.86	0.00556
3028.51	0.00405
3038.15	0.0026283
3047.8	0.0021983
3057.44	0.00285
3067.09	0.00346
3076.73	0.00423
3086.38	0.00524
3096.02	0.0039
3105.67	0.0018905
3115.31	0.0019381
3124.95	0.001401
3134.6	0.00136
3144.24	0.0020728
3153.89	0.001406
3163.53	0.0018061
3173.18	0.001237
3182.82	0.001321
3192.47	0.00166145
3202.11	0.001609
3211.76	0.001569
3221.4	0.001446
3231.05	0.00135
3240.69	0.001419
3250.34	0.000882
3259.98	0.000933
3269.63	0.000769
3279.27	0.00093
3288.92	0.001443
3298.56	0.0018142
3308.21	0.0025762
3317.85	0.0018097
3327.49	0.0017834
3337.14	0.001772
3346.78	0.001514
3356.43	0.001262
3366.07	0.000756
3375.72	0.00082
3385.36	0.0021625
3395.01	0.00344
3404.65	0.00307
3414.3	0.0023062
3423.94	0.0020108
3433.59	0.001401
3443.23	0.0021608
3452.88	0.000842
3462.52	0.0015954
3472.17	0.000799
3481.81	0.001238
3491.46	0.001224
3501.1	0.000985
3510.75	0.000986
3520.39	0.000906
3530.04	0.001164
3539.68	0.00048
3549.32	0.001212
3558.97	0.001167
3568.61	0.00122
3578.26	0.00113
3587.9	0.001078
3597.55	0.001302
3607.19	0.00142
3616.84	0.001
3626.48	0.001336
3636.13	0.00167415
3645.77	0.000933
3655.42	0.001273
3665.06	0.00056
3674.71	0.001175
3684.35	0.00063
3694	0.001284
3703.64	0.001239
3713.29	0.000899
3722.93	0.0016322
3732.58	0.00099
3742.22	0.001292
3751.86	0.00154
3761.51	0.00064
3771.15	8e-05
3780.8	0.000706
3790.44	0.001343
3800.09	0.0015786
3809.73	0.001505
3819.38	0.001091
3829.02	0.0018498
3838.67	0.000697
3848.31	0.0016221
3857.96	0.000755
3867.6	0.001254
3877.25	0.001469
3886.89	0.00066
3896.54	0.000779
3906.18	0.00064
3915.83	0.000945
3925.47	0.000815
3935.12	0.00174997
3944.76	0.001449
3954.41	0.001214
3964.05	0.001015
3973.69	0.000804
3983.34	0.001082
3992.98	0.00089
