Infrared Spectrum: 2-Fluoro-6-(trifluoromethyl)benzophenone
Formula: C 14 H 8 F 4 O
CAS: 208173-18-6
State: gas
Origin: EPA-IR VAPOR PHASE LIBRARY
1/CM	ABSORBANCE
549.8	0.001809
559.445	0.001969
569.09	0.0011258
578.734	0.001849
588.379	0.002739
598.024	0.0012745
607.669	0.0013165
617.313	0.000977
626.958	0.001949
636.603	0.003939
646.248	0.006969
655.893	0.023979
665.537	0.010109
675.182	0.007089
684.827	0.013379
694.472	0.021729
704.116	0.037699
713.761	0.021669
723.406	0.010019
733.051	0.009139
742.695	0.017439
752.34	0.011689
761.985	0.012579
771.63	0.009009
781.275	0.005129
790.919	0.008619
800.564	0.021269
810.209	0.011129
819.854	0.002389
829.498	0.002619
839.143	0.001859
848.788	0.001799
858.433	0.002119
868.078	0.002649
877.722	0.003879
887.367	0.006379
897.012	0.015099
906.657	0.033399
916.301	0.037709
925.946	0.066539
935.591	0.041169
945.236	0.009209
954.88	0.004709
964.525	0.004459
974.17	0.003949
983.815	0.003259
993.46	0.003739
1003.1	0.004489
1012.75	0.003709
1022.39	0.004069
1032.04	0.004589
1041.68	0.003429
1051.33	0.003839
1060.97	0.007669
1070.62	0.010029
1080.26	0.005949
1089.91	0.005609
1099.55	0.006759
1109.2	0.011809
1118.84	0.034169
1128.49	0.046469
1138.13	0.048649
1147.78	0.096909
1157.42	0.107429
1167.07	0.099459
1176.71	0.137589
1186.36	0.094839
1196	0.034039
1205.64	0.013659
1215.29	0.008779
1224.93	0.011369
1234.58	0.020119
1244.22	0.031889
1253.87	0.082099
1263.51	0.145829
1273.16	0.065469
1282.8	0.025999
1292.45	0.023809
1302.09	0.039609
1311.74	0.106289
1321.38	0.166829
1331.03	0.081609
1340.67	0.019319
1350.32	0.008329
1359.96	0.005499
1369.61	0.004719
1379.25	0.004429
1388.9	0.003929
1398.54	0.003629
1408.18	0.003579
1417.83	0.004249
1427.47	0.005979
1437.12	0.012569
1446.76	0.032329
1456.41	0.041689
1466.05	0.025999
1475.7	0.018459
1485.34	0.009819
1494.99	0.005329
1504.63	0.004799
1514.28	0.003939
1523.92	0.003649
1533.57	0.003649
1543.21	0.004279
1552.86	0.004489
1562.5	0.005449
1572.15	0.010389
1581.79	0.016209
1591.44	0.013049
1601.08	0.014829
1610.73	0.014069
1620.37	0.008969
1630.01	0.005039
1639.66	0.004879
1649.3	0.004689
1658.95	0.005409
1668.59	0.007769
1678.24	0.010669
1687.88	0.027909
1697.53	0.085769
1707.17	0.057769
1716.82	0.017099
1726.46	0.009729
1736.11	0.005979
1745.75	0.004189
1755.4	0.004139
1765.04	0.003259
1774.69	0.002739
1784.33	0.002169
1793.98	0.002789
1803.62	0.003909
1813.27	0.002899
1822.91	0.001999
1832.55	0.001759
1842.2	0.001949
1851.84	0.002049
1861.49	0.002639
1871.13	0.002939
1880.78	0.002059
1890.42	0.001889
1900.07	0.002489
1909.71	0.002299
1919.36	0.002259
1929	0.002409
1938.65	0.003439
1948.29	0.002789
1957.94	0.002599
1967.58	0.002559
1977.23	0.002119
1986.87	0.001719
1996.52	0.0015226
2006.16	0.001609
2015.81	0.0015003
2025.45	0.001649
2035.1	0.0014582
2044.74	0.0013999
2054.38	0.001528
2064.03	0.001839
2073.67	0.001969
2083.32	0.001939
2092.96	0.001809
2102.61	0.001639
2112.25	0.001779
2121.9	0.0011988
2131.54	0.0014821
2141.19	0.0014785
2150.83	0.001619
2160.48	0.0015014
2170.12	0.001649
2179.77	0.001579
2189.41	0.001949
2199.06	0.001759
2208.7	0.001679
2218.35	0.001889
2227.99	0.001769
2237.64	0.001919
2247.28	0.002009
2256.92	0.001679
2266.57	0.001869
2276.21	0.001969
2285.86	0.001889
2295.5	0.001869
2305.15	0.001809
2314.79	0.002489
2324.44	0.002329
2334.08	0.001769
2343.73	0.002099
2353.37	0.001949
2363.02	0.001859
2372.66	0.001869
2382.31	0.001929
2391.95	0.001849
2401.6	0.001959
2411.24	0.001989
2420.89	0.001849
2430.53	0.001659
2440.18	0.001719
2449.82	0.0015341
2459.47	0.001859
2469.11	0.001649
2478.75	0.0014082
2488.4	0.001879
2498.04	0.001859
2507.69	0.002129
2517.33	0.001879
2526.98	0.001709
2536.62	0.001879
2546.27	0.001839
2555.91	0.001799
2565.56	0.001699
2575.2	0.001719
2584.85	0.002049
2594.49	0.001719
2604.14	0.001929
2613.78	0.002179
2623.43	0.001729
2633.07	0.001879
2642.72	0.001739
2652.36	0.0014226
2662.01	0.0014803
2671.65	0.001699
2681.29	0.0012763
2690.94	0.0011482
2700.58	0.0013874
2710.23	0.001609
2719.87	0.001809
2729.52	0.001919
2739.16	0.001969
2748.81	0.001809
2758.45	0.001769
2768.1	0.001739
2777.74	0.001779
2787.39	0.001799
2797.03	0.0015055
2806.68	0.001849
2816.32	0.0014297
2825.97	0.001809
2835.61	0.001579
2845.26	0.001839
2854.9	0.0015584
2864.55	0.002159
2874.19	0.001949
2883.84	0.001899
2893.48	0.0015652
2903.12	0.001859
2912.77	0.001969
2922.41	0.001809
2932.06	0.001899
2941.7	0.002029
2951.35	0.001699
2960.99	0.001769
2970.64	0.001949
2980.28	0.001699
2989.93	0.001619
2999.57	0.001829
3009.22	0.002219
3018.86	0.002799
3028.51	0.005079
3038.15	0.006659
3047.8	0.006299
3057.44	0.006469
3067.09	0.011629
3076.73	0.014189
3086.38	0.011599
3096.02	0.008359
3105.67	0.004709
3115.31	0.002429
3124.95	0.001889
3134.6	0.001789
3144.24	0.002419
3153.89	0.001689
3163.53	0.001719
3173.18	0.002049
3182.82	0.0015719
3192.47	0.001879
3202.11	0.001799
3211.76	0.001689
3221.4	0.0015449
3231.05	0.0008262
3240.69	0.0012801
3250.34	0.0012785
3259.98	0.0014719
3269.63	0.001522
3279.27	0.0007746
3288.92	0.0015093
3298.56	0.0015518
3308.21	0.0013718
3317.85	0.001699
3327.49	0.001679
3337.14	0.002029
3346.78	0.0013942
3356.43	0.001929
3366.07	0.001789
3375.72	0.002379
3385.36	0.002579
3395.01	0.001769
3404.65	0.0015629
3414.3	0.001929
3423.94	0.0014522
3433.59	0.001759
3443.23	0.0013704
3452.88	0.0013053
3462.52	0.001769
3472.17	0.0015556
3481.81	0.0010432
3491.46	0.0012364
3501.1	0.001423
3510.75	0.0012459
3520.39	0.0011376
3530.04	0.0015532
3539.68	0.0010516
3549.32	0.0009639
3558.97	0.001382
3568.61	0.001619
3578.26	0.0010572
3587.9	0.0012807
3597.55	0.0010942
3607.19	0.000931
3616.84	0.001512
3626.48	0.00115
3636.13	0.0013371
3645.77	0.0015492
3655.42	0.001659
3665.06	0.0011427
3674.71	0.0012726
3684.35	0.0013144
3694	0.001729
3703.64	0.0011635
3713.29	0.001899
3722.93	0.0015762
3732.58	0.0014592
3742.22	0.0006279
3751.86	0.0012937
3761.51	0.001599
3771.15	0.001619
3780.8	0.0015159
3790.44	0.0012092
3800.09	0.0012975
3809.73	0.001589
3819.38	0.001709
3829.02	0.001789
3838.67	0.0009209
3848.31	0.001659
3857.96	0.0015403
3867.6	0.0013274
3877.25	0.0014479
3886.89	0.0009479
3896.54	0.0014308
3906.18	0.000861
3915.83	0.0012732
3925.47	0.001619
3935.12	0.0008009
3944.76	0.0009311
3954.41	0.001909
3964.05	0.0013505
3973.69	0.0015239
3983.34	0.001879
3992.98	0.001689
