Infrared Spectrum: Pentamethylbenzenesulphonamide
Formula: C 11 H 17 N O 2 S
CAS: 208173-25-5
State: gas
Origin: EPA-IR VAPOR PHASE LIBRARY
1/CM	ABSORBANCE
549.8	0.00794
559.445	0.00938
569.09	0.0111
578.734	0.0108
588.379	0.01903
598.024	0.02922
607.669	0.02796
617.313	0.01718
626.958	0.01178
636.603	0.00876
646.248	0.00706
655.893	0.00704
665.537	0.00639
675.182	0.00652
684.827	0.00583
694.472	0.00564
704.116	0.00569
713.761	0.00559
723.406	0.00682
733.051	0.01081
742.695	0.00923
752.34	0.00661
761.985	0.00683
771.63	0.00728
781.275	0.00748
790.919	0.00807
800.564	0.00953
810.209	0.01247
819.854	0.0189
829.498	0.02089
839.143	0.01836
848.788	0.01196
858.433	0.0074
868.078	0.00523
877.722	0.00416
887.367	0.00363
897.012	0.00322
906.657	0.00291
916.301	0.00348
925.946	0.0042
935.591	0.00469
945.236	0.00422
954.88	0.00387
964.525	0.00302
974.17	0.00301
983.815	0.00271
993.46	0.00315
1003.1	0.00423
1012.75	0.00452
1022.39	0.00344
1032.04	0.00342
1041.68	0.00409
1051.33	0.00334
1060.97	0.00667
1070.62	0.0059
1080.26	0.00324
1089.91	0.00275
1099.55	0.00321
1109.2	0.00182
1118.84	0.004
1128.49	0.0026
1138.13	0.00724
1147.78	0.01537
1157.42	0.04191
1167.07	0.0408
1176.71	0.01445
1186.36	0.00444
1196	0.00387
1205.64	0.00533
1215.29	0.01245
1224.93	0.01064
1234.58	0.00515
1244.22	0.00392
1253.87	0.00488
1263.51	0.00264
1273.16	0.00381
1282.8	0.00387
1292.45	0.00326
1302.09	0.00402
1311.74	0.00415
1321.38	0.0056
1331.03	0.00879
1340.67	0.01709
1350.32	0.03545
1359.96	0.0454
1369.61	0.02504
1379.25	0.0132
1388.9	0.01057
1398.54	0.01452
1408.18	0.01823
1417.83	0.01384
1427.47	0.00997
1437.12	0.00875
1446.76	0.00895
1456.41	0.00887
1466.05	0.00834
1475.7	0.00745
1485.34	0.00641
1494.99	0.0058
1504.63	0.00534
1514.28	0.00541
1523.92	0.00602
1533.57	0.00782
1543.21	0.01069
1552.86	0.0121
1562.5	0.00901
1572.15	0.00556
1581.79	0.00377
1591.44	0.00329
1601.08	0.00242
1610.73	0.00216
1620.37	0.00227
1630.01	0.00198
1639.66	0.00199
1649.3	0.0016939
1658.95	0.0014158
1668.59	0.0012276
1678.24	0.0011922
1687.88	0.0013957
1697.53	0.0011948
1707.17	0.0013533
1716.82	0.0010062
1726.46	0.0011811
1736.11	0.0011579
1745.75	0.00084082
1755.4	0.001263
1765.04	0.0014913
1774.69	0.0012557
1784.33	0.0011187
1793.98	0.0010279
1803.62	0.0011161
1813.27	0.0010397
1822.91	0.0011675
1832.55	0.00089931
1842.2	0.0012122
1851.84	0.0014082
1861.49	0.0010133
1871.13	0.0012516
1880.78	0.0009636
1890.42	0.00084944
1900.07	0.0010346
1909.71	0.0010049
1919.36	0.0010017
1929	0.0011287
1938.65	0.00126
1948.29	0.0011045
1957.94	0.001261
1967.58	0.0012752
1977.23	0.0011912
1986.87	0.0012165
1996.52	0.001188
2006.16	0.0012614
2015.81	0.0013224
2025.45	0.0012125
2035.1	0.0012113
2044.74	0.001159
2054.38	0.0010648
2064.03	0.0013177
2073.67	0.001275
2083.32	0.001233
2092.96	0.0013371
2102.61	0.0012275
2112.25	0.0014443
2121.9	0.0014018
2131.54	0.0014406
2141.19	0.001252
2150.83	0.0013099
2160.48	0.0012381
2170.12	0.0014567
2179.77	0.0011294
2189.41	0.0010093
2199.06	0.0010708
2208.7	0.0012283
2218.35	0.0013501
2227.99	0.0013456
2237.64	0.0015149
2247.28	0.0013678
2256.92	0.0013317
2266.57	0.0009899
2276.21	0.0009662
2285.86	0.0012835
2295.5	0.0014115
2305.15	0.0013071
2314.79	0.0011652
2324.44	0.00108
2334.08	0.0010955
2343.73	0.001388
2353.37	0.0012817
2363.02	0.0013091
2372.66	0.001295
2382.31	0.001428
2391.95	0.001414
2401.6	0.0012169
2411.24	0.0014515
2420.89	0.0017343
2430.53	0.001428
2440.18	0.0013051
2449.82	0.0016774
2459.47	0.0012832
2469.11	0.0014227
2478.75	0.0017572
2488.4	0.001531
2498.04	0.0017745
2507.69	0.001244
2517.33	0.0014234
2526.98	0.0012217
2536.62	0.0016746
2546.27	0.0014557
2555.91	0.001143
2565.56	0.0012806
2575.2	0.0012768
2584.85	0.00189
2594.49	0.0013741
2604.14	0.0017368
2613.78	0.0013791
2623.43	0.0013582
2633.07	0.0015473
2642.72	0.00139
2652.36	0.0017284
2662.01	0.0014603
2671.65	0.001379
2681.29	0.0014942
2690.94	0.0012981
2700.58	0.0016738
2710.23	0.0013557
2719.87	0.0012523
2729.52	0.00185
2739.16	0.0017635
2748.81	0.0017403
2758.45	0.001644
2768.1	0.00211
2777.74	0.0019
2787.39	0.00206
2797.03	0.00206
2806.68	0.00189
2816.32	0.00243
2825.97	0.00231
2835.61	0.0025
2845.26	0.00303
2854.9	0.00387
2864.55	0.00537
2874.19	0.00755
2883.84	0.00958
2893.48	0.00953
2903.12	0.01013
2912.77	0.01089
2922.41	0.01298
2932.06	0.01528
2941.7	0.01698
2951.35	0.01603
2960.99	0.01379
2970.64	0.0122
2980.28	0.01064
2989.93	0.00937
2999.57	0.00861
3009.22	0.00794
3018.86	0.00771
3028.51	0.00713
3038.15	0.00586
3047.8	0.00545
3057.44	0.005
3067.09	0.00429
3076.73	0.00371
3086.38	0.00398
3096.02	0.00329
3105.67	0.00321
3115.31	0.0022
3124.95	0.00251
3134.6	0.00197
3144.24	0.00214
3153.89	0.0016053
3163.53	0.0015037
3173.18	0.0015225
3182.82	0.00204
3192.47	0.00209
3202.11	0.0015712
3211.76	0.0012458
3221.4	0.0017802
3231.05	0.0016238
3240.69	0.0013113
3250.34	0.000826685
3259.98	0.0013091
3269.63	0.0017497
3279.27	0.0016114
3288.92	0.0017917
3298.56	0.0015068
3308.21	0.0011133
3317.85	0.00235
3327.49	0.00279
3337.14	0.00296
3346.78	0.00488
3356.43	0.00631
3366.07	0.00657
3375.72	0.00544
3385.36	0.00326
3395.01	0.00193
3404.65	0.0016113
3414.3	0.00204
3423.94	0.0024
3433.59	0.00219
3443.23	0.00372
3452.88	0.00355
3462.52	0.00429
3472.17	0.00364
3481.81	0.00363
3491.46	0.00258
3501.1	0.00239
3510.75	0.0016674
3520.39	0.0018076
3530.04	0.0009838
3539.68	0.0009892
3549.32	0.001362
3558.97	0.0011352
3568.61	0.0017833
3578.26	0.0016906
3587.9	0.0014465
3597.55	0.0011083
3607.19	0.0012824
3616.84	0.0012494
3626.48	0.0013884
3636.13	0.000828411
3645.77	0.0014952
3655.42	0.0015545
3665.06	0.0011426
3674.71	0.000592
3684.35	0.0009461
3694	0.0011645
3703.64	0.0013486
3713.29	0.0014519
3722.93	0.0014411
3732.58	0.0017083
3742.22	0.0007729
3751.86	0.0011115
3761.51	0.0011178
3771.15	0.001195
3780.8	0.0011825
3790.44	0.0016621
3800.09	0.0016414
3809.73	0.0009461
3819.38	0.00088949
3829.02	0.001199
3838.67	0.0012369
3848.31	0.0011733
3857.96	0.0010201
3867.6	0.0007574
3877.25	0.0014226
3886.89	0.000407
3896.54	0.0009347
3906.18	0.001035
3915.83	0.0011658
3925.47	0.0015881
3935.12	0.00084114
3944.76	0.0015621
3954.41	0.000635
3964.05	0.0011657
3973.69	0
3983.34	0.0016042
3992.98	0.0012661
