Infrared Spectrum: Acenaphthylene
Formula: C 12 H 8
CAS: 208-96-8
State: solid
Instrument: Bruker Tensor 37 FTIR
Resolution: 0.96450084
Origin: Pacific Northwest National Laboratory Under IARPA Contract
1/cm	Reflectance
7498.99	0.754701
7481.63	0.746509
7464.27	0.739917
7446.91	0.738931
7429.55	0.735882
7412.19	0.730999
7394.84	0.731458
7377.48	0.731671
7360.12	0.732096
7342.76	0.724786
7325.4	0.699256
7308.04	0.693837
7290.68	0.699192
7273.32	0.710021
7255.96	0.723844
7238.6	0.723588
7221.24	0.71696
7203.88	0.719973
7186.52	0.719526
7169.16	0.719985
7151.8	0.725028
7134.44	0.726473
7117.08	0.7284
7099.72	0.736508
7082.36	0.749156
7065	0.754155
7047.64	0.759257
7030.28	0.763811
7012.92	0.766278
6995.56	0.770868
6978.2	0.771084
6960.84	0.776427
6943.48	0.771902
6926.12	0.767691
6908.76	0.750665
6891.4	0.737182
6874.04	0.723528
6856.68	0.696446
6839.32	0.601453
6821.96	0.533038
6804.6	0.425419
6787.24	0.317093
6769.88	0.291556
6752.52	0.310655
6735.16	0.228987
6717.8	0.219237
6700.44	0.311145
6683.08	0.343033
6665.72	0.427636
6648.36	0.502352
6631	0.534946
6613.64	0.533259
6596.28	0.52257
6578.92	0.511243
6561.56	0.527932
6544.2	0.557167
6526.85	0.566993
6509.49	0.595436
6492.13	0.576584
6474.77	0.553031
6457.41	0.57154
6440.05	0.584062
6422.69	0.590951
6405.33	0.600804
6387.97	0.599935
6370.61	0.584513
6353.25	0.604412
6335.89	0.608697
6318.53	0.622346
6301.17	0.620369
6283.81	0.620739
6266.45	0.606676
6249.09	0.600165
6231.73	0.583003
6214.37	0.572698
6197.01	0.544574
6179.65	0.525061
6162.29	0.506103
6144.93	0.51771
6127.57	0.485471
6110.21	0.377417
6092.85	0.220031
6075.49	0.178163
6058.13	0.276568
6040.77	0.290136
6023.41	0.223064
6006.05	0.274011
5988.69	0.253266
5971.33	0.271855
5953.97	0.202067
5936.61	0.186774
5919.25	0.323775
5901.89	0.258629
5884.53	0.230803
5867.17	0.221456
5849.81	0.276908
5832.45	0.176735
5815.09	0.165577
5797.73	0.186535
5780.37	0.175771
5763.01	0.211086
5745.65	0.241268
5728.29	0.171078
5710.93	0.146805
5693.57	0.177107
5676.21	0.156201
5658.86	0.160245
5641.5	0.226846
5624.14	0.183788
5606.78	0.258819
5589.42	0.311876
5572.06	0.324386
5554.7	0.304834
5537.34	0.241757
5519.98	0.298093
5502.62	0.374647
5485.26	0.361721
5467.9	0.339705
5450.54	0.400672
5433.18	0.402101
5415.82	0.365959
5398.46	0.349679
5381.1	0.333817
5363.74	0.262815
5346.38	0.274468
5329.02	0.219715
5311.66	0.132957
5294.3	0.0425009
5276.94	0.0359678
5259.58	0.0396566
5242.22	0.0656832
5224.86	0.0773063
5207.5	0.0756233
5190.14	0.154827
5172.78	0.117044
5155.42	0.196032
5138.06	0.256403
5120.7	0.277573
5103.34	0.269734
5085.98	0.246033
5068.62	0.197473
5051.26	0.247056
5033.9	0.192227
5016.54	0.233818
4999.18	0.230941
4981.82	0.220985
4964.46	0.20873
4947.1	0.182956
4929.74	0.197321
4912.38	0.182304
4895.02	0.239203
4877.66	0.194868
4860.3	0.199824
4842.94	0.187545
4825.58	0.207214
4808.22	0.25006
4790.86	0.212934
4773.51	0.264306
4756.15	0.274634
4738.79	0.254305
4721.43	0.082126
4704.07	0.163036
4686.71	0.0579485
4669.35	0.117439
4651.99	0.051226
4634.63	0.155215
4617.27	0.0728495
4599.91	0.116359
4582.55	0.071436
4565.19	0.0416775
4547.83	0.0697054
4530.47	0.0973803
4513.11	0.11741
4495.75	0.0317824
4478.39	0.0316154
4461.03	0.0362044
4443.67	0.0333937
4426.31	0.0810199
4408.95	0.14412
4391.59	0.172193
4374.23	0.0680481
4356.87	0.0707582
4339.51	0.035627
4322.15	0.0361032
4304.79	0.0502521
4287.43	0.0379562
4270.07	0.102729
4252.71	0.0501712
4235.35	0.0420968
4217.99	0.0668953
4200.63	0.0801527
4183.27	0.0449401
4165.91	0.0289749
4148.55	0.0401158
4131.19	0.0379244
4113.83	0.0500387
4096.47	0.13941
4079.11	0.0938305
4061.75	0.314254
4044.39	0.756523
4027.03	0.749859
4009.67	0.743141
3992.31	0.742813
3974.95	0.735987
3957.59	0.732229
3940.23	0.733007
3922.87	0.731121
3905.52	0.729717
3888.16	0.717097
3870.8	0.697633
3853.44	0.701629
3836.08	0.7109
3818.72	0.719938
3801.36	0.734224
3784	0.726314
3766.64	0.722629
3749.28	0.725414
3731.92	0.728389
3714.56	0.726968
3697.2	0.735628
3679.84	0.734431
3662.48	0.739352
3645.12	0.744463
3627.76	0.758729
3610.4	0.760442
3593.04	0.764735
3575.68	0.771396
3558.32	0.774785
3540.96	0.774575
3523.6	0.777077
3506.24	0.777857
3488.88	0.773552
3471.52	0.769062
3454.16	0.752257
3436.8	0.738128
3419.44	0.72607
3402.08	0.684511
3384.72	0.575029
3367.36	0.518887
3350	0.379013
3332.64	0.346115
3315.28	0.295111
3297.92	0.300793
3280.56	0.217111
3263.2	0.261123
3245.84	0.345883
3228.48	0.375215
3211.12	0.456593
3193.76	0.516037
3176.4	0.560171
3159.04	0.533063
3141.68	0.534452
3124.32	0.532398
3106.96	0.555215
3089.6	0.579026
3072.24	0.587273
3054.88	0.612722
3037.53	0.580984
3020.17	0.575148
3002.81	0.580317
2985.45	0.605228
2968.09	0.608841
2950.73	0.607773
2933.37	0.608427
2916.01	0.587311
2898.65	0.623013
2881.29	0.620786
2863.93	0.633472
2846.57	0.634655
2829.21	0.628786
2811.85	0.618863
2794.49	0.605761
2777.13	0.589272
2759.77	0.581249
2742.41	0.548039
2725.05	0.530357
2707.69	0.524268
2690.33	0.523646
2672.97	0.484172
2655.61	0.337586
2638.25	0.215061
2620.89	0.203594
2603.53	0.257269
2586.17	0.291737
2568.81	0.21762
2551.45	0.297157
2534.09	0.257655
2516.73	0.284232
2499.37	0.174685
2482.01	0.266496
2464.65	0.325365
2447.29	0.204521
2429.93	0.225446
2412.57	0.266194
2395.21	0.267434
2377.85	0.188964
2360.49	0.211158
2343.13	0.19404
2325.77	0.18713
2308.41	0.235917
2291.05	0.23852
2273.69	0.158214
2256.33	0.180245
2238.97	0.142824
2221.61	0.170901
2204.25	0.194313
2186.89	0.23093
2169.53	0.219381
2152.18	0.294173
2134.82	0.349807
2117.46	0.351126
2100.1	0.289891
2082.74	0.264708
2065.38	0.335864
2048.02	0.377345
2030.66	0.392171
2013.3	0.370839
1995.94	0.416574
1978.58	0.409177
1961.22	0.363815
1943.86	0.34612
1926.5	0.330878
1909.14	0.293188
1891.78	0.267969
1874.42	0.207845
1857.06	0.0654904
1839.7	0.0391831
1822.34	0.0359929
1804.98	0.0518811
1787.62	0.0531226
1770.26	0.0947452
1752.9	0.113187
1735.54	0.167795
1718.18	0.154432
1700.82	0.255688
1683.46	0.28208
1666.1	0.284673
1648.74	0.269162
1631.38	0.280063
1614.02	0.266734
1596.66	0.304431
1579.3	0.185422
1561.94	0.28378
1544.58	0.264969
1527.22	0.174495
1509.86	0.190679
1492.5	0.204443
1475.14	0.270302
1457.78	0.270488
1440.42	0.149641
1423.06	0.173347
1405.7	0.167499
1388.34	0.162836
1370.98	0.242556
1353.62	0.289322
1336.26	0.222485
1318.9	0.205323
1301.54	0.30227
1284.19	0.252333
1266.83	0.0452442
1249.47	0.182723
1232.11	0.0814697
1214.75	0.0573602
1197.39	0.123503
1180.03	0.139227
1162.67	0.0782705
1145.31	0.0798977
1127.95	0.0632544
1110.59	0.036992
1093.23	0.101094
1075.87	0.116532
1058.51	0.0791217
1041.15	0.0320576
1023.79	0.0392755
1006.43	0.0397273
989.068	0.0627242
971.709	0.11987
954.349	0.0705378
936.989	0.172871
919.629	0.118835
902.269	0.031595
884.91	0.0728486
867.55	0.074878
850.19	0.05988
832.83	0.0890686
815.47	0.034112
798.111	0.091677
780.751	0.0778619
763.391	0.09235
746.031	0.121698
728.671	0.0395229
711.312	0.0421915
693.952	0.0269524
676.592	0.0368519
659.232	0.0491896
641.872	0.073925
624.513	0.229951
607.153	0.316197
