Infrared Spectrum: 2,3,6-Trifluoroacetophenone
Formula: C 8 H 5 F 3 O
CAS: 208173-22-2
State: gas
Origin: EPA-IR VAPOR PHASE LIBRARY
1/CM	ABSORBANCE
549.8	0.011953
559.445	0.010463
569.09	0.016593
578.734	0.018783
588.379	0.010453
598.024	0.006703
607.669	0.009333
617.313	0.014093
626.958	0.014023
636.603	0.014963
646.248	0.013033
655.893	0.005703
665.537	0.002893
675.182	0.001723
684.827	0.001603
694.472	0.001633
704.116	0.002363
713.761	0.002923
723.406	0.007353
733.051	0.033803
742.695	0.039393
752.34	0.013213
761.985	0.003543
771.63	0.002763
781.275	0.004663
790.919	0.010273
800.564	0.036333
810.209	0.080593
819.854	0.038163
829.498	0.011113
839.143	0.005763
848.788	0.007813
858.433	0.013553
868.078	0.028703
877.722	0.053253
887.367	0.057203
897.012	0.034493
906.657	0.019633
916.301	0.012343
925.946	0.008773
935.591	0.009203
945.236	0.013983
954.88	0.020623
964.525	0.023403
974.17	0.022753
983.815	0.020873
993.46	0.024343
1003.1	0.030043
1012.75	0.030963
1022.39	0.032913
1032.04	0.046243
1041.68	0.042233
1051.33	0.021473
1060.97	0.008053
1070.62	0.005303
1080.26	0.004473
1089.91	0.004503
1099.55	0.007283
1109.2	0.009463
1118.84	0.007713
1128.49	0.004823
1138.13	0.004513
1147.78	0.006213
1157.42	0.012763
1167.07	0.023913
1176.71	0.021583
1186.36	0.012583
1196	0.011403
1205.64	0.018953
1215.29	0.048023
1224.93	0.087663
1234.58	0.076153
1244.22	0.047713
1253.87	0.112913
1263.51	0.252733
1273.16	0.238803
1282.8	0.079083
1292.45	0.033943
1302.09	0.030443
1311.74	0.027333
1321.38	0.016983
1331.03	0.012243
1340.67	0.014373
1350.32	0.027093
1359.96	0.050133
1369.61	0.045133
1379.25	0.021633
1388.9	0.014823
1398.54	0.013023
1408.18	0.014113
1417.83	0.020313
1427.47	0.031123
1437.12	0.042733
1446.76	0.044433
1456.41	0.034123
1466.05	0.043363
1475.7	0.131083
1485.34	0.365613
1494.99	0.386633
1504.63	0.134613
1514.28	0.027603
1523.92	0.015033
1533.57	0.012083
1543.21	0.011303
1552.86	0.010173
1562.5	0.009793
1572.15	0.010003
1581.79	0.012563
1591.44	0.019613
1601.08	0.026053
1610.73	0.028363
1620.37	0.035343
1630.01	0.043103
1639.66	0.033963
1649.3	0.016823
1658.95	0.010273
1668.59	0.009493
1678.24	0.012973
1687.88	0.021323
1697.53	0.031533
1707.17	0.044363
1716.82	0.082403
1726.46	0.148833
1736.11	0.149623
1745.75	0.076913
1755.4	0.036423
1765.04	0.021233
1774.69	0.012763
1784.33	0.008853
1793.98	0.006123
1803.62	0.004893
1813.27	0.004673
1822.91	0.004643
1832.55	0.005113
1842.2	0.007123
1851.84	0.006943
1861.49	0.004233
1871.13	0.003003
1880.78	0.002773
1890.42	0.002583
1900.07	0.003153
1909.71	0.003413
1919.36	0.003203
1929	0.002613
1938.65	0.002413
1948.29	0.002323
1957.94	0.001903
1967.58	0.002033
1977.23	0.001903
1986.87	0.001883
1996.52	0.001993
2006.16	0.002053
2015.81	0.001943
2025.45	0.001743
2035.1	0.002273
2044.74	0.002563
2054.38	0.002183
2064.03	0.001683
2073.67	0.001883
2083.32	0.001563
2092.96	0.001603
2102.61	0.001633
2112.25	0.001903
2121.9	0.001913
2131.54	0.002243
2141.19	0.002183
2150.83	0.002103
2160.48	0.001993
2170.12	0.001943
2179.77	0.001903
2189.41	0.002203
2199.06	0.001863
2208.7	0.001843
2218.35	0.001923
2227.99	0.002033
2237.64	0.002093
2247.28	0.001913
2256.92	0.001853
2266.57	0.002193
2276.21	0.002103
2285.86	0.002023
2295.5	0.002023
2305.15	0.002333
2314.79	0.002133
2324.44	0.002423
2334.08	0.002413
2343.73	0.002313
2353.37	0.002513
2363.02	0.002373
2372.66	0.002443
2382.31	0.002223
2391.95	0.002043
2401.6	0.001973
2411.24	0.001953
2420.89	0.001963
2430.53	0.001973
2440.18	0.002253
2449.82	0.002203
2459.47	0.002153
2469.11	0.002393
2478.75	0.002103
2488.4	0.002233
2498.04	0.002343
2507.69	0.002203
2517.33	0.002473
2526.98	0.002503
2536.62	0.002763
2546.27	0.002383
2555.91	0.002163
2565.56	0.002223
2575.2	0.001873
2584.85	0.001603
2594.49	0.001643
2604.14	0.001643
2613.78	0.001983
2623.43	0.0014796
2633.07	0.0015432
2642.72	0.0012582
2652.36	0.001793
2662.01	0.001573
2671.65	0.001753
2681.29	0.001673
2690.94	0.001723
2700.58	0.001843
2710.23	0.001833
2719.87	0.001763
2729.52	0.001823
2739.16	0.001963
2748.81	0.001743
2758.45	0.001953
2768.1	0.002133
2777.74	0.001643
2787.39	0.002063
2797.03	0.002043
2806.68	0.001883
2816.32	0.001753
2825.97	0.001793
2835.61	0.001893
2845.26	0.001793
2854.9	0.002363
2864.55	0.002163
2874.19	0.002723
2883.84	0.002353
2893.48	0.002863
2903.12	0.002463
2912.77	0.002643
2922.41	0.003193
2932.06	0.003613
2941.7	0.003193
2951.35	0.003123
2960.99	0.002713
2970.64	0.002893
2980.28	0.003233
2989.93	0.003723
2999.57	0.004593
3009.22	0.006403
3018.86	0.006573
3028.51	0.004383
3038.15	0.003453
3047.8	0.002983
3057.44	0.003313
3067.09	0.003763
3076.73	0.003153
3086.38	0.002973
3096.02	0.002653
3105.67	0.002213
3115.31	0.0014535
3124.95	0.0015263
3134.6	0.0015196
3144.24	0.0014691
3153.89	0.0015627
3163.53	0.0012318
3173.18	0.001833
3182.82	0.001763
3192.47	0.000919
3202.11	0.0008533
3211.76	0.0008177
3221.4	0.0012553
3231.05	0.0010699
3240.69	0.001633
3250.34	0.001843
3259.98	0.0013538
3269.63	0.0015245
3279.27	0.0009193
3288.92	0.0008081
3298.56	0.0010721
3308.21	0.0014843
3317.85	0.0009
3327.49	0.0009765
3337.14	0.0012204
3346.78	0.001753
3356.43	0.001683
3366.07	0.0015097
3375.72	0.002003
3385.36	0.001723
3395.01	0.001713
3404.65	0.001773
3414.3	0.002203
3423.94	0.003423
3433.59	0.003543
3443.23	0.004423
3452.88	0.003353
3462.52	0.003093
3472.17	0.002383
3481.81	0.001793
3491.46	0.0011581
3501.1	0.001833
3510.75	0.001713
3520.39	0.001753
3530.04	0.0007241
3539.68	0.0012793
3549.32	0.0010866
3558.97	0.0015504
3568.61	0.0010997
3578.26	0.0013479
3587.9	0.000982
3597.55	0.0010349
3607.19	0.001016
3616.84	0.000968
3626.48	0.001289
3636.13	0.001813
3645.77	0.0011823
3655.42	0.0009314
3665.06	0.001046
3674.71	0.001603
3684.35	0.0014298
3694	0.0009554
3703.64	0.0012996
3713.29	0.0011762
3722.93	0.0013476
3732.58	0.00057959
3742.22	0.000346
3751.86	0.0004912
3761.51	0.0012919
3771.15	0.0011194
3780.8	0.001833
3790.44	0.001583
3800.09	0.0009841
3809.73	0.001623
3819.38	0.001703
3829.02	0.001603
3838.67	0.0013103
3848.31	0.001683
3857.96	0.001285
3867.6	0.0009471
3877.25	0.0011428
3886.89	0.0004812
3896.54	0.0013127
3906.18	0.0012242
3915.83	0.0015542
3925.47	0.0012457
3935.12	0.00061945
3944.76	0.0015521
3954.41	0.0008831
3964.05	0.0009612
3973.69	0.0014766
3983.34	0.001963
3992.98	0.001703
