Infrared Spectrum: 2,3-Difluorobenzophenone
Formula: C 13 H 8 F 2 O
CAS: 208173-20-0
State: gas
Origin: EPA-IR VAPOR PHASE LIBRARY
1/CM	ABSORBANCE
549.8	0.014678
559.445	0.007708
569.09	0.010218
578.734	0.016468
588.379	0.031178
598.024	0.016698
607.669	0.009588
617.313	0.020978
626.958	0.021848
636.603	0.008968
646.248	0.007808
655.893	0.010238
665.537	0.023978
675.182	0.065958
684.827	0.091098
694.472	0.090778
704.116	0.072388
713.761	0.053268
723.406	0.071608
733.051	0.083558
742.695	0.038648
752.34	0.021348
761.985	0.026948
771.63	0.053988
781.275	0.053438
790.919	0.041248
800.564	0.032378
810.209	0.029638
819.854	0.035968
829.498	0.028088
839.143	0.021558
848.788	0.028818
858.433	0.080738
868.078	0.166328
877.722	0.060728
887.367	0.019338
897.012	0.023718
906.657	0.012558
916.301	0.007638
925.946	0.006498
935.591	0.005478
945.236	0.004968
954.88	0.006148
964.525	0.008018
974.17	0.010548
983.815	0.017558
993.46	0.031568
1003.1	0.043038
1012.75	0.026578
1022.39	0.012628
1032.04	0.007918
1041.68	0.006818
1051.33	0.013668
1060.97	0.025328
1070.62	0.021578
1080.26	0.010208
1089.91	0.005788
1099.55	0.006198
1109.2	0.005218
1118.84	0.006168
1128.49	0.005378
1138.13	0.007858
1147.78	0.014778
1157.42	0.020678
1167.07	0.019968
1176.71	0.048818
1186.36	0.043318
1196	0.030698
1205.64	0.025808
1215.29	0.036808
1224.93	0.078628
1234.58	0.088088
1244.22	0.079188
1253.87	0.132308
1263.51	0.240818
1273.16	0.294568
1282.8	0.230748
1292.45	0.225328
1302.09	0.227188
1311.74	0.147058
1321.38	0.102598
1331.03	0.043988
1340.67	0.025678
1350.32	0.015078
1359.96	0.011398
1369.61	0.009838
1379.25	0.009468
1388.9	0.008028
1398.54	0.006928
1408.18	0.007428
1417.83	0.008788
1427.47	0.011298
1437.12	0.020718
1446.76	0.053068
1456.41	0.062658
1466.05	0.112748
1475.7	0.260358
1485.34	0.283698
1494.99	0.123848
1504.63	0.047568
1514.28	0.027148
1523.92	0.017468
1533.57	0.013578
1543.21	0.012668
1552.86	0.013778
1562.5	0.017488
1572.15	0.028948
1581.79	0.054088
1591.44	0.075358
1601.08	0.056218
1610.73	0.036728
1620.37	0.039678
1630.01	0.028298
1639.66	0.019588
1649.3	0.022018
1658.95	0.030518
1668.59	0.054998
1678.24	0.126398
1687.88	0.234258
1697.53	0.178278
1707.17	0.071198
1716.82	0.036558
1726.46	0.023808
1736.11	0.017358
1745.75	0.012458
1755.4	0.009848
1765.04	0.008538
1774.69	0.007408
1784.33	0.006658
1793.98	0.007188
1803.62	0.008258
1813.27	0.007188
1822.91	0.005028
1832.55	0.004018
1842.2	0.004098
1851.84	0.006098
1861.49	0.005918
1871.13	0.003838
1880.78	0.003978
1890.42	0.005158
1900.07	0.006298
1909.71	0.006658
1919.36	0.006838
1929	0.004518
1938.65	0.003608
1948.29	0.004848
1957.94	0.005888
1967.58	0.005328
1977.23	0.003588
1986.87	0.002528
1996.52	0.001938
2006.16	0.001898
2015.81	0.0017374
2025.45	0.0018608
2035.1	0.001988
2044.74	0.002498
2054.38	0.002378
2064.03	0.002118
2073.67	0.0016241
2083.32	0.0017418
2092.96	0.001813
2102.61	0.0015411
2112.25	0.0016009
2121.9	0.0015402
2131.54	0.001713
2141.19	0.0018623
2150.83	0.001878
2160.48	0.001888
2170.12	0.0017603
2179.77	0.0017381
2189.41	0.0012037
2199.06	0.0011202
2208.7	0.0011175
2218.35	0.0012813
2227.99	0.0011315
2237.64	0.0014509
2247.28	0.001483
2256.92	0.001868
2266.57	0.002048
2276.21	0.002228
2285.86	0.002168
2295.5	0.002538
2305.15	0.002528
2314.79	0.002888
2324.44	0.002538
2334.08	0.002198
2343.73	0.002048
2353.37	0.0016094
2363.02	0.0014975
2372.66	0.0015282
2382.31	0.0016147
2391.95	0.0013908
2401.6	0.0015051
2411.24	0.0015516
2420.89	0.001834
2430.53	0.0017983
2440.18	0.002378
2449.82	0.003018
2459.47	0.003158
2469.11	0.002588
2478.75	0.002668
2488.4	0.002248
2498.04	0.002008
2507.69	0.0016654
2517.33	0.0017246
2526.98	0.001878
2536.62	0.002208
2546.27	0.001998
2555.91	0.002418
2565.56	0.002468
2575.2	0.002508
2584.85	0.002738
2594.49	0.002578
2604.14	0.0017331
2613.78	0.0018005
2623.43	0.0014017
2633.07	0.0015882
2642.72	0.0010546
2652.36	0.0012456
2662.01	0.0008552
2671.65	0.00091361
2681.29	0.0009523
2690.94	0.0013582
2700.58	0.0013986
2710.23	0.0010643
2719.87	0.0012294
2729.52	0.0012218
2739.16	0.0015157
2748.81	0.002188
2758.45	0.001928
2768.1	0.0016437
2777.74	0.0015633
2787.39	0.0016052
2797.03	0.0013526
2806.68	0.000658
2816.32	0.0008065
2825.97	0.0007701
2835.61	0.0010505
2845.26	0.0011745
2854.9	0.001868
2864.55	0.001878
2874.19	0.002048
2883.84	0.002058
2893.48	0.002198
2903.12	0.0014114
2912.77	0.001595
2922.41	0.0015147
2932.06	0.001731
2941.7	0.0017133
2951.35	0.0018153
2960.99	0.0013384
2970.64	0.0016762
2980.28	0.0016525
2989.93	0.0018679
2999.57	0.002118
3009.22	0.003328
3018.86	0.006388
3028.51	0.012928
3038.15	0.018728
3047.8	0.018438
3057.44	0.023448
3067.09	0.040468
3076.73	0.047578
3086.38	0.036588
3096.02	0.024948
3105.67	0.013678
3115.31	0.006398
3124.95	0.003038
3134.6	0.002598
3144.24	0.0017699
3153.89	0.002478
3163.53	0.002038
3173.18	0.0011959
3182.82	0.0011595
3192.47	0.00088228
3202.11	0.00072
3211.76	0.0010059
3221.4	0.000874967
3231.05	0.0010494
3240.69	0.000384
3250.34	0.000664
3259.98	0.0012184
3269.63	0.000123
3279.27	0.00094239
3288.92	0.000624
3298.56	0.0014469
3308.21	0.0013415
3317.85	0.00096175
3327.49	0.0014599
3337.14	0.001968
3346.78	0.003228
3356.43	0.004188
3366.07	0.004258
3375.72	0.002828
3385.36	0.002288
3395.01	0.0017938
3404.65	0.0013012
3414.3	0.0016208
3423.94	0.000709
3433.59	0.0011004
3443.23	0.0010601
3452.88	0.00054
3462.52	0.00091776
3472.17	0.000499
3481.81	0.000747
3491.46	0.0012048
3501.1	0.0010098
3510.75	0.000631
3520.39	0.0008246
3530.04	0.000738
3539.68	0.000524
3549.32	0.0008257
3558.97	0.00075
3568.61	0.0008307
3578.26	0.000525
3587.9	0.0010734
3597.55	0.0011192
3607.19	0.000631
3616.84	0.0012063
3626.48	0.0012939
3636.13	0.001397
3645.77	0.0007894
3655.42	0.0013137
3665.06	0.0010442
3674.71	0.0012128
3684.35	0.0013427
3694	0.00095014
3703.64	0.001093
3713.29	0.0016607
3722.93	0.0011708
3732.58	0.0011027
3742.22	0.000868362
3751.86	0.00091938
3761.51	0.0010585
3771.15	0.000599
3780.8	0.000653
3790.44	0.000305
3800.09	0.0010593
3809.73	0.0009727
3819.38	0.00086683
3829.02	0.000867958
3838.67	0.0008414
3848.31	0.000671
3857.96	0.000582
3867.6	0.0011225
3877.25	0.0008564
3886.89	0.0011063
3896.54	0.0012681
3906.18	0.0015508
3915.83	0.0013871
3925.47	0.0010749
3935.12	0.0015107
3944.76	0.0016768
3954.41	0.0008157
3964.05	0.0010061
3973.69	0.000677
3983.34	0.0013017
3992.98	0.0010749
