Infrared Spectrum: 5'-Chloro-2'-methoxy-2-methylvaleranilide
Formula: C 13 H 18 Cl N O 2
CAS: 209683-34-1
State: gas
Origin: EPA-IR VAPOR PHASE LIBRARY
1/CM	ABSORBANCE
551.7	0.00588
563.274	0.00815
574.848	0.01218
586.421	0.01893
597.995	0.01643
609.569	0.01022
621.143	0.00754
632.717	0.01096
644.291	0.02606
655.864	0.01047
667.438	0.00484
679.012	0.00315
690.586	0.00258
702.16	0.00259
713.734	0.00259
725.307	0.00306
736.881	0.00365
748.455	0.00371
760.029	0.00386
771.603	0.00418
783.177	0.00765
794.75	0.01858
806.324	0.0135
817.898	0.00515
829.472	0.00313
841.046	0.00308
852.619	0.00354
864.193	0.00555
875.767	0.01183
887.341	0.0158
898.915	0.01842
910.489	0.02484
922.062	0.01532
933.636	0.00972
945.21	0.00924
956.784	0.00545
968.358	0.00443
979.932	0.00547
991.505	0.00753
1003.08	0.01129
1014.65	0.01923
1026.23	0.0288
1037.8	0.02783
1049.37	0.0158
1060.95	0.01118
1072.52	0.01197
1084.1	0.0135
1095.67	0.01676
1107.24	0.02187
1118.82	0.03851
1130.39	0.05005
1141.97	0.04555
1153.54	0.03293
1165.11	0.04392
1176.69	0.0454
1188.26	0.03334
1199.83	0.04009
1211.41	0.05536
1222.98	0.04314
1234.56	0.04892
1246.13	0.06445
1257.7	0.04082
1269.28	0.02978
1280.85	0.02269
1292.42	0.02483
1304	0.02467
1315.57	0.01898
1327.15	0.01258
1338.72	0.01132
1350.29	0.01183
1361.87	0.01317
1373.44	0.01636
1385.02	0.02374
1396.59	0.0411
1408.16	0.09813
1419.74	0.08008
1431.31	0.03885
1442.88	0.04341
1454.46	0.0567
1466.03	0.10494
1477.61	0.10202
1489.18	0.07829
1500.75	0.13075
1512.33	0.22062
1523.9	0.13998
1535.48	0.04996
1547.05	0.02444
1558.62	0.01739
1570.2	0.01929
1581.77	0.0411
1593.34	0.0722
1604.92	0.02723
1616.49	0.01099
1628.07	0.00751
1639.64	0.00629
1651.21	0.00624
1662.79	0.00724
1674.36	0.00942
1685.93	0.01314
1697.51	0.02273
1709.08	0.05321
1720.66	0.08466
1732.23	0.03321
1743.8	0.01402
1755.38	0.00868
1766.95	0.0062
1778.53	0.00468
1790.1	0.00374
1801.67	0.00335
1813.25	0.00289
1824.82	0.00279
1836.39	0.00247
1847.97	0.00201
1859.54	0.0016
1871.12	0.0013
1882.69	0.00124
1894.26	0.00112
1905.84	0.00103
1917.41	0.0009998
1928.99	0.00109
1940.56	0.00119
1952.13	0.00111
1963.71	0.00107
1975.28	0.0011
1986.85	0.00121
1998.43	0.00133
2010	0.00145
2021.58	0.00156
2033.15	0.00154
2044.72	0.00151
2056.3	0.00152
2067.87	0.00137
2079.44	0.00112
2091.02	0.0008576
2102.59	0.00082
2114.17	0.0007575
2125.74	0.0008045
2137.31	0.0007467
2148.89	0.0007098
2160.46	0.0007717
2172.04	0.0008134
2183.61	0.0007616
2195.18	0.0007858
2206.76	0.0008631
2218.33	0.0009203
2229.9	0.00101
2241.48	0.0011
2253.05	0.00102
2264.63	0.0009425
2276.2	0.0009087
2287.77	0.0008623
2299.35	0.0008642
2310.92	0.0009236
2322.5	0.0009919
2334.07	0.0008641
2345.64	0.0007689
2357.22	0.0008058
2368.79	0.0007727
2380.36	0.0007688
2391.94	0.0008749
2403.51	0.0008845
2415.09	0.00102
2426.66	0.00104
2438.23	0.0009023
2449.81	0.0007575
2461.38	0.0008099
2472.96	0.0009047
2484.53	0.000999
2496.1	0.00108
2507.68	0.00109
2519.25	0.00122
2530.82	0.00127
2542.4	0.00135
2553.97	0.00121
2565.55	0.00111
2577.12	0.0009649
2588.69	0.0009857
2600.27	0.00106
2611.84	0.00106
2623.41	0.00114
2634.99	0.001
2646.56	0.00105
2658.14	0.00115
2669.71	0.00118
2681.28	0.00128
2692.86	0.00122
2704.43	0.00122
2716.01	0.00129
2727.58	0.0015
2739.15	0.00173
2750.73	0.00197
2762.3	0.002
2773.87	0.0021
2785.45	0.00232
2797.02	0.003
2808.6	0.00392
2820.17	0.0055
2831.74	0.00854
2843.32	0.01464
2854.89	0.01816
2866.47	0.02088
2878.04	0.02764
2889.61	0.03114
2901.19	0.02964
2912.76	0.03385
2924.33	0.03962
2935.91	0.05265
2947.48	0.05995
2959.06	0.05848
2970.63	0.07197
2982.2	0.04192
2993.78	0.02089
3005.35	0.01809
3016.92	0.0122
3028.5	0.00679
3040.07	0.00497
3051.65	0.0041
3063.22	0.00406
3074.79	0.00477
3086.37	0.00618
3097.94	0.00599
3109.52	0.00412
3121.09	0.00379
3132.66	0.00293
3144.24	0.0018
3155.81	0.0015
3167.38	0.00153
3178.96	0.00161
3190.53	0.00151
3202.11	0.00112
3213.68	0.0007837
3225.25	0.0006165
3236.83	0.0004684
3248.4	0.0003638
3259.98	0.0002637
3271.55	0.0002746
3283.12	0.0001707
3294.7	0.0001699
3306.27	0.0002767
3317.84	0.0002539
3329.42	0.0002838
3340.99	0.0002101
3352.57	0.000327
3364.14	0.0005225
3375.71	0.0006336
3387.29	0.00102
3398.86	0.00175
3410.43	0.00279
3422.01	0.00493
3433.58	0.01092
3445.16	0.02443
3456.73	0.01554
3468.3	0.00436
3479.88	0.00172
3491.45	0.0009131
3503.03	0.0006229
3514.6	0.0004094
3526.17	0.0002085
3537.75	0.0001518
3549.32	0.0002007
3560.89	0.0001073
3572.47	8.176e-05
3584.04	8.425e-05
3595.62	0.0001043
3607.19	0.0001156
3618.76	9.93e-05
3630.34	0.0001213
3641.91	0.0001401
3653.49	0.0001921
3665.06	0.0002246
3676.63	0.0002234
3688.21	0.0001891
3699.78	0.0001788
3711.35	0.0001684
3722.93	0.0001524
3734.5	0.0001834
3746.08	0.0003044
3757.65	0.0001787
3769.22	0.000241
3780.8	0.0001707
3792.37	0.0002358
3803.94	0.0001575
3815.52	0.0001053
3827.09	0.0001365
3838.67	0.0001977
3850.24	0.0002945
3861.81	0.0003027
3873.39	0.0002298
3884.96	0.0003348
3896.54	0.0003272
3908.11	0.000238
3919.68	0.0002258
3931.26	0.0003075
3942.83	0.0003638
3954.4	0.0004568
3965.98	0.0005098
3977.55	0.0006057
3989.13	0.0005545
4000.7	0.0005643
