Infrared Spectrum: p-Methoxybenzylidene p-decylaniline
Formula: C 24 H 33 N O
CAS: 209683-41-0
State: gas
Origin: EPA-IR VAPOR PHASE LIBRARY
1/CM	ABSORBANCE
549.8	0.002133
559.445	0.001613
569.09	0.0009006
578.734	0.0005808
588.379	0.0011187
598.024	0.0011393
607.669	0.0009398
617.313	0.0006252
626.958	0.0003554
636.603	0.00015459
646.248	0.0001648
655.893	0.000115
665.537	0.000164342
675.182	7.9e-05
684.827	0.0003267
694.472	0.0002924
704.116	0.0007567
713.761	0.000926
723.406	0.0007947
733.051	0.0007748
742.695	0.0007955
752.34	0.0007795
761.985	0.0007128
771.63	0.0006393
781.275	0.000734
790.919	0.0010053
800.564	0.001653
810.209	0.002183
819.854	0.003423
829.498	0.004533
839.143	0.004703
848.788	0.002903
858.433	0.001743
868.078	0.001413
877.722	0.002333
887.367	0.003133
897.012	0.001363
906.657	0.0006731
916.301	0.0006665
925.946	0.0005221
935.591	0.0007196
945.236	0.000588
954.88	0.0007253
964.525	0.0008888
974.17	0.0009891
983.815	0.0010472
993.46	0.0007764
1003.1	0.0011425
1012.75	0.002343
1022.39	0.002473
1032.04	0.003823
1041.68	0.004493
1051.33	0.002213
1060.97	0.001523
1070.62	0.0010926
1080.26	0.0009494
1089.91	0.0005588
1099.55	0.001693
1109.2	0.001963
1118.84	0.0011539
1128.49	0.000879
1138.13	0.0011159
1147.78	0.001983
1157.42	0.007883
1167.07	0.020583
1176.71	0.004443
1186.36	0.004463
1196	0.004423
1205.64	0.003453
1215.29	0.003443
1224.93	0.004943
1234.58	0.008673
1244.22	0.017593
1253.87	0.020323
1263.51	0.008623
1273.16	0.004693
1282.8	0.004633
1292.45	0.005793
1302.09	0.007593
1311.74	0.004193
1321.38	0.002273
1331.03	0.001823
1340.67	0.001993
1350.32	0.001993
1359.96	0.001793
1369.61	0.001663
1379.25	0.001303
1388.9	0.0011264
1398.54	0.0010835
1408.18	0.001483
1417.83	0.003203
1427.47	0.001943
1437.12	0.002103
1446.76	0.003683
1456.41	0.003813
1466.05	0.004563
1475.7	0.003653
1485.34	0.003093
1494.99	0.004813
1504.63	0.012573
1514.28	0.019933
1523.92	0.005073
1533.57	0.002303
1543.21	0.001753
1552.86	0.001753
1562.5	0.002383
1572.15	0.005303
1581.79	0.006473
1591.44	0.008943
1601.08	0.016153
1610.73	0.010223
1620.37	0.006063
1630.01	0.010443
1639.66	0.006563
1649.3	0.002983
1658.95	0.001923
1668.59	0.001413
1678.24	0.00105
1687.88	0.0008594
1697.53	0.0006693
1707.17	0.000588
1716.82	0.0005572
1726.46	0.00051
1736.11	0.0005114
1745.75	0.0004895
1755.4	0.000554
1765.04	0.0007026
1774.69	0.0005793
1784.33	0.0004787
1793.98	0.0004737
1803.62	0.0004447
1813.27	0.0003883
1822.91	0.0003894
1832.55	0.0003411
1842.2	0.0004177
1851.84	0.000404
1861.49	0.0003847
1871.13	0.0004582
1880.78	0.0006442
1890.42	0.0006185
1900.07	0.0005328
1909.71	0.0004009
1919.36	0.0004417
1929	0.0004898
1938.65	0.0005341
1948.29	0.0003277
1957.94	0.0003967
1967.58	0.0003252
1977.23	0.0003959
1986.87	0.000347
1996.52	0.0004694
2006.16	0.0004395
2015.81	0.0005651
2025.45	0.0006316
2035.1	0.0005647
2044.74	0.0006015
2054.38	0.0006427
2064.03	0.0005412
2073.67	0.0005753
2083.32	0.0004653
2092.96	0.0003483
2102.61	0.0002793
2112.25	0.0003227
2121.9	0.0003153
2131.54	0.00021862
2141.19	0.00025469
2150.83	0.00022862
2160.48	0.0002995
2170.12	0.0002797
2179.77	0.00018816
2189.41	0.00021523
2199.06	0.0002644
2208.7	0.0002522
2218.35	0.0002703
2227.99	0.00022035
2237.64	0.00022598
2247.28	0.00022385
2256.92	0.0003056
2266.57	0.0003948
2276.21	0.0003002
2285.86	0.0003051
2295.5	0.0003094
2305.15	0.0003024
2314.79	0.0002691
2324.44	0.0003155
2334.08	0.0003469
2343.73	0.0002978
2353.37	0.000338
2363.02	0.0003801
2372.66	0.00025894
2382.31	0.000337
2391.95	0.0002973
2401.6	0.0003392
2411.24	0.0003766
2420.89	0.0003377
2430.53	0.0002777
2440.18	0.00023954
2449.82	0.0003669
2459.47	0.0003363
2469.11	0.0003274
2478.75	0.0003235
2488.4	0.0004374
2498.04	0.0004684
2507.69	0.0003566
2517.33	0.0004311
2526.98	0.0003763
2536.62	0.0004137
2546.27	0.0005561
2555.91	0.000477
2565.56	0.0004453
2575.2	0.0004725
2584.85	0.000398
2594.49	0.0004172
2604.14	0.0003368
2613.78	0.0004907
2623.43	0.0003466
2633.07	0.0003775
2642.72	0.0004278
2652.36	0.0003713
2662.01	0.0003845
2671.65	0.0003798
2681.29	0.0004875
2690.94	0.0004617
2700.58	0.0005239
2710.23	0.0004475
2719.87	0.0004894
2729.52	0.0004959
2739.16	0.0004072
2748.81	0.000624
2758.45	0.0005582
2768.1	0.0006294
2777.74	0.000705
2787.39	0.0007065
2797.03	0.0010077
2806.68	0.0011444
2816.32	0.001543
2825.97	0.002163
2835.61	0.003073
2845.26	0.006093
2854.9	0.009463
2864.55	0.012203
2874.19	0.008823
2883.84	0.007043
2893.48	0.006453
2903.12	0.008143
2912.77	0.012013
2922.41	0.019263
2932.06	0.029113
2941.7	0.022963
2951.35	0.012943
2960.99	0.010043
2970.64	0.008373
2980.28	0.004993
2989.93	0.003693
2999.57	0.003653
3009.22	0.004443
3018.86	0.003743
3028.51	0.004313
3038.15	0.002983
3047.8	0.002023
3057.44	0.001683
3067.09	0.001853
3076.73	0.002543
3086.38	0.001723
3096.02	0.001223
3105.67	0.0011013
3115.31	0.0008922
3124.95	0.0006539
3134.6	0.0004999
3144.24	0.0004347
3153.89	0.0005164
3163.53	0.0003788
3173.18	0.0004514
3182.82	0.0003176
3192.47	0.0002117
3202.11	0.0002667
3211.76	0.00019741
3221.4	0.0003825
3231.05	0.00025616
3240.69	0.0002787
3250.34	0.00025511
3259.98	0.0002674
3269.63	0.000171399
3279.27	0.000274
3288.92	0.00026299
3298.56	0.00017719
3308.21	0.00015636
3317.85	0.00024698
3327.49	0.00024508
3337.14	0.00022724
3346.78	0.00023009
3356.43	9.83e-05
3366.07	0.0003001
3375.72	0.0002975
3385.36	0.00020161
3395.01	0.0001239
3404.65	0.00016099
3414.3	0.00019443
3423.94	0.00022041
3433.59	0.00021219
3443.23	0.00020173
3452.88	0.000265
3462.52	0.000172292
3472.17	0.00018225
3481.81	7.51e-05
3491.46	0.0001106
3501.1	0.00020898
3510.75	0.000172471
3520.39	0.0002859
3530.04	0.00018411
3539.68	6.99e-05
3549.32	0.0001034
3558.97	0.0002884
3568.61	0.0001496
3578.26	0.00021705
3587.9	0.0002729
3597.55	0.00019906
3607.19	0.0001951
3616.84	0.0001259
3626.48	0.0003085
3636.13	0.0003338
3645.77	0.0002634
3655.42	0.0003179
3665.06	0.00021174
3674.71	0.0002981
3684.35	6.3e-05
3694	0.0003332
3703.64	0.00019993
3713.29	0.00023244
3722.93	0.0001548
3732.58	0.00017888
3742.22	0.00026148
3751.86	0.00023282
3761.51	0.0001411
3771.15	6.45e-05
3780.8	0.0001075
3790.44	0.00025926
3800.09	0.0003502
3809.73	0.0003328
3819.38	0.00024287
3829.02	0.00019144
3838.67	0.0001153
3848.31	0.00020773
3857.96	0.0001473
3867.6	0.0002217
3877.25	0.0002816
3886.89	0.00038
3896.54	0.0002724
3906.18	0.0003157
3915.83	0.0003425
3925.47	0.00021501
3935.12	0.00018441
3944.76	0.000169747
3954.41	0.0002897
3964.05	0.0003048
3973.69	0.00024827
3983.34	0.0003025
3992.98	0.0003319
