Infrared Spectrum: Ethyl 3-Chloro-4-methylthiolcarbanilate
Formula: C 10 H 12 Cl N O S
CAS: 209683-36-3
State: gas
Origin: EPA-IR VAPOR PHASE LIBRARY
1/CM	ABSORBANCE
551.7	0.00306726
563.274	0.00313726
574.848	0.00368726
586.421	0.00369726
597.995	0.00353726
609.569	0.00361726
621.143	0.00384726
632.717	0.00321726
644.291	0.00290726
655.864	0.00268726
667.438	0.00276726
679.012	0.00347726
690.586	0.00983726
702.16	0.00829726
713.734	0.00404726
725.307	0.00292726
736.881	0.00232726
748.455	0.00376726
760.029	0.00495726
771.603	0.00308726
783.177	0.00336726
794.75	0.00682726
806.324	0.00967726
817.898	0.00927726
829.472	0.00522726
841.046	0.00621726
852.619	0.0124673
864.193	0.0174073
875.767	0.0152873
887.341	0.0118373
898.915	0.00844726
910.489	0.00776726
922.062	0.00668726
933.636	0.00495726
945.21	0.00405726
956.784	0.00414726
968.358	0.00570726
979.932	0.00547726
991.505	0.00531726
1003.08	0.00540726
1014.65	0.00416726
1026.23	0.00411726
1037.8	0.00752726
1049.37	0.0172473
1060.95	0.0117973
1072.52	0.00644726
1084.1	0.00690726
1095.67	0.0108173
1107.24	0.0238373
1118.82	0.0596473
1130.39	0.0715373
1141.97	0.0259073
1153.54	0.0138873
1165.11	0.00941726
1176.69	0.00713726
1188.26	0.00755726
1199.83	0.0110573
1211.41	0.00978726
1222.98	0.00971726
1234.56	0.0169073
1246.13	0.0142873
1257.7	0.0197573
1269.28	0.0236673
1280.85	0.0218373
1292.42	0.0186573
1304	0.00836726
1315.57	0.00625726
1327.15	0.00519726
1338.72	0.00380726
1350.29	0.00430726
1361.87	0.00806726
1373.44	0.0180473
1385.02	0.0203973
1396.59	0.0172673
1408.16	0.00925726
1419.74	0.00920726
1431.31	0.0117773
1442.88	0.0176673
1454.46	0.0219573
1466.03	0.0255173
1477.61	0.0340573
1489.18	0.0575873
1500.75	0.0983273
1512.33	0.0581673
1523.9	0.0258573
1535.48	0.0145573
1547.05	0.0115273
1558.62	0.0127473
1570.2	0.0165273
1581.77	0.0188873
1593.34	0.0186973
1604.92	0.0287073
1616.49	0.0214173
1628.07	0.00685726
1639.64	0.00435726
1651.21	0.00407726
1662.79	0.00484726
1674.36	0.00707726
1685.93	0.0156773
1697.51	0.0306673
1709.08	0.0314873
1720.66	0.0389373
1732.23	0.0188473
1743.8	0.00734726
1755.38	0.00414726
1766.95	0.00317726
1778.53	0.00233726
1790.1	0.00177726
1801.67	0.00132726
1813.25	0.00105726
1824.82	0.00087886
1836.39	0.00083646
1847.97	0.00087836
1859.54	0.00100066
1871.12	0.00106726
1882.69	0.00109726
1894.26	0.00095786
1905.84	0.00074236
1917.41	0.00057096
1928.99	0.00057526
1940.56	0.00054866
1952.13	0.00055676
1963.71	0.00058406
1975.28	0.00061816
1986.85	0.00066686
1998.43	0.00061146
2010	0.00063886
2021.58	0.00063186
2033.15	0.00061126
2044.72	0.00057396
2056.3	0.00063836
2067.87	0.00067126
2079.44	0.00077826
2091.02	0.00086846
2102.59	0.00099196
2114.17	0.00119726
2125.74	0.00169726
2137.31	0.00218726
2148.89	0.00272726
2160.46	0.00320726
2172.04	0.00395726
2183.61	0.00549726
2195.18	0.00766726
2206.76	0.0105173
2218.33	0.0139673
2229.9	0.0190673
2241.48	0.0263473
2253.05	0.0408173
2264.63	0.0819473
2276.2	0.112907
2287.77	0.0620873
2299.35	0.0280773
2310.92	0.0172773
2322.5	0.0124073
2334.07	0.0108473
2345.64	0.0102873
2357.22	0.0102773
2368.79	0.00717726
2380.36	0.00390726
2391.94	0.00264726
2403.51	0.00204726
2415.09	0.00175726
2426.66	0.00145726
2438.23	0.00136726
2449.81	0.00105726
2461.38	0.00086476
2472.96	0.00079416
2484.53	0.00068276
2496.1	0.00068026
2507.68	0.00070216
2519.25	0.00071336
2530.82	0.00054756
2542.4	0.00048586
2553.97	0.00049296
2565.55	0.00050016
2577.12	0.00062446
2588.69	0.00065386
2600.27	0.00074276
2611.84	0.00070876
2623.41	0.00070476
2634.99	0.00056066
2646.56	0.00051416
2658.14	0.00055086
2669.71	0.00064536
2681.28	0.00074336
2692.86	0.00082376
2704.43	0.00076096
2716.01	0.00072726
2727.58	0.00069316
2739.15	0.00082616
2750.73	0.00089176
2762.3	0.00074946
2773.87	0.00059986
2785.45	0.00059406
2797.02	0.00067286
2808.6	0.00092896
2820.17	0.00119726
2831.74	0.00158726
2843.32	0.00191726
2854.89	0.00258726
2866.47	0.00424726
2878.04	0.00579726
2889.61	0.00643726
2901.19	0.00559726
2912.76	0.00620726
2924.33	0.00891726
2935.91	0.0162873
2947.48	0.0159173
2959.06	0.0107673
2970.63	0.0117873
2982.2	0.0122273
2993.78	0.00971726
3005.35	0.00661726
3016.92	0.00488726
3028.5	0.00547726
3040.07	0.00499726
3051.65	0.00394726
3063.22	0.00322726
3074.79	0.00264726
3086.37	0.00212726
3097.94	0.00175726
3109.52	0.00155726
3121.09	0.00126726
3132.66	0.00108726
3144.24	0.00087856
3155.81	0.00069316
3167.38	0.00060926
3178.96	0.00056246
3190.53	0.00052396
3202.11	0.00039656
3213.68	0.00034066
3225.25	0.00019786
3236.83	0.00020826
3248.4	0.00019196
3259.98	0.00010406
3271.55	0.00011856
3283.12	0.00024066
3294.7	0.00025736
3306.27	0.00018156
3317.84	0.00024566
3329.42	0.00024196
3340.99	0.00026206
3352.57	0.00040346
3364.14	0.00036826
3375.71	0.00059236
3387.29	0.00090136
3398.86	0.00148726
3410.43	0.00249726
3422.01	0.00398726
3433.58	0.00506726
3445.16	0.00523726
3456.73	0.00240726
3468.3	0.00108726
3479.88	0.00054846
3491.45	0.00036406
3503.03	0.00026316
3514.6	0.00024456
3526.17	0.00017566
3537.75	0.00016166
3549.32	0.00014006
3560.89	4.084e-05
3572.47	7.255e-05
3584.04	3.374e-05
3595.62	5.599e-05
3607.19	0.00025116
3618.76	0.00023946
3630.34	0.00024686
3641.91	0.00025296
3653.49	0.00035496
3665.06	0.00044806
3676.63	0.00042256
3688.21	0.00036756
3699.78	0.00047646
3711.35	0.00038876
3722.93	0.00033416
3734.5	0.00023286
3746.08	0.00021076
3757.65	0.00027726
3769.22	0.00015156
3780.8	0.00024256
3792.37	0.00033666
3803.94	0.00022736
3815.52	0.00026196
3827.09	0.00020586
3838.67	6.293e-05
3850.24	0.00013546
3861.81	9.593e-05
3873.39	2.887e-05
3884.96	5.494e-05
3896.54	9.084e-05
3908.11	8.815e-05
3919.68	0.00010197
3931.26	0.00012726
3942.83	0.00010475
3954.4	0.00020336
3965.98	0.00012556
3977.55	8.285e-05
3989.13	0.00022956
4000.7	0.00012806
