Infrared Spectrum: Methyl 4-(p-chlorophenoxy)butyrate
Formula: C 11 H 13 Cl O 3
CAS: 209052-80-2
State: gas
Origin: EPA-IR VAPOR PHASE LIBRARY
1/CM	ABSORBANCE
549.8	0.0010061
559.445	0.0008762
569.09	0.0008338
578.734	0.0010463
588.379	0.0009449
598.024	0.001526
607.669	0.001886
617.313	0.003406
626.958	0.005646
636.603	0.007556
646.248	0.007716
655.893	0.009336
665.537	0.009956
675.182	0.005946
684.827	0.003096
694.472	0.002006
704.116	0.001836
713.761	0.001476
723.406	0.001486
733.051	0.0011529
742.695	0.0011888
752.34	0.0010943
761.985	0.001386
771.63	0.001926
781.275	0.002906
790.919	0.004316
800.564	0.005946
810.209	0.009416
819.854	0.018736
829.498	0.018756
839.143	0.010706
848.788	0.006436
858.433	0.004556
868.078	0.004646
877.722	0.004526
887.367	0.003816
897.012	0.002786
906.657	0.002376
916.301	0.002666
925.946	0.004216
935.591	0.006866
945.236	0.008926
954.88	0.007506
964.525	0.005116
974.17	0.005116
983.815	0.006566
993.46	0.009126
1003.1	0.017346
1012.75	0.017886
1022.39	0.015536
1032.04	0.021166
1041.68	0.029716
1051.33	0.030366
1060.97	0.022396
1070.62	0.016126
1080.26	0.017206
1089.91	0.030266
1099.55	0.029336
1109.2	0.015156
1118.84	0.010816
1128.49	0.010316
1138.13	0.013796
1147.78	0.021586
1157.42	0.040506
1167.07	0.072446
1176.71	0.061436
1186.36	0.048636
1196	0.045316
1205.64	0.046356
1215.29	0.053896
1224.93	0.072986
1234.58	0.099856
1244.22	0.092126
1253.87	0.056646
1263.51	0.046306
1273.16	0.044006
1282.8	0.034606
1292.45	0.023656
1302.09	0.019236
1311.74	0.015736
1321.38	0.013966
1331.03	0.012666
1340.67	0.012296
1350.32	0.013566
1359.96	0.015076
1369.61	0.013866
1379.25	0.011866
1388.9	0.011176
1398.54	0.007796
1408.18	0.006306
1417.83	0.007636
1427.47	0.011976
1437.12	0.020036
1446.76	0.018326
1456.41	0.013816
1466.05	0.019216
1475.7	0.041286
1485.34	0.067906
1494.99	0.092866
1504.63	0.022906
1514.28	0.009286
1523.92	0.006136
1533.57	0.004596
1543.21	0.003846
1552.86	0.003936
1562.5	0.004556
1572.15	0.006886
1581.79	0.011106
1591.44	0.014056
1601.08	0.011896
1610.73	0.005256
1620.37	0.003176
1630.01	0.002456
1639.66	0.002106
1649.3	0.001926
1658.95	0.001756
1668.59	0.001886
1678.24	0.001956
1687.88	0.002356
1697.53	0.003186
1707.17	0.004906
1716.82	0.008096
1726.46	0.013886
1736.11	0.024336
1745.75	0.041086
1755.4	0.060346
1765.04	0.055936
1774.69	0.034276
1784.33	0.018316
1793.98	0.008626
1803.62	0.004416
1813.27	0.002736
1822.91	0.002006
1832.55	0.001866
1842.2	0.001886
1851.84	0.001996
1861.49	0.002246
1871.13	0.002256
1880.78	0.001926
1890.42	0.001686
1900.07	0.001366
1909.71	0.001276
1919.36	0.0012529
1929	0.0012256
1938.65	0.0012529
1948.29	0.0011862
1957.94	0.0011693
1967.58	0.001286
1977.23	0.001356
1986.87	0.001446
1996.52	0.001686
2006.16	0.001746
2015.81	0.001746
2025.45	0.001696
2035.1	0.001816
2044.74	0.001756
2054.38	0.001716
2064.03	0.001746
2073.67	0.001676
2083.32	0.001546
2092.96	0.001276
2102.61	0.0011722
2112.25	0.0010698
2121.9	0.0008976
2131.54	0.0007924
2141.19	0.0007167
2150.83	0.0006661
2160.48	0.0006159
2170.12	0.0005056
2179.77	0.0005127
2189.41	0.0005298
2199.06	0.0005491
2208.7	0.0005064
2218.35	0.0005407
2227.99	0.0005072
2237.64	0.0005709
2247.28	0.0006335
2256.92	0.0006531
2266.57	0.0007186
2276.21	0.0007216
2285.86	0.0007833
2295.5	0.0007342
2305.15	0.0006612
2314.79	0.0006759
2324.44	0.0006901
2334.08	0.000711
2343.73	0.0005835
2353.37	0.0006363
2363.02	0.0005564
2372.66	0.0006303
2382.31	0.0008124
2391.95	0.0008127
2401.6	0.0007931
2411.24	0.0008644
2420.89	0.0008613
2430.53	0.0008335
2440.18	0.0007466
2449.82	0.0008689
2459.47	0.0008396
2469.11	0.0008634
2478.75	0.0008387
2488.4	0.0008104
2498.04	0.0009283
2507.69	0.0010132
2517.33	0.0010531
2526.98	0.0010078
2536.62	0.0008227
2546.27	0.0006595
2555.91	0.0006652
2565.56	0.0006043
2575.2	0.0005756
2584.85	0.0006716
2594.49	0.000641
2604.14	0.0005548
2613.78	0.0005858
2623.43	0.0005168
2633.07	0.0006357
2642.72	0.0006053
2652.36	0.0005586
2662.01	0.0006088
2671.65	0.0006503
2681.29	0.0005722
2690.94	0.0006567
2700.58	0.0006613
2710.23	0.0006273
2719.87	0.0007082
2729.52	0.0008209
2739.16	0.0009611
2748.81	0.0009691
2758.45	0.0010144
2768.1	0.0010335
2777.74	0.0009501
2787.39	0.0010481
2797.03	0.0011144
2806.68	0.001466
2816.32	0.001606
2825.97	0.001876
2835.61	0.002626
2845.26	0.003936
2854.9	0.005186
2864.55	0.005486
2874.19	0.006676
2883.84	0.008366
2893.48	0.009186
2903.12	0.009096
2912.77	0.009426
2922.41	0.010656
2932.06	0.013256
2941.7	0.016906
2951.35	0.020996
2960.99	0.026736
2970.64	0.019786
2980.28	0.012946
2989.93	0.008866
2999.57	0.006886
3009.22	0.005516
3018.86	0.004816
3028.51	0.004736
3038.15	0.004886
3047.8	0.004856
3057.44	0.003446
3067.09	0.002896
3076.73	0.003176
3086.38	0.003306
3096.02	0.003586
3105.67	0.003156
3115.31	0.001686
3124.95	0.0010988
3134.6	0.0008241
3144.24	0.0009442
3153.89	0.0006762
3163.53	0.0008199
3173.18	0.0005346
3182.82	0.0005659
3192.47	0.000578
3202.11	0.00029105
3211.76	0.0004769
3221.4	0.00031662
3231.05	0.00025852
3240.69	0.00031793
3250.34	0.00031048
3259.98	0.0003958
3269.63	0.000223
3279.27	0.00025874
3288.92	0.0002002
3298.56	0.000142
3308.21	0.0001961
3317.85	0.0003988
3327.49	0.00027472
3337.14	0.0001755
3346.78	0.0002249
3356.43	0.0001736
3366.07	0.0002083
3375.72	0.000135
3385.36	0.00029729
3395.01	0.000271107
3404.65	0.000301
3414.3	0.00034443
3423.94	0.0003838
3433.59	0.0002171
3443.23	0.00031181
3452.88	0.0003752
3462.52	0.000418
3472.17	0.0004304
3481.81	0.0010034
3491.46	0.0007945
3501.1	0.0008894
3510.75	0.0006938
3520.39	0.0006128
3530.04	0.0005225
3539.68	0.0004837
3549.32	0.00031103
3558.97	0.00033466
3568.61	0.0001881
3578.26	0.00033242
3587.9	0.0002526
3597.55	0.0004356
3607.19	0.00032383
3616.84	0.00011
3626.48	0.0002298
3636.13	0.00013
3645.77	0.00025687
3655.42	0.00028846
3665.06	0.0003674
3674.71	0.0005028
3684.35	0.00034605
3694	0.00028185
3703.64	0.0002282
3713.29	0.0004096
3722.93	0.00036467
3732.58	0.00030991
3742.22	0.000117
3751.86	0.0002685
3761.51	0.0003891
3771.15	0.0002327
3780.8	0.00029331
3790.44	0.00031897
3800.09	0.000147
3809.73	0.000394
3819.38	0.0003378
3829.02	0.0004412
3838.67	0.00030475
3848.31	0.0003959
3857.96	0.0004268
3867.6	0.00032594
3877.25	0.0004213
3886.89	0.0004451
3896.54	0.0005036
3906.18	0.0004216
3915.83	0.0004471
3925.47	0.0003956
3935.12	0.0004146
3944.76	0.00034351
3954.41	0.0004714
3964.05	0.0003885
3973.69	0.0005093
3983.34	0.00029276
3992.98	0.00036299
