Infrared Spectrum: 4,4'-Methylenebis(3-chlorophenyl)diisothiocyanate
Formula: C 15 H 8 Cl 2 N 2 S 2
CAS: 210101-80-7
State: gas
Origin: EPA-IR VAPOR PHASE LIBRARY
1/CM	ABSORBANCE
549.8	0.00214
559.445	0.00183
569.09	0.00135
578.734	0.0010801
588.379	0.0004404
598.024	0.0008449
607.669	0.0006223
617.313	0.0004435
626.958	0.00037402
636.603	0.0006236
646.248	0.00036666
655.893	0.0007407
665.537	0.0011218
675.182	0.0008572
684.827	0.00156
694.472	0.0011791
704.116	0.00113
713.761	0.0006913
723.406	0.0008737
733.051	0.0010558
742.695	0.000955
752.34	0.0004733
761.985	0.0006581
771.63	0.0004648
781.275	0.0005221
790.919	0.0009256
800.564	0.00178
810.209	0.00515
819.854	0.00596
829.498	0.00193
839.143	0.00134
848.788	0.00131
858.433	0.00162
868.078	0.00235
877.722	0.00222
887.367	0.00164
897.012	0.00149
906.657	0.0010491
916.301	0.00131
925.946	0.00213
935.591	0.00377
945.236	0.00736
954.88	0.0063
964.525	0.00261
974.17	0.00133
983.815	0.0008276
993.46	0.0006677
1003.1	0.0006668
1012.75	0.0007381
1022.39	0.0005491
1032.04	0.0002875
1041.68	0.0007636
1051.33	0.0007039
1060.97	0.00258
1070.62	0.00307
1080.26	0.0004453
1089.91	1.8e-05
1099.55	0.0007648
1109.2	0.000303284
1118.84	8.9e-05
1128.49	0.00049
1138.13	0.000461
1147.78	0.0010824
1157.42	0.0006506
1167.07	0.000426
1176.71	0.000814
1186.36	0.000623
1196	0.0007611
1205.64	0.0010465
1215.29	0.0009113
1224.93	0.0006865
1234.58	0.0007854
1244.22	0.0010601
1253.87	0.0011139
1263.51	0.0009159
1273.16	0.00151
1282.8	0.00214
1292.45	0.00164
1302.09	0.0012801
1311.74	0.00149
1321.38	0.0007874
1331.03	0.0006525
1340.67	0.0004961
1350.32	0.0004218
1359.96	0.0005447
1369.61	0.000646
1379.25	0.0009728
1388.9	0.00154
1398.54	0.00251
1408.18	0.00208
1417.83	0.0012499
1427.47	0.0011774
1437.12	0.00165
1446.76	0.00166
1456.41	0.0015
1466.05	0.00205
1475.7	0.00481
1485.34	0.01546
1494.99	0.01127
1504.63	0.00351
1514.28	0.00191
1523.92	0.00138
1533.57	0.0011932
1543.21	0.0012771
1552.86	0.00165
1562.5	0.00173
1572.15	0.0012713
1581.79	0.0011556
1591.44	0.00138
1601.08	0.00173
1610.73	0.0010615
1620.37	0.0006691
1630.01	0.0006796
1639.66	0.000546
1649.3	0.00037156
1658.95	0.0004705
1668.59	0.0004677
1678.24	0.0004505
1687.88	0.0005031
1697.53	0.0004373
1707.17	0.00054
1716.82	0.0005877
1726.46	0.0006486
1736.11	0.0007733
1745.75	0.0007012
1755.4	0.0007986
1765.04	0.0008257
1774.69	0.0007765
1784.33	0.0007595
1793.98	0.0008736
1803.62	0.0009039
1813.27	0.0010247
1822.91	0.0010186
1832.55	0.0010252
1842.2	0.0010999
1851.84	0.0011022
1861.49	0.0011959
1871.13	0.00143
1880.78	0.00186
1890.42	0.00233
1900.07	0.00251
1909.71	0.00256
1919.36	0.00299
1929	0.00372
1938.65	0.0049
1948.29	0.0066
1957.94	0.00863
1967.58	0.01162
1977.23	0.01601
1986.87	0.02206
1996.52	0.0298
2006.16	0.03864
2015.81	0.04734
2025.45	0.05848
2035.1	0.07658
2044.74	0.08898
2054.38	0.0704
2064.03	0.04826
2073.67	0.03771
2083.32	0.03522
2092.96	0.0369
2102.61	0.03744
2112.25	0.03224
2121.9	0.02439
2131.54	0.01859
2141.19	0.01374
2150.83	0.00985
2160.48	0.00753
2170.12	0.00593
2179.77	0.00477
2189.41	0.00411
2199.06	0.00383
2208.7	0.00355
2218.35	0.00311
2227.99	0.00283
2237.64	0.00227
2247.28	0.00164
2256.92	0.00142
2266.57	0.0011319
2276.21	0.0009883
2285.86	0.0008802
2295.5	0.0008591
2305.15	0.0008346
2314.79	0.0008322
2324.44	0.0008746
2334.08	0.0008826
2343.73	0.0009791
2353.37	0.000933
2363.02	0.0007419
2372.66	0.0007678
2382.31	0.0006967
2391.95	0.000861
2401.6	0.0008788
2411.24	0.0008051
2420.89	0.0008269
2430.53	0.0007867
2440.18	0.0007066
2449.82	0.0007267
2459.47	0.0007787
2469.11	0.0008389
2478.75	0.0008547
2488.4	0.0008614
2498.04	0.0009516
2507.69	0.0009323
2517.33	0.0009649
2526.98	0.001035
2536.62	0.0011883
2546.27	0.001176
2555.91	0.0012503
2565.56	0.0011405
2575.2	0.0011346
2584.85	0.0009354
2594.49	0.0008158
2604.14	0.0009058
2613.78	0.0009254
2623.43	0.0008914
2633.07	0.00085
2642.72	0.0007483
2652.36	0.0007929
2662.01	0.0009407
2671.65	0.0009204
2681.29	0.0010279
2690.94	0.0011443
2700.58	0.0011364
2710.23	0.0012123
2719.87	0.001199
2729.52	0.0010062
2739.16	0.0009418
2748.81	0.0007617
2758.45	0.0006569
2768.1	0.0006039
2777.74	0.0007037
2787.39	0.0005133
2797.03	0.0004309
2806.68	0.0005956
2816.32	0.0005449
2825.97	0.0005038
2835.61	0.0004858
2845.26	0.0006253
2854.9	0.0007757
2864.55	0.0007792
2874.19	0.0006127
2883.84	0.0007686
2893.48	0.0006287
2903.12	0.0007947
2912.77	0.0011923
2922.41	0.00149
2932.06	0.0014
2941.7	0.0010701
2951.35	0.000811
2960.99	0.0008128
2970.64	0.0007949
2980.28	0.0006265
2989.93	0.000708
2999.57	0.0007254
3009.22	0.0006433
3018.86	0.0007578
3028.51	0.0009788
3038.15	0.00146
3047.8	0.0010582
3057.44	0.0008836
3067.09	0.0009096
3076.73	0.0006909
3086.38	0.0005328
3096.02	0.0005745
3105.67	0.00037268
3115.31	0.00035526
3124.95	0.0002672
3134.6	0.00037268
3144.24	0.00036287
3153.89	0.00034766
3163.53	0.0002729
3173.18	0.0004157
3182.82	0.0002123
3192.47	0.0002124
3202.11	0.00033143
3211.76	0.0002686
3221.4	0.0002228
3231.05	0.00034197
3240.69	0.0003873
3250.34	0.0002258
3259.98	0.000191
3269.63	0.0004125
3279.27	0.000452
3288.92	0.00036242
3298.56	0.0005386
3308.21	0.00037664
3317.85	0.0004078
3327.49	0.0002031
3337.14	0.000189
3346.78	0.000199
3356.43	0.00031352
3366.07	0.00034116
3375.72	0.0004035
3385.36	0.000153
3395.01	0.0004689
3404.65	0.00032204
3414.3	0.0002432
3423.94	0.0002248
3433.59	0.0002325
3443.23	0.0002597
3452.88	0.00034776
3462.52	0.0004237
3472.17	0.00032273
3481.81	0.00035753
3491.46	0.00034154
3501.1	0.0002023
3510.75	0.0002726
3520.39	0.0002837
3530.04	0.0004075
3539.68	0.000423
3549.32	0.0002039
3558.97	0.00033919
3568.61	0.000112
3578.26	0.000182
3587.9	0.000185
3597.55	0.0002619
3607.19	0.00034423
3616.84	0.0004937
3626.48	0.0002199
3636.13	0.000303725
3645.77	0.0002038
3655.42	0.000183
3665.06	0.00034208
3674.71	0.00034211
3684.35	0.00029749
3694	0.0002757
3703.64	0.0002698
3713.29	0.0005025
3722.93	0.00031096
3732.58	0.0002527
3742.22	0.0004009
3751.86	0.0002032
3761.51	0.00037591
3771.15	0.00032254
3780.8	0.00038813
3790.44	0.000211
3800.09	0.0004041
3809.73	0.00032466
3819.38	0.00036629
3829.02	0.00029725
3838.67	0.0003102
3848.31	0.00037008
3857.96	0.0002761
3867.6	0.0002267
3877.25	0.0002101
3886.89	0.000255
3896.54	0.0004649
3906.18	0.000169
3915.83	0.00029036
3925.47	0.0004919
3935.12	0.0005506
3944.76	0.0004022
3954.41	0.0004271
3964.05	0.0002382
3973.69	0.00037907
3983.34	0.0004655
3992.98	0.0007773
