Infrared Spectrum: 3-Nitrobiphenyl
Formula: C12 H9 N O2
CAS: 2113-58-8
State: SOLUTION (10% CCl4 FOR 3800-1330, 10% CS2 FOR 1330-440 CM^-^1)
Class: COBLENTZ III
Instrument: DOW KBr FOREPRISM-GRATING
Instrument parameters: BLAZED AT 3.5, 12.0, 20.0 MICRON AND CHANGED AT 5.0, 7.5, 14.9 MICRON
Sampling: TRANSMISSION
Path length: 0.011 CM, 0.011 CM
Resolution: 2
Origin: DOW CHEMICAL COMPANY
1/CM	TRANSMITTANCE
3786	0.9307
3777	0.9292
3768	0.9278
3759	0.9278
3750	0.9277
3741	0.9318
3732	0.9325
3723	0.9294
3714	0.9264
3705	0.9268
3696	0.9274
3687	0.9307
3678	0.9297
3669	0.93
3660	0.9303
3651	0.9307
3642	0.9305
3633	0.9304
3624	0.9336
3615	0.9337
3606	0.93
3597	0.9275
3588	0.9281
3579	0.9164
3570	0.9228
3561	0.9258
3552	0.9296
3543	0.9294
3534	0.9293
3525	0.9274
3516	0.9277
3507	0.9282
3498	0.9286
3489	0.9288
3480	0.9295
3471	0.9307
3462	0.9321
3453	0.9333
3444	0.9347
3435	0.9357
3426	0.9367
3417	0.9377
3408	0.938
3399	0.9378
3390	0.9375
3381	0.9373
3372	0.937
3363	0.9365
3354	0.9366
3345	0.938
3336	0.9382
3327	0.9369
3318	0.9369
3309	0.9388
3300	0.9372
3291	0.9374
3282	0.9386
3273	0.9387
3264	0.9381
3255	0.9369
3246	0.9355
3237	0.9331
3228	0.93
3219	0.9274
3210	0.9263
3201	0.9235
3192	0.9245
3183	0.9228
3174	0.9223
3165	0.9209
3156	0.9195
3147	0.9162
3138	0.9141
3129	0.9079
3120	0.8912
3111	0.8507
3102	0.8097
3093	0.7244
3084	0.6906
3075	0.6212
3066	0.635
3057	0.7223
3048	0.776
3039	0.677
3030	0.7846
3021	0.8165
3012	0.8585
3003	0.8716
2994	0.8897
2985	0.909
2976	0.9158
2967	0.918
2958	0.9203
2949	0.9223
2940	0.9194
2931	0.9045
2922	0.8799
2913	0.8797
2904	0.8986
2895	0.906
2886	0.9025
2877	0.8382
2868	0.8348
2859	0.8837
2850	0.8632
2841	0.8816
2832	0.9147
2823	0.92
2814	0.9192
2805	0.9198
2796	0.9229
2787	0.9277
2778	0.9314
2769	0.9259
2760	0.9303
2751	0.9339
2742	0.9355
2733	0.9348
2724	0.934
2715	0.9329
2706	0.9309
2697	0.9279
2688	0.9232
2679	0.9262
2670	0.9292
2661	0.9308
2652	0.9316
2643	0.9261
2634	0.9249
2625	0.9256
2616	0.9268
2607	0.928
2598	0.9288
2589	0.93
2580	0.9319
2571	0.9336
2562	0.9347
2553	0.9331
2544	0.9335
2535	0.9346
2526	0.9354
2517	0.9355
2508	0.9354
2499	0.935
2490	0.9355
2481	0.9366
2472	0.9353
2463	0.9302
2454	0.915
2445	0.9096
2436	0.9255
2427	0.9344
2418	0.9379
2409	0.9294
2400	0.9214
2391	0.932
2382	0.9374
2373	0.9372
2364	0.9397
2355	0.9509
2346	0.9575
2337	0.9595
2328	0.9631
2319	0.9673
2310	0.9634
2301	0.9481
2292	0.9437
2283	0.9426
2274	0.9428
2265	0.941
2256	0.9395
2247	0.9385
2238	0.9391
2229	0.9383
2220	0.9382
2211	0.9404
2202	0.9423
2193	0.9437
2184	0.9455
2175	0.9484
2166	0.9489
2157	0.9514
2148	0.9541
2139	0.9556
2130	0.9563
2121	0.9563
2112	0.9562
2103	0.9504
2094	0.9486
2085	0.952
2076	0.9512
2067	0.9533
2058	0.9579
2049	0.9624
2040	0.963
2031	0.9551
2022	0.9528
2013	0.9563
2004	0.9591
1995	0.9603
1986	0.9379
1977	0.89
1968	0.8512
1959	0.8597
1950	0.834
1941	0.8905
1932	0.9
1923	0.9008
1914	0.8649
1905	0.8398
1896	0.8776
1887	0.8493
1878	0.8792
1869	0.8837
1860	0.8901
1851	0.8833
1842	0.8904
1833	0.8763
1824	0.858
1815	0.8667
1806	0.8534
1797	0.8704
1788	0.8921
1779	0.896
1770	0.8991
1761	0.8811
1752	0.8797
1743	0.8899
1734	0.868
1725	0.8794
1716	0.9029
1707	0.8938
1698	0.9018
1689	0.8947
1680	0.8924
1671	0.8981
1662	0.8827
1653	0.8836
1644	0.8876
1635	0.8829
1626	0.8649
1617	0.8173
1608	0.7916
1599	0.7602
1590	0.6772
1581	0.6463
1572	0.4991
1563	0.6116
1554	0.5822
1545	0.3304
1536	0.0307
1527	0.0369
1518	0.5513
1509	0.5502
1500	0.4775
1491	0.71
1482	0.7027
1473	0.4478
1464	0.6995
1455	0.5925
1446	0.8203
1437	0.8577
1428	0.7401
1419	0.8182
1410	0.8546
1401	0.8517
1392	0.8449
1383	0.8431
1374	0.7969
1365	0.4316
1356	0.0162
1347	0.0171
1338	0.3547
1329	0.6334
1320	0.6895
1311	0.7315
1302	0.6005
1293	0.622
1284	0.7138
1275	0.7856
1266	0.5786
1257	0.8487
1248	0.9013
1239	0.9078
1230	0.9176
1221	0.9226
1212	0.9288
1203	0.922
1194	0.9144
1185	0.8926
1176	0.8706
1167	0.8207
1158	0.8499
1149	0.8924
1140	0.9191
1131	0.9379
1122	0.9346
1113	0.843
1104	0.5873
1095	0.7493
1086	0.7347
1077	0.6944
1068	0.8409
1059	0.901
1050	0.8529
1041	0.8473
1032	0.9008
1023	0.7354
1014	0.9017
1005	0.8937
996	0.8835
987	0.8854
978	0.8686
969	0.8913
960	0.8961
951	0.9062
942	0.909
933	0.8971
924	0.707
915	0.7285
906	0.8461
897	0.3801
888	0.8386
879	0.313
870	0.8113
861	0.8663
852	0.8756
843	0.863
834	0.8769
825	0.8842
816	0.856
807	0.2792
798	0.8264
789	0.8673
780	0.8381
771	0.2482
762	0.182
753	0.7842
744	0.7869
735	0.2027
726	0.4604
717	0.7615
708	0.7391
699	0.0976
690	0.3865
681	0.4446
672	0.1966
663	0.8748
654	0.9122
645	0.9121
636	0.9322
627	0.9452
618	0.8582
609	0.6584
600	0.9523
591	0.962
582	0.9615
573	0.9597
564	0.9441
555	0.9215
546	0.9168
537	0.9237
528	0.9352
519	0.9429
510	0.9421
501	0.9128
492	0.871
483	0.855
474	0.8659
465	0.8818
456	0.8992
447	0.9135
