Infrared Spectrum: N-(2-Bromopropyl)phthalimide
Formula: C11 H10 Br N O2
CAS: 21134-25-8
State: gas
Origin: EPA-IR VAPOR PHASE LIBRARY
1/CM	ABSORBANCE
549.8	0.007689
559.445	0.004439
569.09	0.0009956
578.734	0.0007696
588.379	0.004139
598.024	0.006839
607.669	0.003999
617.313	0.005399
626.958	0.004139
636.603	0.001489
646.248	0.002629
655.893	0.001949
665.537	0.0012954
675.182	0.001379
684.827	0.001999
694.472	0.005969
704.116	0.021169
713.761	0.053319
723.406	0.055229
733.051	0.020699
742.695	0.005069
752.34	0.002829
761.985	0.002139
771.63	0.001629
781.275	0.004019
790.919	0.004759
800.564	0.001499
810.209	0.0009025
819.854	0.0009807
829.498	0.0013234
839.143	0.001599
848.788	0.001949
858.433	0.002129
868.078	0.003309
877.722	0.003689
887.367	0.003269
897.012	0.005029
906.657	0.010939
916.301	0.022559
925.946	0.016629
935.591	0.006619
945.236	0.004399
954.88	0.006169
964.525	0.008849
974.17	0.008409
983.815	0.007129
993.46	0.009149
1003.1	0.018979
1012.75	0.017939
1022.39	0.014409
1032.04	0.020869
1041.68	0.037429
1051.33	0.035799
1060.97	0.023569
1070.62	0.016169
1080.26	0.015629
1089.91	0.013789
1099.55	0.008679
1109.2	0.007119
1118.84	0.006029
1128.49	0.007509
1138.13	0.012919
1147.78	0.019599
1157.42	0.015759
1167.07	0.009449
1176.71	0.010799
1186.36	0.015299
1196	0.012159
1205.64	0.010519
1215.29	0.015719
1224.93	0.015139
1234.58	0.010089
1244.22	0.007049
1253.87	0.005479
1263.51	0.005159
1273.16	0.006689
1282.8	0.009269
1292.45	0.014319
1302.09	0.024319
1311.74	0.039469
1321.38	0.050539
1331.03	0.050379
1340.67	0.047119
1350.32	0.062749
1359.96	0.101319
1369.61	0.096319
1379.25	0.146879
1388.9	0.156149
1398.54	0.093299
1408.18	0.041569
1417.83	0.027229
1427.47	0.032359
1437.12	0.039679
1446.76	0.027669
1456.41	0.018979
1466.05	0.017679
1475.7	0.011569
1485.34	0.005169
1494.99	0.003949
1504.63	0.003459
1514.28	0.003519
1523.92	0.003719
1533.57	0.003309
1543.21	0.003129
1552.86	0.003269
1562.5	0.003519
1572.15	0.003839
1581.79	0.004329
1591.44	0.005129
1601.08	0.005889
1610.73	0.007889
1620.37	0.006079
1630.01	0.003379
1639.66	0.002649
1649.3	0.002899
1658.95	0.003709
1668.59	0.005229
1678.24	0.007029
1687.88	0.009339
1697.53	0.015539
1707.17	0.026179
1716.82	0.049429
1726.46	0.183279
1736.11	0.421949
1745.75	0.222049
1755.4	0.046729
1765.04	0.025279
1774.69	0.027949
1784.33	0.055069
1793.98	0.041219
1803.62	0.012259
1813.27	0.007059
1822.91	0.005659
1832.55	0.005399
1842.2	0.005059
1851.84	0.003659
1861.49	0.003069
1871.13	0.003589
1880.78	0.003109
1890.42	0.002779
1900.07	0.002739
1909.71	0.002759
1919.36	0.002239
1929	0.002249
1938.65	0.002779
1948.29	0.002149
1957.94	0.001499
1967.58	0.002119
1977.23	0.001959
1986.87	0.0011149
1996.52	0.0009601
2006.16	0.0010201
2015.81	0.0009356
2025.45	0.0008177
2035.1	0.0008483
2044.74	0.0008442
2054.38	0.0007066
2064.03	0.0006833
2073.67	0.0006815
2083.32	0.00068
2092.96	0.0006376
2102.61	0.000676
2112.25	0.0006564
2121.9	0.0006063
2131.54	0.0007374
2141.19	0.0007931
2150.83	0.000829
2160.48	0.0008632
2170.12	0.0008352
2179.77	0.0008024
2189.41	0.0008626
2199.06	0.0007922
2208.7	0.0007354
2218.35	0.0007353
2227.99	0.0007385
2237.64	0.0007287
2247.28	0.0008673
2256.92	0.0010031
2266.57	0.0010428
2276.21	0.0009971
2285.86	0.0010223
2295.5	0.0009926
2305.15	0.0010501
2314.79	0.0012234
2324.44	0.0011673
2334.08	0.0010021
2343.73	0.000979
2353.37	0.0010505
2363.02	0.0010897
2372.66	0.00109
2382.31	0.0009772
2391.95	0.0009107
2401.6	0.0008401
2411.24	0.0009276
2420.89	0.0010126
2430.53	0.0010417
2440.18	0.0010412
2449.82	0.0011544
2459.47	0.0010868
2469.11	0.0008936
2478.75	0.0007221
2488.4	0.0005932
2498.04	0.0006864
2507.69	0.0006306
2517.33	0.000618
2526.98	0.0006184
2536.62	0.0007006
2546.27	0.0007163
2555.91	0.00057
2565.56	0.0005177
2575.2	0.00043444
2584.85	0.0003423
2594.49	0.0005501
2604.14	0.0004565
2613.78	0.0005397
2623.43	0.0007172
2633.07	0.0007421
2642.72	0.0007725
2652.36	0.000725
2662.01	0.0006186
2671.65	0.0006356
2681.29	0.0008694
2690.94	0.000888
2700.58	0.0008584
2710.23	0.0007622
2719.87	0.0005531
2729.52	0.0005613
2739.16	0.0007471
2748.81	0.0009223
2758.45	0.0007012
2768.1	0.0008924
2777.74	0.0011031
2787.39	0.001103
2797.03	0.0008687
2806.68	0.0008855
2816.32	0.0011339
2825.97	0.0010572
2835.61	0.0010881
2845.26	0.0011259
2854.9	0.001409
2864.55	0.002239
2874.19	0.003399
2883.84	0.003539
2893.48	0.003439
2903.12	0.004179
2912.77	0.006869
2922.41	0.011349
2932.06	0.013499
2941.7	0.009279
2951.35	0.006669
2960.99	0.006809
2970.64	0.009029
2980.28	0.009539
2989.93	0.010729
2999.57	0.009359
3009.22	0.003979
3018.86	0.001519
3028.51	0.001749
3038.15	0.002389
3047.8	0.003309
3057.44	0.005549
3067.09	0.006419
3076.73	0.006579
3086.38	0.010209
3096.02	0.006159
3105.67	0.001909
3115.31	0.0009868
3124.95	0.0004913
3134.6	0.0004791
3144.24	0.00034584
3153.89	0.0004043
3163.53	0.0004538
3173.18	0.0005418
3182.82	0.0005095
3192.47	0.0005246
3202.11	0.0008558
3211.76	0.0007354
3221.4	0.0007942
3231.05	0.0007556
3240.69	0.0004578
3250.34	0.000357236
3259.98	0.00041758
3269.63	0.0004663
3279.27	0.000179
3288.92	0.000243
3298.56	0.00015
3308.21	0.000228
3317.85	6.2e-05
3327.49	0.000358343
3337.14	0.000159
3346.78	0.000318
3356.43	0.000357028
3366.07	0.000211
3375.72	0.0002766
3385.36	0.00037615
3395.01	0.000172
3404.65	0.000223
3414.3	0.0003169
3423.94	0.0003073
3433.59	0.0006094
3443.23	0.0006343
3452.88	0.000924
3462.52	0.001479
3472.17	0.001519
3481.81	0.001559
3491.46	0.002489
3501.1	0.003629
3510.75	0.003979
3520.39	0.002189
3530.04	0.0010487
3539.68	0.0006818
3549.32	0.0005709
3558.97	0.0007686
3568.61	0.0006853
3578.26	0.000521
3587.9	0.0004733
3597.55	0.00039486
3607.19	0.00036474
3616.84	0.00043617
3626.48	0.00038705
3636.13	0.0003292
3645.77	0.000355892
3655.42	0.000148
3665.06	7.7e-05
3674.71	0.000225
3684.35	0.000123
3694	0.000147
3703.64	0.00011
3713.29	0.000172
3722.93	0.00024
3732.58	0.000355638
3742.22	0.0002497
3751.86	0.00039637
3761.51	0.0003222
3771.15	0.00043731
3780.8	0.0003206
3790.44	0.000354478
3800.09	0.00034716
3809.73	0.0005586
3819.38	0.00038838
3829.02	0.0003352
3838.67	9.8e-05
3848.31	0.000222
3857.96	0.0002658
3867.6	0.000236
3877.25	0.00037139
3886.89	0.0002595
3896.54	0.000162
3906.18	0.0005103
3915.83	0.0004839
3925.47	0.00036176
3935.12	0.000532
3944.76	0.00042249
3954.41	0.0003382
3964.05	0.00040542
3973.69	0.000275
3983.34	0.000233
3992.98	0.000464
