Infrared Spectrum: Dimethyl sulfoxide- d6
Formula: C2 O S D6
CAS: 2206-27-1
State: SOLUTION (5% CCl4 FOR 3800-1330, 5% CS2 FOR 1330-400 CM^-^1)
Class: COBLENTZ III
Instrument: BECKMAN IR-9 (GRATING)
Instrument parameters: ORDER CHANGES: 670, 1200, 2000 CM^-^1
Sampling: TRANSMISSION
Path length: 0.011 CM, 0.010 CM
Resolution: 2
Origin: DOW CHEMICAL COMPANY
1/CM	TRANSMITTANCE
3800	0.8691
3791	0.8682
3782	0.8673
3773	0.8666
3764	0.8664
3755	0.8661
3746	0.8663
3737	0.8664
3728	0.8665
3719	0.8663
3710	0.8645
3701	0.8592
3692	0.8581
3683	0.8613
3674	0.8648
3665	0.8659
3656	0.8661
3647	0.8651
3638	0.8641
3629	0.8631
3620	0.8623
3611	0.8615
3602	0.8607
3593	0.8599
3584	0.859
3575	0.8582
3566	0.8574
3557	0.8567
3548	0.8562
3539	0.8555
3530	0.8549
3521	0.8541
3512	0.8534
3503	0.8525
3494	0.8518
3485	0.8512
3476	0.8505
3467	0.8498
3458	0.8501
3449	0.8503
3440	0.8507
3431	0.851
3422	0.8513
3413	0.8516
3404	0.852
3395	0.8523
3386	0.8531
3377	0.8538
3368	0.8546
3359	0.855
3350	0.8553
3341	0.8555
3332	0.8553
3323	0.855
3314	0.8536
3305	0.8502
3296	0.8433
3287	0.8396
3278	0.8366
3269	0.836
3260	0.8401
3251	0.8467
3242	0.8517
3233	0.8534
3224	0.8544
3215	0.855
3206	0.8556
3197	0.856
3188	0.8566
3179	0.8565
3170	0.8565
3161	0.8565
3152	0.8565
3143	0.8565
3134	0.8566
3125	0.8567
3116	0.8565
3107	0.8561
3098	0.8528
3089	0.8498
3080	0.8507
3071	0.8536
3062	0.855
3053	0.8545
3044	0.8528
3035	0.8497
3026	0.8468
3017	0.8468
3008	0.8499
2999	0.8511
2990	0.8516
2981	0.852
2972	0.8528
2963	0.854
2954	0.8551
2945	0.856
2936	0.8568
2927	0.8575
2918	0.8575
2909	0.8544
2900	0.8531
2891	0.8539
2882	0.8549
2873	0.8559
2864	0.8568
2855	0.857
2846	0.8571
2837	0.8573
2828	0.8574
2819	0.8573
2810	0.8571
2801	0.8571
2792	0.8571
2783	0.8571
2774	0.8574
2765	0.8575
2756	0.8577
2747	0.8578
2738	0.8578
2729	0.8575
2720	0.8574
2711	0.8571
2702	0.8568
2693	0.8566
2684	0.8565
2675	0.8563
2666	0.8562
2657	0.856
2648	0.8558
2639	0.8555
2630	0.8552
2621	0.8549
2612	0.8546
2603	0.8543
2594	0.8541
2585	0.8539
2576	0.8538
2567	0.8536
2558	0.8534
2549	0.8534
2540	0.8533
2531	0.8531
2522	0.8528
2513	0.8525
2504	0.8524
2495	0.8518
2486	0.8515
2477	0.851
2468	0.8506
2459	0.8502
2450	0.8499
2441	0.8494
2432	0.8488
2423	0.8481
2414	0.8475
2405	0.8468
2396	0.8423
2387	0.838
2378	0.837
2369	0.8361
2360	0.8364
2351	0.8368
2342	0.8374
2333	0.8375
2324	0.8374
2315	0.837
2306	0.8356
2297	0.8327
2288	0.828
2279	0.8196
2270	0.7919
2261	0.7583
2252	0.7575
2243	0.8133
2234	0.8239
2225	0.8307
2216	0.8343
2207	0.8374
2198	0.8385
2189	0.839
2180	0.8377
2171	0.8354
2162	0.8306
2153	0.8225
2144	0.8101
2135	0.7368
2126	0.7674
2117	0.8001
2108	0.8111
2099	0.8175
2090	0.8181
2081	0.8201
2072	0.8247
2063	0.8289
2054	0.8312
2045	0.8367
2036	0.8407
2027	0.842
2018	0.8423
2009	0.8388
2000	0.8307
1991	0.8408
1982	0.846
1973	0.8508
1964	0.8539
1955	0.8553
1946	0.8563
1937	0.8567
1928	0.8568
1919	0.8571
1910	0.8575
1901	0.8581
1892	0.8586
1883	0.8578
1874	0.8568
1865	0.8557
1856	0.8543
1847	0.8512
1838	0.8475
1829	0.8455
1820	0.8453
1811	0.8482
1802	0.8489
1793	0.8484
1784	0.8468
1775	0.8461
1766	0.8464
1757	0.85
1748	0.8541
1739	0.8568
1730	0.8574
1721	0.855
1712	0.8549
1703	0.854
1694	0.851
1685	0.8491
1676	0.8478
1667	0.847
1658	0.8453
1649	0.843
1640	0.8388
1631	0.8231
1622	0.8154
1613	0.8164
1604	0.824
1595	0.8275
1586	0.8295
1577	0.8301
1568	0.8307
1559	0.8328
1550	0.8344
1541	0.8365
1532	0.8433
1523	0.8468
1514	0.844
1505	0.85
1496	0.852
1487	0.8533
1478	0.8548
1469	0.8568
1460	0.8575
1451	0.8566
1442	0.8571
1433	0.8564
1424	0.8554
1415	0.8533
1406	0.8527
1397	0.851
1388	0.8496
1379	0.8471
1370	0.8458
1361	0.8471
1352	0.8495
1343	0.8501
1334	0.8502
1325	0.851
1316	0.8525
1307	0.854
1298	0.8545
1289	0.8548
1280	0.8506
1271	0.842
1262	0.8399
1253	0.8432
1244	0.845
1235	0.8438
1226	0.8366
1217	0.8292
1208	0.828
1199	0.8316
1190	0.8359
1181	0.8364
1172	0.8327
1163	0.826
1154	0.823
1145	0.8212
1136	0.815
1127	0.8015
1118	0.7804
1109	0.7471
1100	0.6961
1091	0.6454
1082	0.5028
1073	0.0811
1064	0.0121
1055	0.1046
1046	0.3103
1037	0.0981
1028	0.1784
1019	0.427
1010	0.4176
1001	0.6532
992	0.7365
983	0.7728
974	0.7941
965	0.8092
956	0.8186
947	0.8258
938	0.8318
929	0.8355
920	0.8387
911	0.8418
902	0.8431
893	0.8438
884	0.8418
875	0.8305
866	0.8295
857	0.8283
848	0.8264
839	0.8181
830	0.7762
821	0.5264
812	0.5494
803	0.7656
794	0.803
785	0.8105
776	0.7975
767	0.7547
758	0.5516
749	0.5487
740	0.7787
731	0.8325
722	0.8542
713	0.8702
704	0.8701
695	0.8718
686	0.8725
677	0.8644
668	0.8675
659	0.8532
650	0.8403
641	0.8614
632	0.8649
623	0.8273
614	0.7261
605	0.7511
596	0.814
587	0.8645
578	0.868
569	0.8677
560	0.8683
551	0.87
542	0.8725
533	0.8759
524	0.8793
515	0.8828
506	0.8861
497	0.8897
488	0.8937
479	0.8968
470	0.8994
461	0.9012
452	0.9013
443	0.8939
434	0.8691
425	0.8471
416	0.8345
407	0.8314
