Infrared Spectrum: CYCLOHEXANE, 1,2-DIMETHYL-, CIS-,
Formula: C8 H16
CAS: 2207-01-4
State: SOLUTION (10% CCl4 FOR 3800-1330, 10% CS2 FOR 1330-400 CM^-^1)
Class: COBLENTZ III
Instrument: BECKMAN IR-9 (GRATING)
Instrument parameters: ORDER CHANGES: 670, 1200, 2000 CM^-^1
Sampling: TRANSMISSION
Path length: 0.011 CM, 0.011 CM
Resolution: 2
Origin: DOW CHEMICAL COMPANY
1/CM	TRANSMITTANCE
422	0.4677
431	0.5586
440	0.62
449	0.691
458	0.7299
467	0.7526
476	0.7658
485	0.8087
494	0.8291
503	0.8396
512	0.8475
521	0.8534
530	0.8559
539	0.8497
548	0.8617
557	0.8677
566	0.8703
575	0.8723
584	0.869
593	0.7751
602	0.8375
611	0.8644
620	0.8713
629	0.8701
638	0.8598
647	0.8423
656	0.8336
665	0.8418
674	0.8565
683	0.8703
692	0.8736
701	0.874
710	0.8749
719	0.8757
728	0.8616
737	0.8791
746	0.8855
755	0.89
764	0.8909
773	0.8868
782	0.8778
791	0.8705
800	0.8527
809	0.8507
818	0.8577
827	0.7818
836	0.8161
845	0.7504
854	0.7337
863	0.7201
872	0.7444
881	0.7069
890	0.8143
899	0.8425
908	0.8474
917	0.8393
926	0.8408
935	0.8385
944	0.7495
953	0.8361
962	0.8425
971	0.8108
980	0.6931
989	0.8024
998	0.7982
1007	0.6019
1016	0.7565
1025	0.7815
1034	0.825
1043	0.8253
1052	0.7937
1061	0.8225
1070	0.832
1079	0.8252
1088	0.77
1097	0.7325
1106	0.8213
1115	0.8367
1124	0.8378
1133	0.8378
1142	0.8275
1151	0.7594
1160	0.7042
1169	0.795
1178	0.8288
1187	0.8371
1196	0.8387
1205	0.8357
1214	0.8228
1223	0.806
1232	0.8076
1241	0.7868
1250	0.7628
1259	0.769
1268	0.7957
1277	0.8042
1286	0.7942
1295	0.7635
1304	0.7425
1313	0.7351
1322	0.7325
1331	0.8227
1340	0.8363
1349	0.8337
1358	0.7485
1367	0.6194
1376	0.4219
1385	0.4946
1394	0.786
1403	0.8101
1412	0.8245
1421	0.8128
1430	0.7895
1439	0.5286
1448	0.2357
1457	0.1684
1466	0.2582
1475	0.5776
1484	0.7208
1493	0.7633
1502	0.7562
1511	0.7267
1520	0.6856
1529	0.6388
1538	0.5685
1547	0.4788
1556	0.4649
1565	0.5417
1574	0.6081
1583	0.6298
1592	0.6807
1601	0.7599
1610	0.8058
1619	0.8309
1628	0.8471
1637	0.8596
1646	0.8678
1655	0.8727
1664	0.8767
1673	0.8803
1682	0.884
1691	0.8854
1700	0.8867
1709	0.8882
1718	0.8897
1727	0.891
1736	0.8921
1745	0.8925
1754	0.893
1763	0.8933
1772	0.8934
1781	0.893
1790	0.8927
1799	0.8924
1808	0.892
1817	0.8917
1826	0.8907
1835	0.8896
1844	0.8885
1853	0.8881
1862	0.8871
1871	0.8874
1880	0.8881
1889	0.8887
1898	0.8894
1907	0.8899
1916	0.8903
1925	0.8907
1934	0.891
1943	0.8913
1952	0.8913
1961	0.8912
1970	0.8911
1979	0.8903
1988	0.8892
1997	0.8767
2006	0.8832
2015	0.8901
2024	0.8916
2033	0.8909
2042	0.8901
2051	0.8895
2060	0.8897
2069	0.8902
2078	0.8906
2087	0.8905
2096	0.8904
2105	0.8902
2114	0.8901
2123	0.89
2132	0.8898
2141	0.8896
2150	0.8894
2159	0.8884
2168	0.8871
2177	0.8857
2186	0.8844
2195	0.8835
2204	0.8846
2213	0.8851
2222	0.885
2231	0.8845
2240	0.8833
2249	0.8805
2258	0.8764
2267	0.8718
2276	0.8664
2285	0.8604
2294	0.857
2303	0.8566
2312	0.8565
2321	0.8571
2330	0.8583
2339	0.8594
2348	0.8607
2357	0.8617
2366	0.8625
2375	0.8649
2384	0.8686
2393	0.8697
2402	0.8684
2411	0.8668
2420	0.8666
2429	0.8666
2438	0.867
2447	0.8673
2456	0.8671
2465	0.8671
2474	0.8674
2483	0.8675
2492	0.8671
2501	0.8661
2510	0.8658
2519	0.867
2528	0.8631
2537	0.8612
2546	0.8601
2555	0.8559
2564	0.8547
2573	0.8523
2582	0.8411
2591	0.8267
2600	0.8119
2609	0.8078
2618	0.8121
2627	0.8137
2636	0.8026
2645	0.7926
2654	0.7695
2663	0.7233
2672	0.7254
2681	0.764
2690	0.7889
2699	0.7926
2708	0.7899
2717	0.7762
2726	0.7754
2735	0.7997
2744	0.8105
2753	0.8028
2762	0.7999
2771	0.7995
2780	0.7821
2789	0.758
2798	0.7472
2807	0.7234
2816	0.6946
2825	0.6605
2834	0.5758
2843	0.3259
2852	0.0568
2861	0.0167
2870	0.0195
2879	0.0224
2888	0.0399
2897	0.051
2906	0.0304
2915	0.0102
2924	0.0054
2933	0.0028
2942	0.0024
2951	0.0102
2960	0.0099
2969	0.0099
2978	0.0972
2987	0.4538
2996	0.5396
3005	0.6684
3014	0.7392
3023	0.7684
3032	0.7928
3041	0.8108
3050	0.8225
3059	0.8277
3068	0.8307
3077	0.8327
3086	0.8336
3095	0.8347
3104	0.8354
3113	0.8356
3122	0.8353
3131	0.8347
3140	0.8342
3149	0.8336
3158	0.8331
3167	0.8333
3176	0.8336
3185	0.8356
3194	0.8375
3203	0.8403
3212	0.8428
3221	0.8453
3230	0.8462
3239	0.8466
3248	0.847
3257	0.8475
3266	0.8482
3275	0.8485
3284	0.8487
3293	0.849
3302	0.8494
3311	0.8496
3320	0.8503
3329	0.851
3338	0.8517
3347	0.8517
3356	0.8516
3365	0.8516
3374	0.8518
3383	0.852
3392	0.8521
3401	0.8524
3410	0.8525
3419	0.8527
3428	0.8528
3437	0.8531
3446	0.8534
3455	0.8536
3464	0.8537
3473	0.8536
3482	0.8536
3491	0.8541
3500	0.8546
3509	0.8552
3518	0.8558
3527	0.8571
3536	0.8583
3545	0.8587
3554	0.8575
3563	0.8539
3572	0.8574
3581	0.8602
3590	0.8563
3599	0.8574
3608	0.8654
3617	0.8602
3626	0.8631
3635	0.8683
3644	0.8693
3653	0.8689
3662	0.8687
3671	0.8684
3680	0.8683
3689	0.8684
3698	0.8684
3707	0.8683
3716	0.8678
3725	0.8673
3734	0.8641
3743	0.8613
3752	0.8608
3761	0.8611
3770	0.8621
3779	0.8632
3788	0.8638
3797	0.8643
