Infrared Spectrum: ETHYLENEDIAMINE, N-[3-(DIMETHOXYMETHYLSILYL)-2-METHYLPROPYL]-
Formula: C9 H24 N2 O2 Si
CAS: 23410-40-4
State: SOLUTION (10% CCl4 FOR 3800-400 CM^-^1)
Class: COBLENTZ
Instrument: DOW KBr FOREPRISM-GRATING
Instrument parameters: BLAZED AT 3.5, 12.0, 20.0 MICRON AND CHANGED AT 5.0, 7.5, 14.9 MICRON
Sampling: TRANSMISSION
Path length: 0.011 CM
Resolution: 2
Origin: DOW CHEMICAL COMPANY
1/CM	TRANSMITTANCE
392	0.5452
401	0.5491
410	0.5643
419	0.5859
428	0.6088
437	0.6367
446	0.6764
455	0.7137
464	0.7357
473	0.7381
482	0.7578
491	0.816
500	0.8573
509	0.8736
518	0.8817
527	0.8666
536	0.8571
545	0.8793
554	0.8873
563	0.8873
572	0.8877
581	0.8958
590	0.8957
599	0.8946
608	0.8881
617	0.8581
626	0.8067
635	0.8353
644	0.8037
653	0.7794
662	0.7751
671	0.7553
680	0.7147
689	0.6482
698	0.5919
707	0.5309
716	0.4484
725	0.2175
734	0.0872
743	0.0043
752	0.0021
761	0.0007
770	0.0003
779	0.0005
788	0.0009
797	0.0015
806	0.0028
815	0.0036
824	0.0357
833	0.1068
842	0.1199
851	0.1768
860	0.2927
869	0.4275
878	0.5247
887	0.6073
896	0.6482
905	0.6706
914	0.6718
923	0.6984
932	0.7037
941	0.7036
950	0.7146
959	0.7053
968	0.6649
977	0.5914
986	0.5693
995	0.5351
1004	0.3794
1013	0.2634
1022	0.1829
1031	0.1215
1040	0.0726
1049	0.0566
1058	0.0628
1067	0.0578
1076	0.0455
1085	0.0292
1094	0.0172
1103	0.0326
1112	0.08
1121	0.1628
1130	0.2738
1139	0.3505
1148	0.4366
1157	0.5194
1166	0.5535
1175	0.5502
1184	0.4624
1193	0.3436
1202	0.4041
1211	0.4427
1220	0.3943
1229	0.449
1238	0.5575
1247	0.516
1256	0.2808
1265	0.218
1274	0.688
1283	0.7351
1292	0.7384
1301	0.7044
1310	0.7347
1319	0.7738
1328	0.7688
1337	0.7181
1346	0.6897
1355	0.6996
1364	0.6694
1373	0.6478
1382	0.5938
1391	0.6547
1400	0.6131
1409	0.5651
1418	0.6093
1427	0.6447
1436	0.5839
1445	0.485
1454	0.4329
1463	0.3766
1472	0.4657
1481	0.5779
1490	0.7028
1499	0.6978
1508	0.6662
1517	0.6303
1526	0.578
1535	0.5175
1544	0.4376
1553	0.3816
1562	0.3646
1571	0.4368
1580	0.4999
1589	0.5223
1598	0.5616
1607	0.5788
1616	0.7203
1625	0.7755
1634	0.8085
1643	0.8353
1652	0.8504
1661	0.8494
1670	0.856
1679	0.8709
1688	0.8918
1697	0.9118
1706	0.9253
1715	0.935
1724	0.9403
1733	0.9424
1742	0.9412
1751	0.9391
1760	0.9373
1769	0.9362
1778	0.9337
1787	0.9302
1796	0.923
1805	0.9178
1814	0.9112
1823	0.9103
1832	0.9111
1841	0.9118
1850	0.9121
1859	0.9113
1868	0.9112
1877	0.9112
1886	0.9104
1895	0.9091
1904	0.9074
1913	0.906
1922	0.9053
1931	0.906
1940	0.9067
1949	0.9075
1958	0.9091
1967	0.9094
1976	0.906
1985	0.903
1994	0.9011
2003	0.8948
2012	0.8891
2021	0.8871
2030	0.8855
2039	0.8838
2048	0.8827
2057	0.8815
2066	0.88
2075	0.8801
2084	0.8803
2093	0.8804
2102	0.8799
2111	0.879
2120	0.8771
2129	0.8751
2138	0.8728
2147	0.8705
2156	0.8688
2165	0.8671
2174	0.8657
2183	0.8647
2192	0.8639
2201	0.8647
2210	0.8654
2219	0.865
2228	0.8639
2237	0.8631
2246	0.8618
2255	0.8594
2264	0.8571
2273	0.854
2282	0.8501
2291	0.8456
2300	0.8444
2309	0.8461
2318	0.8468
2327	0.8464
2336	0.8457
2345	0.8447
2354	0.8436
2363	0.842
2372	0.8404
2381	0.8386
2390	0.8368
2399	0.8345
2408	0.8318
2417	0.8292
2426	0.826
2435	0.8221
2444	0.8185
2453	0.8147
2462	0.8105
2471	0.8058
2480	0.8011
2489	0.7964
2498	0.7921
2507	0.7881
2516	0.7843
2525	0.7803
2534	0.7765
2543	0.7728
2552	0.7692
2561	0.7648
2570	0.7591
2579	0.7537
2588	0.7487
2597	0.7437
2606	0.7387
2615	0.7333
2624	0.7278
2633	0.7226
2642	0.7175
2651	0.7125
2660	0.706
2669	0.6983
2678	0.6903
2687	0.6818
2696	0.6725
2705	0.6557
2714	0.6397
2723	0.6234
2732	0.6033
2741	0.583
2750	0.5647
2759	0.5475
2768	0.5271
2777	0.5007
2786	0.4572
2795	0.3948
2804	0.2969
2813	0.2474
2822	0.2178
2831	0.2079
2840	0.1406
2849	0.2397
2858	0.2444
2867	0.2305
2876	0.1789
2885	0.1698
2894	0.1592
2903	0.1309
2912	0.1313
2921	0.1324
2930	0.1192
2939	0.1077
2948	0.1059
2957	0.1137
2966	0.1182
2975	0.1491
2984	0.2784
2993	0.4141
3002	0.4628
3011	0.5151
3020	0.5479
3029	0.566
3038	0.5765
3047	0.5841
3056	0.5907
3065	0.5926
3074	0.593
3083	0.5926
3092	0.5896
3101	0.586
3110	0.5825
3119	0.578
3128	0.5727
3137	0.5669
3146	0.5608
3155	0.5543
3164	0.5464
3173	0.5385
3182	0.5309
3191	0.5232
3200	0.518
3209	0.5136
3218	0.5093
3227	0.5055
3236	0.502
3245	0.4982
3254	0.4944
3263	0.4906
3272	0.4883
3281	0.4862
3290	0.4854
3299	0.4851
3308	0.4862
3317	0.4885
3326	0.4927
3335	0.4986
3344	0.5072
3353	0.5132
3362	0.5147
3371	0.5156
3380	0.5167
3389	0.5251
3398	0.5348
3407	0.5435
3416	0.5517
3425	0.5597
3434	0.5684
3443	0.5777
3452	0.5868
3461	0.5957
3470	0.6046
3479	0.6145
3488	0.6245
3497	0.635
3506	0.6461
3515	0.6572
3524	0.6674
3533	0.6771
3542	0.6868
3551	0.6961
3560	0.7051
3569	0.7139
3578	0.7215
3587	0.7237
3596	0.7241
3605	0.7222
3614	0.7162
3623	0.7061
3632	0.6896
3641	0.6765
3650	0.6992
3659	0.7189
3668	0.7215
3677	0.7235
3686	0.7262
3695	0.7287
3704	0.7298
3713	0.7293
3722	0.7287
3731	0.7278
3740	0.7271
3749	0.7265
3758	0.7265
3767	0.7265
3776	0.7265
3785	0.7265
3794	0.7264
