Infrared Spectrum: Ethylenediamine, N-[3-(dimethoxymethylsilyl)-2-methylpropyl]-
Formula: C9 H24 N2 O2 Si
CAS: 23410-40-4
State: LIQUID (NEAT)
Class: COBLENTZ III
Instrument: DOW KBr FOREPRISM-GRATING
Instrument parameters: BLAZED AT 3.5, 12.0, 20.0 MICRON AND CHANGED AT 5.0, 7.5, 14.9 MICRON
Sampling: TRANSMISSION
Path length: CAPILLARY
Resolution: 2
Origin: DOW CHEMICAL COMPANY
1/CM	TRANSMITTANCE
3800	0.8914
3791	0.891
3782	0.8907
3773	0.8901
3764	0.8894
3755	0.8888
3746	0.8882
3737	0.8874
3728	0.8866
3719	0.8858
3710	0.8847
3701	0.8836
3692	0.8825
3683	0.8812
3674	0.8793
3665	0.8774
3656	0.8755
3647	0.8733
3638	0.8711
3629	0.8677
3620	0.8641
3611	0.859
3602	0.8525
3593	0.8453
3584	0.8365
3575	0.8293
3566	0.821
3557	0.8097
3548	0.8007
3539	0.7901
3530	0.7798
3521	0.7691
3512	0.7585
3503	0.7458
3494	0.7326
3485	0.7182
3476	0.704
3467	0.6903
3458	0.6765
3449	0.6621
3440	0.6475
3431	0.6323
3422	0.6167
3413	0.6016
3404	0.5866
3395	0.5728
3386	0.5589
3377	0.5437
3368	0.5283
3359	0.5212
3350	0.519
3341	0.5164
3332	0.5106
3323	0.5016
3314	0.4903
3305	0.4802
3296	0.4795
3287	0.4859
3278	0.4928
3269	0.4981
3260	0.5025
3251	0.5065
3242	0.5087
3233	0.5102
3224	0.5118
3215	0.5137
3206	0.5157
3197	0.5187
3188	0.5242
3179	0.5319
3170	0.5394
3161	0.5464
3152	0.5533
3143	0.5587
3134	0.5642
3125	0.5696
3116	0.5747
3107	0.5781
3098	0.5815
3089	0.5845
3080	0.5872
3071	0.5885
3062	0.5895
3053	0.5887
3044	0.5869
3035	0.5839
3026	0.5789
3017	0.571
3008	0.555
2999	0.5203
2990	0.4576
2981	0.3158
2972	0.2519
2963	0.213
2954	0.2115
2945	0.2144
2936	0.2219
2927	0.2296
2918	0.228
2909	0.2235
2900	0.2403
2891	0.253
2882	0.2614
2873	0.2851
2864	0.3134
2855	0.3234
2846	0.2885
2837	0.2557
2828	0.3007
2819	0.3096
2810	0.3336
2801	0.3852
2792	0.4473
2783	0.478
2774	0.5046
2765	0.536
2756	0.5558
2747	0.5756
2738	0.6058
2729	0.6259
2720	0.6401
2711	0.6567
2702	0.6703
2693	0.6815
2684	0.6915
2675	0.6991
2666	0.7062
2657	0.7118
2648	0.7168
2639	0.7208
2630	0.7242
2621	0.7264
2612	0.7287
2603	0.7308
2594	0.7342
2585	0.7375
2576	0.7418
2567	0.7462
2558	0.7504
2549	0.7544
2540	0.7584
2531	0.7624
2522	0.7668
2513	0.7715
2504	0.7762
2495	0.7808
2486	0.7853
2477	0.7897
2468	0.794
2459	0.7985
2450	0.803
2441	0.8075
2432	0.8119
2423	0.8156
2414	0.8183
2405	0.821
2396	0.8236
2387	0.8261
2378	0.8286
2369	0.8309
2360	0.8333
2351	0.8356
2342	0.8377
2333	0.8394
2324	0.8412
2315	0.8428
2306	0.8443
2297	0.8454
2288	0.8459
2279	0.8461
2270	0.8463
2261	0.8463
2252	0.8461
2243	0.8458
2234	0.8453
2225	0.8447
2216	0.8449
2207	0.8452
2198	0.845
2189	0.8446
2180	0.8442
2171	0.8443
2162	0.8451
2153	0.8459
2144	0.8467
2135	0.8475
2126	0.8488
2117	0.85
2108	0.8521
2099	0.8528
2090	0.8525
2081	0.8525
2072	0.853
2063	0.8534
2054	0.8548
2045	0.8565
2036	0.8585
2027	0.861
2018	0.8627
2009	0.864
2000	0.8657
1991	0.8681
1982	0.87
1973	0.8724
1964	0.8721
1955	0.8647
1946	0.8675
1937	0.8673
1928	0.8668
1919	0.8651
1910	0.8657
1901	0.8664
1892	0.8671
1883	0.868
1874	0.8687
1865	0.8684
1856	0.8678
1847	0.8675
1838	0.8675
1829	0.8675
1820	0.8673
1811	0.867
1802	0.8671
1793	0.8691
1784	0.8709
1775	0.8711
1766	0.8712
1757	0.8711
1748	0.8708
1739	0.87
1730	0.8691
1721	0.8683
1712	0.8648
1703	0.8559
1694	0.8411
1685	0.8208
1676	0.7995
1667	0.7798
1658	0.7688
1649	0.7631
1640	0.7548
1631	0.7436
1622	0.7221
1613	0.6692
1604	0.5907
1595	0.6086
1586	0.6329
1577	0.6554
1568	0.6757
1559	0.696
1550	0.7136
1541	0.7304
1532	0.7391
1523	0.7396
1514	0.7331
1505	0.7099
1496	0.6618
1487	0.5995
1478	0.537
1469	0.4746
1460	0.4319
1451	0.4739
1442	0.5228
1433	0.5765
1424	0.6245
1415	0.61
1406	0.6018
1397	0.6285
1388	0.6191
1379	0.5875
1370	0.6255
1361	0.6418
1352	0.6503
1343	0.6278
1334	0.6601
1325	0.6906
1316	0.6572
1307	0.6318
1298	0.6458
1289	0.6581
1280	0.6655
1271	0.5641
1262	0.3024
1253	0.5095
1244	0.6329
1235	0.6347
1226	0.541
1217	0.538
1208	0.5594
1199	0.5162
1190	0.4756
1181	0.5389
1172	0.569
1163	0.5668
1154	0.5435
1145	0.4969
1136	0.4225
1127	0.3562
1118	0.2826
1109	0.1851
1100	0.1375
1091	0.1332
1082	0.1466
1073	0.1569
1064	0.1632
1055	0.1609
1046	0.1496
1037	0.159
1028	0.2189
1019	0.3271
1010	0.4439
1001	0.5568
992	0.617
983	0.654
974	0.6601
965	0.6564
956	0.6465
947	0.6329
938	0.614
929	0.5853
920	0.5637
911	0.5647
902	0.575
893	0.5817
884	0.577
875	0.5243
866	0.4584
857	0.3924
848	0.3271
839	0.3003
830	0.3065
821	0.3183
812	0.3268
803	0.2831
794	0.2309
785	0.2673
776	0.3338
767	0.3986
758	0.4717
749	0.5485
740	0.5658
731	0.5688
722	0.6191
713	0.6453
704	0.6567
695	0.6801
686	0.7098
677	0.7301
668	0.7387
659	0.7339
650	0.7271
641	0.7451
632	0.7611
623	0.7701
614	0.7794
605	0.785
596	0.7862
587	0.7874
578	0.7887
569	0.79
560	0.7911
551	0.7918
542	0.7924
533	0.793
524	0.7931
515	0.7922
506	0.789
497	0.7857
488	0.7811
479	0.7733
470	0.7617
461	0.7437
452	0.7084
443	0.6633
434	0.6265
425	0.6018
416	0.5848
407	0.5687
398	0.56
