Infrared Spectrum: 8-Azabicyclo[3.2.1]octane, N-methyl-, hydrochloride
Formula: C8 H16 Cl N
CAS: 23555-06-8
State: SOLID (KBr DISC, 1% WT.)
Class: COBLENTZ III
Instrument: PERKIN-ELMER 157
Sampling: TRANSMISSION
Resolution: 2
Origin: BRITISH PETROLEUM CO. LTD., ENGLAND
1/CM	TRANSMITTANCE
667	0.9257
676	0.8951
685	0.8907
694	0.8842
703	0.8763
712	0.8491
721	0.7279
730	0.643
739	0.8491
748	0.8457
757	0.8402
766	0.8149
775	0.6139
784	0.8214
793	0.8072
802	0.8013
811	0.7888
820	0.8135
829	0.809
838	0.7886
847	0.6905
856	0.2748
865	0.6675
874	0.7728
883	0.693
892	0.7222
901	0.7766
910	0.7542
919	0.7131
928	0.6475
937	0.4444
946	0.0666
955	0.456
964	0.6979
973	0.6161
982	0.606
991	0.7304
1000	0.7102
1009	0.6759
1018	0.5492
1027	0.1027
1036	0.4981
1045	0.6773
1054	0.6392
1063	0.3253
1072	0.4691
1081	0.2794
1090	0.2738
1099	0.6711
1108	0.7036
1117	0.6618
1126	0.4837
1135	0.6362
1144	0.5533
1153	0.3454
1162	0.6106
1171	0.5947
1180	0.4357
1189	0.6503
1198	0.6761
1207	0.6495
1216	0.5652
1225	0.5963
1234	0.4563
1243	0.5813
1252	0.4372
1261	0.3662
1270	0.5889
1279	0.5934
1288	0.6013
1297	0.567
1306	0.5878
1315	0.5579
1324	0.5057
1333	0.5239
1342	0.4578
1351	0.2048
1360	0.195
1369	0.524
1378	0.4849
1387	0.2443
1396	0.1994
1405	0.3976
1414	0.3786
1423	0.1625
1432	0.2494
1441	0.2247
1450	0.1016
1459	0.1022
1468	0.1203
1477	0.0582
1486	0.1891
1495	0.4901
1504	0.6619
1513	0.687
1522	0.6924
1531	0.6934
1540	0.694
1549	0.6948
1558	0.6948
1567	0.694
1576	0.6932
1585	0.6908
1594	0.6673
1603	0.6465
1612	0.6195
1621	0.6026
1630	0.6052
1639	0.6134
1648	0.6287
1657	0.6456
1666	0.6718
1675	0.6906
1684	0.6951
1693	0.7055
1702	0.7093
1711	0.7102
1720	0.713
1729	0.7161
1738	0.7157
1747	0.7151
1756	0.7195
1765	0.7283
1774	0.7327
1783	0.733
1792	0.7331
1801	0.7332
1810	0.7333
1819	0.7332
1828	0.7318
1837	0.7267
1846	0.7205
1855	0.716
1864	0.7135
1873	0.7111
1882	0.711
1891	0.7115
1900	0.7104
1909	0.7064
1918	0.7
1927	0.6958
1936	0.6875
1945	0.6834
1954	0.6821
1963	0.682
1972	0.6822
1981	0.6813
1990	0.6786
1999	0.6729
2008	0.663
2017	0.6505
2026	0.6478
2035	0.6461
2044	0.6434
2053	0.6398
2062	0.6343
2071	0.6293
2080	0.6282
2089	0.6273
2098	0.6256
2107	0.6161
2116	0.6045
2125	0.6023
2134	0.5987
2143	0.5902
2152	0.5804
2161	0.5712
2170	0.5639
2179	0.5576
2188	0.5542
2197	0.5508
2206	0.5471
2215	0.5453
2224	0.5438
2233	0.5426
2242	0.5338
2251	0.5214
2260	0.5093
2269	0.4974
2278	0.4867
2287	0.4752
2296	0.4627
2305	0.443
2314	0.4124
2323	0.3795
2332	0.3478
2341	0.3364
2350	0.3284
2359	0.322
2368	0.3192
2377	0.3181
2386	0.3167
2395	0.3068
2404	0.2902
2413	0.2708
2422	0.2208
2431	0.1889
2440	0.1727
2449	0.157
2458	0.0983
2467	0.0838
2476	0.0818
2485	0.0814
2494	0.0795
2503	0.0748
2512	0.0641
2521	0.0548
2530	0.0458
2539	0.0381
2548	0.0328
2557	0.0307
2566	0.0301
2575	0.0299
2584	0.0304
2593	0.0342
2602	0.0401
2611	0.0423
2620	0.0426
2629	0.0426
2638	0.0424
2647	0.0417
2656	0.0284
2665	0.0224
2674	0.0215
2683	0.0216
2692	0.0217
2701	0.0223
2710	0.0246
2719	0.0378
2728	0.0406
2737	0.0416
2746	0.0476
2755	0.0579
2764	0.0608
2773	0.0588
2782	0.0496
2791	0.0432
2800	0.0422
2809	0.0423
2818	0.0426
2827	0.0433
2836	0.0435
2845	0.0436
2854	0.0435
2863	0.0434
2872	0.0431
2881	0.0422
2890	0.0401
2899	0.038
2908	0.0361
2917	0.0346
2926	0.0341
2935	0.0341
2944	0.0352
2953	0.0565
2962	0.0933
2971	0.1137
2980	0.1551
2989	0.1966
2998	0.2381
3007	0.3089
3016	0.3487
3025	0.3742
3034	0.4318
3043	0.4633
3052	0.4797
3061	0.492
3070	0.5026
3079	0.5109
3088	0.5158
3097	0.5183
3106	0.5211
3115	0.5195
3124	0.5186
3133	0.5172
3142	0.5129
3151	0.5076
3160	0.5015
3169	0.4943
3178	0.4866
3187	0.4794
3196	0.4726
3205	0.4644
3214	0.456
3223	0.4482
3232	0.4396
3241	0.4305
3250	0.422
3259	0.4135
3268	0.4028
3277	0.3935
3286	0.3854
3295	0.3768
3304	0.3665
3313	0.3558
3322	0.3448
3331	0.3364
3340	0.3284
3349	0.3178
3358	0.3067
3367	0.3006
3376	0.2971
3385	0.2945
3394	0.2932
3403	0.2924
3412	0.2922
3421	0.292
3430	0.292
3439	0.2934
3448	0.2959
3457	0.2998
3466	0.3096
3475	0.3195
3484	0.3312
3493	0.3429
3502	0.3546
3511	0.3675
3520	0.378
3529	0.3855
3538	0.3918
3547	0.3994
3556	0.4422
3565	0.4539
3574	0.4808
3583	0.5073
3592	0.5197
3601	0.5329
3610	0.5417
3619	0.5475
3628	0.553
3637	0.5573
3646	0.5608
3655	0.5629
3664	0.5648
3673	0.5658
3682	0.566
3691	0.5661
3700	0.5659
3709	0.5657
3718	0.5632
3727	0.5588
3736	0.5582
3745	0.5579
3754	0.5582
3763	0.5584
3772	0.5589
3781	0.5596
3790	0.5597
3799	0.5595
3808	0.5584
3817	0.5555
3826	0.5518
3835	0.5487
3844	0.5457
3853	0.5427
3862	0.54
3871	0.5378
3880	0.5355
3889	0.5336
3898	0.5323
3907	0.5309
3916	0.5305
3925	0.5303
3934	0.5303
3943	0.5303
3952	0.5305
3961	0.5307
3970	0.5309
3979	0.5312
3988	0.5315
3997	0.5317
