Infrared Spectrum: AZODICARBOXYLIC ACID, DIMETHYL ESTER
Formula: C4 H6 N2 O4
CAS: 2446-84-6
State: LIQUID (NEAT)
Class: COBLENTZ III
Instrument: PERKIN-ELMER 521 (GRATING)
Sampling: TRANSMISSION
Path length: CAPILLARY
Resolution: 4
Origin: STANDARD OIL OF OHIO
1/CM	TRANSMITTANCE
201.761	0
211.824	0
221.887	0
231.95	0
242.013	0
252.076	0
262.138	0
272.201	0
282.264	0.011
292.327	0.011
302.39	0.016
312.453	0.016
322.516	0.018
332.579	0.02
342.642	0.02
352.705	0.032
362.768	0
372.83	0
382.893	0
392.956	0
403.019	0
413.082	0
423.145	0.048
433.208	0.018
443.271	0.033
453.334	0.056
463.397	0.068
473.46	0.083
483.523	0.086
493.585	0.093
503.648	0.12
513.711	0.157
523.774	0.21
533.837	0.264
543.9	0.325
553.963	0.397
564.026	0.451
574.089	0.508
584.152	0.563
594.215	0.623
604.277	0.678
614.34	0.712
624.403	0.738
634.466	0.773
644.529	0.808
654.592	0.848
664.655	0.872
674.718	0.882
684.781	0.887
694.844	0.902
704.907	0.911
714.969	0.913
725.032	0.916
735.095	0.913
745.158	0.911
755.221	0.902
765.284	0.891
775.347	0.866
785.41	0.802
795.473	0.697
805.536	0.511
815.599	0.688
825.661	0.688
835.724	0.862
845.787	0.866
855.85	0.812
865.913	0.5709
875.976	0.377
886.039	0.672
896.102	0.833
906.165	0.879
916.228	0.904
926.291	0.912
936.354	0.921
946.416	0.928
956.479	0.929
966.542	0.917
976.605	0.883
986.668	0.73
996.731	0.519
1006.79	0.504
1016.86	0.609
1026.92	0.778
1036.98	0.873
1047.05	0.912
1057.11	0.914
1067.17	0.914
1077.23	0.913
1087.3	0.912
1097.36	0.912
1107.42	0.901
1117.49	0.888
1127.55	0.858
1137.61	0.795
1147.67	0.762
1157.74	0.734
1167.8	0.698
1177.86	0.603
1187.93	0.406
1197.99	0.47
1208.05	0.441
1218.12	0.3309
1228.18	0.15
1238.24	0.071
1248.3	0.066
1258.37	0.088
1268.43	0.117
1278.49	0.15
1288.56	0.201
1298.62	0.305
1308.68	0.453
1318.74	0.564
1328.81	0.66
1338.87	0.737
1348.93	0.804
1359	0.849
1369.06	0.867
1379.12	0.878
1389.18	0.878
1399.25	0.874
1409.31	0.859
1419.37	0.782
1429.44	0.6139
1439.5	0.235
1449.56	0.469
1459.62	0.541
1469.69	0.673
1479.75	0.758
1489.81	0.811
1499.88	0.839
1509.94	0.863
1520	0.876
1530.07	0.886
1540.13	0.892
1550.19	0.896
1560.25	0.899
1570.32	0.906
1580.38	0.908
1590.44	0.912
1600.51	0.912
1610.57	0.908
1620.63	0.904
1630.69	0.908
1640.76	0.911
1650.82	0.911
1660.88	0.914
1670.95	0.911
1681.01	0.904
1691.07	0.891
1701.13	0.872
1711.2	0.844
1721.26	0.782
1731.32	0.659
1741.39	0.619
1751.45	0.509
1761.51	0.3039
1771.58	0.086
1781.64	0.046
1791.7	0.076
1801.76	0.2171
1811.83	0.474
1821.89	0.568
1831.95	0.6581
1842.02	0.768
1852.08	0.832
1862.14	0.853
1872.2	0.871
1882.27	0.891
1892.33	0.911
1902.39	0.926
1912.46	0.936
1922.52	0.941
1932.58	0.942
1942.64	0.944
1952.71	0.946
1962.77	0.947
1972.83	0.946
1982.9	0.947
1992.96	0.941
2003.02	0.941
2013.09	0.941
2023.15	0.944
2033.21	0.944
2043.27	0.9415
2053.34	0.9345
2063.4	0.932
2073.46	0.933
2083.53	0.934
2093.59	0.934
2103.65	0.933
2113.71	0.933
2123.78	0.932
2133.84	0.9285
2143.9	0.9265
2153.97	0.9299
2164.03	0.941
2174.09	0.9465
2184.15	0.948
2194.22	0.951
2204.28	0.9525
2214.34	0.952
2224.41	0.952
2234.47	0.954
2244.53	0.956
2254.59	0.956
2264.66	0.956
2274.72	0.956
2284.78	0.956
2294.85	0.957
2304.91	0.956
2314.97	0.956
2325.04	0.956
2335.1	0.956
2345.16	0.956
2355.22	0.9552
2365.29	0.956
2375.35	0.9564
2385.41	0.9564
2395.48	0.957
2405.54	0.957
2415.6	0.9552
2425.66	0.953
2435.73	0.951
2445.79	0.949
2455.85	0.947
2465.92	0.9416
2475.98	0.9386
2486.04	0.937
2496.1	0.9414
2506.17	0.942
2516.23	0.944
2526.29	0.949
2536.36	0.949
2546.42	0.951
2556.48	0.952
2566.55	0.953
2576.61	0.952
2586.67	0.9516
2596.73	0.9503
2606.8	0.949
2616.86	0.951
2626.92	0.952
2636.99	0.953
2647.05	0.954
2657.11	0.9547
2667.17	0.958
2677.24	0.958
2687.3	0.958
2697.36	0.958
2707.43	0.958
2717.49	0.958
2727.55	0.9574
2737.61	0.958
2747.68	0.958
2757.74	0.958
2767.8	0.958
2777.87	0.958
2787.93	0.957
2797.99	0.957
2808.06	0.9567
2818.12	0.956
2828.18	0.9527
2838.24	0.9448
2848.31	0.906
2858.37	0.9208
2868.43	0.941
2878.5	0.938
2888.56	0.9267
2898.62	0.926
2908.68	0.9323
2918.75	0.933
2928.81	0.9277
2938.87	0.9165
2948.94	0.8736
2959	0.6903
2969.06	0.6435
2979.12	0.8551
2989.19	0.906
2999.25	0.8974
3009.31	0.8712
3019.38	0.8583
3029.44	0.866
3039.5	0.8891
3049.56	0.9026
3059.63	0.9209
3069.69	0.941
3079.75	0.9473
3089.82	0.9513
3099.88	0.957
3109.94	0.9587
3120.01	0.959
3130.07	0.961
3140.13	0.963
3150.19	0.964
3160.26	0.964
3170.32	0.966
3180.38	0.966
3190.45	0.966
3200.51	0.964
3210.57	0.9613
3220.63	0.964
3230.7	0.966
3240.76	0.9672
3250.82	0.968
3260.89	0.9682
3270.95	0.971
3281.01	0.971
3291.07	0.971
3301.14	0.971
3311.2	0.971
3321.26	0.971
3331.33	0.971
3341.39	0.971
3351.45	0.971
3361.52	0.971
3371.58	0.971
3381.64	0.971
3391.7	0.969
3401.77	0.969
3411.83	0.969
3421.89	0.969
3431.96	0.9706
3442.02	0.969
3452.08	0.969
3462.14	0.969
3472.21	0.967
3482.27	0.966
3492.33	0.964
3502.4	0.9576
3512.46	0.9459
3522.52	0.9265
3532.58	0.9172
3542.65	0.9271
3552.71	0.9439
3562.77	0.952
3572.84	0.9518
3582.9	0.9513
3592.96	0.9632
3603.03	0.964
3613.09	0.966
3623.15	0.964
3633.21	0.964
3643.28	0.964
3653.34	0.961
3663.4	0.961
3673.47	0.964
3683.53	0.967
3693.59	0.973
3703.65	0.974
3713.72	0.974
3723.78	0.974
3733.84	0.974
3743.91	0.974
3753.97	0.974
3764.03	0.974
3774.09	0.974
3784.16	0.974
3794.22	0.974
3804.28	0.974
3814.35	0.976
3824.41	0.974
3834.47	0.974
3844.53	0.9731
3854.6	0.974
3864.66	0.974
3874.72	0.974
3884.79	0.973
3894.85	0.974
3904.91	0.974
3914.98	0.973
3925.04	0.973
3935.1	0.973
3945.16	0.973
3955.23	0.9729
3965.29	0.972
3975.35	0.972
3985.42	0.972
3995.48	0.9708
