Infrared Spectrum: Coumarin, 8-methoxy-
Formula: C10 H8 O3
CAS: 2445-81-0
State: SOLID (OIL MULL)
Class: COBLENTZ III
Instrument: CARY 90 (GRATING)
Instrument parameters: GRATING CHANGES: 3000, 2000, 1200 CM^-^1
Sampling: TRANSMISSION
Resolution: 2
Origin: WESTERN REGIONAL RES. USDA
1/CM	TRANSMITTANCE
454	0.9314
463	0.945
472	0.9561
481	0.9605
490	0.9621
499	0.959
508	0.9374
517	0.8162
526	0.9584
535	0.9612
544	0.9173
553	0.9639
562	0.9744
571	0.9798
580	0.9888
589	0.983
598	0.9839
607	0.9859
616	0.9831
625	0.98
634	0.9772
643	0.9761
652	0.9736
661	0.9716
670	0.9705
679	0.9595
688	0.9434
697	0.8764
706	0.8922
715	0.9594
724	0.9446
733	0.9258
742	0.8185
751	0.7689
760	0.9557
769	0.9652
778	0.9627
787	0.8718
796	0.8969
805	0.9491
814	0.923
823	0.5113
832	0.6302
841	0.9054
850	0.937
859	0.9448
868	0.9444
877	0.9409
886	0.9337
895	0.9272
904	0.9235
913	0.8179
922	0.791
931	0.862
940	0.9306
949	0.9341
958	0.9234
967	0.8932
976	0.8819
985	0.9278
994	0.8273
1003	0.9191
1012	0.9074
1021	0.8945
1030	0.8873
1039	0.8827
1048	0.8693
1057	0.8418
1066	0.7614
1075	0.3993
1084	0.44
1093	0.6973
1102	0.9098
1111	0.9142
1120	0.9291
1129	0.9234
1138	0.8681
1147	0.8839
1156	0.8917
1165	0.7846
1174	0.5786
1183	0.8345
1192	0.9095
1201	0.8594
1210	0.8328
1219	0.8717
1228	0.8562
1237	0.7796
1246	0.7155
1255	0.698
1264	0.7511
1273	0.485
1282	0.462
1291	0.845
1300	0.9019
1309	0.8984
1318	0.8927
1327	0.8804
1336	0.8495
1345	0.802
1354	0.8485
1363	0.8164
1372	0.7258
1381	0.664
1390	0.7986
1399	0.7684
1408	0.7161
1417	0.8629
1426	0.826
1435	0.6853
1444	0.4584
1453	0.4466
1462	0.2713
1471	0.3771
1480	0.6608
1489	0.8525
1498	0.8809
1507	0.888
1516	0.8786
1525	0.8627
1534	0.8542
1543	0.8452
1552	0.8251
1561	0.7478
1570	0.3987
1579	0.8
1588	0.823
1597	0.7308
1606	0.5097
1615	0.7282
1624	0.8023
1633	0.8678
1642	0.8416
1651	0.8003
1660	0.7618
1669	0.7164
1678	0.6658
1687	0.5741
1696	0.4176
1705	0.21
1714	0.2029
1723	0.215
1732	0.4816
1741	0.7468
1750	0.7336
1759	0.8253
1768	0.8986
1777	0.9313
1786	0.9354
1795	0.9341
1804	0.9279
1813	0.9386
1822	0.9425
1831	0.9401
1840	0.9358
1849	0.9339
1858	0.9334
1867	0.9331
1876	0.9332
1885	0.9344
1894	0.9335
1903	0.9294
1912	0.9256
1921	0.9228
1930	0.9197
1939	0.915
1948	0.9108
1957	0.9083
1966	0.907
1975	0.9062
1984	0.9041
1993	0.8995
2002	0.8937
2011	0.8909
2020	0.8882
2029	0.8856
2038	0.8832
2047	0.8801
2056	0.8811
2065	0.8845
2074	0.886
2083	0.885
2092	0.8831
2101	0.8806
2110	0.8788
2119	0.8774
2128	0.8771
2137	0.8759
2146	0.8749
2155	0.8738
2164	0.8727
2173	0.8715
2182	0.8704
2191	0.869
2200	0.8677
2209	0.8663
2218	0.8649
2227	0.8634
2236	0.8619
2245	0.8599
2254	0.8579
2263	0.8558
2272	0.8537
2281	0.8516
2290	0.8497
2299	0.8477
2308	0.8458
2317	0.844
2326	0.8425
2335	0.8409
2344	0.8394
2353	0.8381
2362	0.8374
2371	0.8379
2380	0.837
2389	0.8359
2398	0.8337
2407	0.8312
2416	0.8289
2425	0.8279
2434	0.8273
2443	0.8293
2452	0.83
2461	0.8292
2470	0.8281
2479	0.8267
2488	0.8255
2497	0.824
2506	0.8226
2515	0.8208
2524	0.8179
2533	0.815
2542	0.8119
2551	0.8095
2560	0.8106
2569	0.8124
2578	0.8102
2587	0.8073
2596	0.8056
2605	0.8034
2614	0.801
2623	0.7988
2632	0.7969
2641	0.795
2650	0.7932
2659	0.7913
2668	0.7896
2677	0.7882
2686	0.7869
2695	0.786
2704	0.7854
2713	0.7831
2722	0.7809
2731	0.7797
2740	0.7809
2749	0.7843
2758	0.7847
2767	0.783
2776	0.7786
2785	0.7716
2794	0.7609
2803	0.7485
2812	0.7335
2821	0.7048
2830	0.645
2839	0.3922
2848	0.2302
2857	0.1929
2866	0.2017
2875	0.2342
2884	0.2872
2893	0.2441
2902	0.1862
2911	0.1223
2920	0.0645
2929	0.0743
2938	0.1092
2947	0.0993
2956	0.0881
2965	0.1675
2974	0.2775
2983	0.418
2992	0.525
3001	0.5371
3010	0.5411
3019	0.6061
3028	0.6535
3037	0.6478
3046	0.642
3055	0.6557
3064	0.6715
3073	0.6726
3082	0.6736
3091	0.6822
3100	0.6905
3109	0.6917
3118	0.6923
3127	0.6926
3136	0.693
3145	0.6932
3154	0.6936
3163	0.6938
3172	0.6942
3181	0.6944
3190	0.6946
3199	0.6948
3208	0.695
3217	0.6952
3226	0.6954
3235	0.695
3244	0.6942
3253	0.6933
3262	0.6924
3271	0.6915
3280	0.6906
3289	0.6896
3298	0.6885
3307	0.6873
3316	0.6861
3325	0.6849
3334	0.6837
3343	0.6823
3352	0.6806
3361	0.6789
3370	0.6772
3379	0.6753
3388	0.6725
3397	0.6697
3406	0.6669
3415	0.6659
3424	0.6675
3433	0.6693
3442	0.6709
3451	0.6724
3460	0.6725
3469	0.6723
3478	0.6721
3487	0.6708
3496	0.6696
3505	0.6683
3514	0.6671
3523	0.666
3532	0.6651
3541	0.664
3550	0.6631
3559	0.6621
3568	0.6611
3577	0.66
3586	0.659
3595	0.6579
3604	0.6569
3613	0.6558
3622	0.6548
3631	0.6541
3640	0.6535
3649	0.6529
3658	0.6523
3667	0.6517
3676	0.6504
3685	0.649
3694	0.6476
3703	0.6461
3712	0.6447
3721	0.6432
3730	0.6417
3739	0.6401
3748	0.6385
3757	0.6368
3766	0.6352
3775	0.6336
3784	0.632
3793	0.6303
3802	0.6287
3811	0.6271
3820	0.6255
3829	0.6238
3838	0.6222
3847	0.6206
3856	0.6192
3865	0.6178
3874	0.6164
3883	0.6149
3892	0.6135
3901	0.6121
3910	0.6106
3919	0.609
3928	0.6075
3937	0.6059
3946	0.6043
3955	0.6027
3964	0.6011
3973	0.5994
3982	0.5987
3991	0.5981
4000	0.5977
