Infrared Spectrum: FUMARIC ACID, MONOETHYL ESTER
Formula: C6 H8 O4
CAS: 2459-05-4
State: SOLID (SPLIT MULL BETWEEN NaCl PLATES), FLUOROLUBE FOR 3800-1330 CM^-^1, NUJOL FOR 1330-500 CM^-^1
Class: COBLENTZ III
Instrument: DOW KBr FOREPRISM-GRATING
Instrument parameters: BLAZED AT 3.5, 12.0, 20.0 MICRON AND CHANGED AT 5.0, 7.5, 14.9 MICRON
Sampling: TRANSMISSION
Resolution: 2
Origin: DOW CHEMICAL COMPANY
1/CM	TRANSMITTANCE
579	0.1829
588	0.2319
597	0.2808
606	0.3308
615	0.3807
624	0.4283
633	0.4873
642	0.4437
651	0.549
660	0.5393
669	0.6828
678	0.7208
687	0.7478
696	0.7681
705	0.7778
714	0.7636
723	0.7287
732	0.7696
741	0.8026
750	0.8325
759	0.8409
768	0.8318
777	0.6253
786	0.8286
795	0.8318
804	0.7956
813	0.8262
822	0.8377
831	0.8338
840	0.8147
849	0.7528
858	0.654
867	0.8121
876	0.7861
885	0.7664
894	0.6982
903	0.6236
912	0.5341
921	0.5784
930	0.6442
939	0.6524
948	0.6396
957	0.691
966	0.6521
975	0.7411
984	0.6753
993	0.336
1002	0.6815
1011	0.5451
1020	0.4486
1029	0.7443
1038	0.8103
1047	0.8263
1056	0.8271
1065	0.8172
1074	0.8011
1083	0.7612
1092	0.5423
1101	0.7669
1110	0.8015
1119	0.793
1128	0.7624
1137	0.7025
1146	0.6531
1155	0.5392
1164	0.2917
1173	0.1292
1182	0.1257
1191	0.4177
1200	0.7436
1209	0.7633
1218	0.7518
1227	0.7404
1236	0.6532
1245	0.6239
1254	0.36
1263	0.1092
1272	0.3826
1281	0.2217
1290	0.3309
1299	0.2778
1308	0.1693
1317	0.1314
1326	0.6091
1335	0.6817
1344	0.6801
1353	0.7094
1362	0.6921
1371	0.418
1380	0.7532
1389	0.7165
1398	0.6675
1407	0.5939
1416	0.5583
1425	0.4296
1434	0.3255
1443	0.5816
1452	0.6724
1461	0.6318
1470	0.7956
1479	0.8212
1488	0.8336
1497	0.8308
1506	0.8244
1515	0.8164
1524	0.8068
1533	0.7942
1542	0.7761
1551	0.749
1560	0.7478
1569	0.7311
1578	0.7362
1587	0.7025
1596	0.6878
1605	0.6774
1614	0.6321
1623	0.5599
1632	0.3062
1641	0.2881
1650	0.6787
1659	0.6283
1668	0.5583
1677	0.388
1686	0.1992
1695	0.1136
1704	0.1678
1713	0.265
1722	0.1261
1731	0.4543
1740	0.6665
1749	0.7761
1758	0.8239
1767	0.8413
1776	0.8464
1785	0.851
1794	0.8657
1803	0.8749
1812	0.8783
1821	0.8818
1830	0.8844
1839	0.8834
1848	0.8809
1857	0.8734
1866	0.8611
1875	0.8658
1884	0.8632
1893	0.8728
1902	0.8756
1911	0.8789
1920	0.8817
1929	0.8828
1938	0.8825
1947	0.8821
1956	0.886
1965	0.8878
1974	0.8868
1983	0.8847
1992	0.8988
2001	0.922
2010	0.9203
2019	0.9166
2028	0.9127
2037	0.9099
2046	0.9081
2055	0.9071
2064	0.9063
2073	0.9037
2082	0.9005
2091	0.8968
2100	0.893
2109	0.8891
2118	0.8855
2127	0.8821
2136	0.8787
2145	0.8749
2154	0.871
2163	0.8671
2172	0.8635
2181	0.8598
2190	0.8575
2199	0.8571
2208	0.8517
2217	0.843
2226	0.8362
2235	0.8292
2244	0.8238
2253	0.8192
2262	0.8151
2271	0.8121
2280	0.8091
2289	0.8056
2298	0.7997
2307	0.7996
2316	0.8056
2325	0.8121
2334	0.8096
2343	0.8045
2352	0.8017
2361	0.7945
2370	0.7861
2379	0.7788
2388	0.7739
2397	0.7701
2406	0.7665
2415	0.7626
2424	0.7574
2433	0.7518
2442	0.7458
2451	0.7398
2460	0.7324
2469	0.7236
2478	0.7145
2487	0.7049
2496	0.6953
2505	0.685
2514	0.6735
2523	0.6588
2532	0.6389
2541	0.6471
2550	0.6774
2559	0.6911
2568	0.6892
2577	0.6835
2586	0.6774
2595	0.6806
2604	0.6845
2613	0.6868
2622	0.6841
2631	0.6788
2640	0.6678
2649	0.6551
2658	0.6433
2667	0.6354
2676	0.6371
2685	0.6417
2694	0.648
2703	0.655
2712	0.6628
2721	0.6651
2730	0.6612
2739	0.654
2748	0.6467
2757	0.6392
2766	0.6312
2775	0.6221
2784	0.611
2793	0.5999
2802	0.5898
2811	0.5815
2820	0.5742
2829	0.5672
2838	0.5604
2847	0.5536
2856	0.547
2865	0.5409
2874	0.535
2883	0.5379
2892	0.5441
2901	0.5506
2910	0.5541
2919	0.555
2928	0.5532
2937	0.5365
2946	0.5347
2955	0.528
2964	0.5094
2973	0.4992
2982	0.4396
2991	0.4634
3000	0.5372
3009	0.538
3018	0.5399
3027	0.5586
3036	0.5638
3045	0.5597
3054	0.5486
3063	0.5414
3072	0.5024
3081	0.5416
3090	0.6066
3099	0.6175
3108	0.6238
3117	0.6301
3126	0.6382
3135	0.6476
3144	0.6571
3153	0.6667
3162	0.6765
3171	0.6861
3180	0.6961
3189	0.7062
3198	0.715
3207	0.7235
3216	0.7315
3225	0.741
3234	0.7512
3243	0.7598
3252	0.7675
3261	0.7739
3270	0.7796
3279	0.7828
3288	0.7849
3297	0.7871
3306	0.7918
3315	0.7962
3324	0.8005
3333	0.8025
3342	0.8032
3351	0.8033
3360	0.804
3369	0.8061
3378	0.8047
3387	0.8012
3396	0.7976
3405	0.7926
3414	0.7882
3423	0.8001
3432	0.8035
3441	0.8039
3450	0.8004
3459	0.7996
3468	0.7997
3477	0.7984
3486	0.7965
3495	0.7951
3504	0.7943
3513	0.7935
3522	0.7926
3531	0.7918
3540	0.7908
3549	0.79
3558	0.7897
3567	0.7893
3576	0.7887
3585	0.7874
3594	0.7858
3603	0.7841
3612	0.7824
3621	0.781
3630	0.7799
3639	0.7786
3648	0.7769
3657	0.7751
3666	0.7733
3675	0.7715
3684	0.7703
3693	0.769
3702	0.7681
3711	0.7664
3720	0.7643
3729	0.7621
3738	0.7598
3747	0.7575
3756	0.7554
3765	0.7532
3774	0.7511
3783	0.7489
3792	0.7468
