Infrared Spectrum: NORBORNANE, 2-BROMO-, EXO
Formula: C7 H11 Br
CAS: 2534-77-2
State: SOLUTION (10% IN CCl4 FOR 3800-1330, AND 10% IN CS2 FOR 1330-400 CM^-^1)
Class: COBLENTZ III
Instrument: BECKMAN IR-9 (GRATING)
Instrument parameters: ORDER CHANGES AT 670, 1200, 2000 CM^-^1
Sampling: TRANSMISSION
Path length: 0.011, 0.011 CM
Resolution: 4
Origin: DOW CHEMICAL COMPANY
1/CM	TRANSMITTANCE
395.652	1.001
404.348	1.002
413.043	1.001
421.739	0.984
430.435	0.982
439.13	0.979
447.826	0.978
456.522	0.971
465.217	0.989
473.913	0.987
482.609	0.983
491.304	0.967
500	0.956
508.696	0.96
517.391	0.959
526.087	0.96
534.783	0.971
543.478	0.976
552.174	0.982
560.87	0.98
569.565	0.8
578.261	0.946
586.957	0.982
595.652	0.978
604.348	0.934
613.044	0.728
621.739	0.447
630.435	0.892
639.131	0.96
647.827	0.971
656.522	0.98
665.218	1.002
673.914	0.995
682.609	1.008
691.305	1.008
700.001	0.994
708.696	1.002
717.392	1.002
726.088	0.998
734.783	1.001
743.479	0.997
752.175	0.98
760.87	0.762
769.566	0.864
778.262	0.983
786.957	0.979
795.653	0.938
804.349	0.918
813.044	0.893
821.74	0.965
830.436	0.904
839.131	0.933
847.827	1
856.523	1.001
865.218	0.965
873.914	0.819
882.61	0.938
891.305	0.618
900.001	0.931
908.697	0.935
917.392	0.84
926.088	0.924
934.784	0.929
943.479	0.4589
952.175	0.814
960.871	0.944
969.566	0.969
978.262	0.983
986.958	0.984
995.653	0.956
1004.35	0.907
1013.04	0.952
1021.74	0.96
1030.44	0.942
1039.13	0.8779
1047.83	0.897
1056.52	0.946
1065.22	0.968
1073.91	0.963
1082.61	0.924
1091.31	0.942
1100	0.944
1108.7	0.931
1117.39	0.833
1126.09	0.836
1134.78	0.691
1143.48	0.894
1152.18	0.905
1160.87	0.914
1169.57	0.888
1178.26	0.903
1186.96	0.553
1195.65	0.778
1204.35	0.863
1213.05	0.765
1221.74	0.7399
1230.44	0.1782
1239.13	0.709
1247.83	0.4911
1256.52	0.832
1265.22	0.859
1273.91	0.903
1282.61	0.896
1291.31	0.799
1300	0.7759
1308.7	0.709
1317.39	0.6631
1326.09	0.914
1334.78	0.939
1343.48	0.963
1352.18	0.971
1360.87	0.987
1369.57	0.976
1378.26	0.978
1386.96	0.979
1395.65	0.979
1404.35	0.971
1413.05	0.978
1421.74	0.978
1430.44	0.965
1439.13	0.8519
1447.83	0.765
1456.52	0.5401
1465.22	0.874
1473.92	0.904
1482.61	0.926
1491.31	0.95
1500	0.964
1508.7	0.978
1517.39	0.98
1526.09	0.984
1534.79	0.972
1543.48	0.964
1552.18	0.964
1560.87	0.975
1569.57	0.982
1578.26	0.982
1586.96	0.982
1595.65	0.984
1604.35	0.979
1613.05	0.976
1621.74	0.978
1630.44	0.978
1639.13	0.978
1647.83	0.978
1656.52	0.978
1665.22	0.979
1673.92	0.979
1682.61	0.982
1691.31	0.984
1700	0.982
1708.7	0.98
1717.39	0.98
1726.09	0.982
1734.79	0.984
1743.48	0.983
1752.18	0.994
1760.87	0.998
1769.57	1.001
1778.26	1
1786.96	1.001
1795.66	1.002
1804.35	1.004
1813.05	1.004
1821.74	1.004
1830.44	1.004
1839.13	1.001
1847.83	1
1856.53	1.002
1865.22	1.004
1873.92	1.002
1882.61	1.002
1891.31	1.004
1900	1.004
1908.7	1.002
1917.39	1.002
1926.09	1.004
1934.79	1.002
1943.48	1.001
1952.18	1.002
1960.87	1.002
1969.57	1.002
1978.26	1.001
1986.96	1.004
1995.66	1.002
2004.35	1.0045
2013.05	1.005
2021.74	1.007
2030.44	1.0071
2039.13	1.004
2047.83	1.004
2056.53	1.002
2065.22	1.0005
2073.92	0.9991
2082.61	0.997
2091.31	0.997
2100	0.997
2108.7	0.998
2117.4	1.001
2126.09	1.0006
2134.79	0.998
2143.48	0.9976
2152.18	0.997
2160.87	0.995
2169.57	0.995
2178.26	0.994
2186.96	0.9922
2195.66	0.991
2204.35	0.9918
2213.05	0.99
2221.74	0.993
2230.44	0.993
2239.13	0.9877
2247.83	0.9917
2256.53	0.99
2265.22	0.991
2273.92	0.991
2282.61	0.991
2291.31	0.991
2300	0.991
2308.7	0.9897
2317.4	0.99
2326.09	0.987
2334.79	0.987
2343.48	0.9854
2352.18	0.983
2360.87	0.982
2369.57	0.98
2378.27	0.9823
2386.96	0.9879
2395.66	0.99
2404.35	0.989
2413.05	0.9907
2421.74	0.9905
2430.44	0.9893
2439.14	0.99
2447.83	0.989
2456.53	0.99
2465.22	0.99
2473.92	0.991
2482.61	0.989
2491.31	0.99
2500	0.9902
2508.7	0.99
2517.4	0.9902
2526.09	0.99
2534.79	0.991
2543.48	0.99
2552.18	0.99
2560.87	0.9892
2569.57	0.9868
2578.27	0.986
2586.96	0.9902
2595.66	0.99
2604.35	0.986
2613.05	0.986
2621.74	0.99
2630.44	0.99
2639.14	0.9891
2647.83	0.99
2656.53	0.99
2665.22	0.99
2673.92	0.99
2682.61	0.989
2691.31	0.989
2700.01	0.989
2708.7	0.9869
2717.4	0.9802
2726.09	0.986
2734.79	0.9869
2743.48	0.982
2752.18	0.9799
2760.87	0.9759
2769.57	0.9681
2778.27	0.9751
2786.96	0.974
2795.66	0.9741
2804.35	0.9781
2813.05	0.978
2821.74	0.9739
2830.44	0.965
2839.14	0.9558
2847.83	0.9288
2856.53	0.8329
2865.22	0.5116
2873.92	0.2276
2882.61	0.4435
2891.31	0.701
2900.01	0.712
2908.7	0.5235
2917.4	0.489
2926.09	0.5302
2934.79	0.3712
2943.48	0.2103
2952.18	0.1391
2960.88	0.0604
2969.57	0.0489
2978.27	0.0861
2986.96	0.2484
2995.66	0.5298
3004.35	0.7446
3013.05	0.8308
3021.75	0.8744
3030.44	0.9105
3039.14	0.9325
3047.83	0.938
3056.53	0.9437
3065.22	0.9489
3073.92	0.954
3082.61	0.9609
3091.31	0.9649
3100.01	0.9708
3108.7	0.971
3117.4	0.976
3126.09	0.976
3134.79	0.979
3143.48	0.978
3152.18	0.978
3160.88	0.975
3169.57	0.972
3178.27	0.972
3186.96	0.972
3195.66	0.9737
3204.35	0.975
3213.05	0.976
3221.75	0.978
3230.44	0.976
3239.14	0.975
3247.83	0.974
3256.53	0.976
3265.22	0.976
3273.92	0.976
3282.62	0.976
3291.31	0.975
3300.01	0.9758
3308.7	0.975
3317.4	0.972
3326.09	0.971
3334.79	0.969
3343.49	0.9655
3352.18	0.964
3360.88	0.963
3369.57	0.9647
3378.27	0.9677
3386.96	0.968
3395.66	0.969
3404.35	0.9683
3413.05	0.965
3421.75	0.9637
3430.44	0.964
3439.14	0.9677
3447.83	0.972
3456.53	0.972
3465.22	0.9726
3473.92	0.974
3482.62	0.975
3491.31	0.978
3500.01	0.976
3508.7	0.976
3517.4	0.9783
3526.09	0.979
3534.79	0.979
3543.49	0.98
3552.18	0.98
3560.88	0.98
3569.57	0.98
3578.27	0.979
3586.96	0.979
3595.66	0.978
3604.36	0.9748
3613.05	0.9618
3621.75	0.9516
3630.44	0.9524
3639.14	0.9674
3647.83	0.9786
3656.53	0.98
3665.22	0.983
3673.92	0.983
3682.62	0.982
3691.31	0.98
3700.01	0.982
3708.7	0.98
3717.4	0.9769
3726.09	0.974
3734.79	0.972
3743.49	0.969
3752.18	0.968
3760.88	0.9685
3769.57	0.974
3778.27	0.975
3786.96	0.975
3795.66	0.978
