Infrared Spectrum: NORBORNANE, 2-BROMO-,EXO
Formula: C7 H11 Br
CAS: 2534-77-2
State: LIQUID (NEAT)
Class: COBLENTZ III
Instrument: CARY 90 (GRATING)
Instrument parameters: ORDER CHANGES: 3000, 2000, 1200 CM^-^1
Sampling: TRANSMISSION
Path length: 0.0028 CM
Resolution: 2
Origin: WESTERN REGIONAL RES. USDA
1/CM	TRANSMITTANCE
3994	0.8712
3985	0.8834
3976	0.9081
3967	0.9148
3958	0.9158
3949	0.9149
3940	0.9089
3931	0.8975
3922	0.8843
3913	0.8698
3904	0.8594
3895	0.8584
3886	0.864
3877	0.8705
3868	0.8755
3859	0.8778
3850	0.8792
3841	0.88
3832	0.8807
3823	0.8806
3814	0.8792
3805	0.8777
3796	0.8757
3787	0.8723
3778	0.869
3769	0.8653
3760	0.8587
3751	0.8502
3742	0.8495
3733	0.8516
3724	0.8584
3715	0.8661
3706	0.8727
3697	0.8787
3688	0.8818
3679	0.8839
3670	0.8857
3661	0.8875
3652	0.889
3643	0.8896
3634	0.8877
3625	0.8824
3616	0.8732
3607	0.8631
3598	0.855
3589	0.8444
3580	0.8403
3571	0.8409
3562	0.8504
3553	0.8615
3544	0.8713
3535	0.877
3526	0.8817
3517	0.886
3508	0.8894
3499	0.8923
3490	0.8941
3481	0.8959
3472	0.8978
3463	0.8978
3454	0.8977
3445	0.8947
3436	0.8894
3427	0.8847
3418	0.8827
3409	0.8858
3400	0.8905
3391	0.8947
3382	0.8962
3373	0.8946
3364	0.8899
3355	0.8857
3346	0.8851
3337	0.8866
3328	0.8906
3319	0.8945
3310	0.8981
3301	0.9003
3292	0.9014
3283	0.9008
3274	0.9003
3265	0.8989
3256	0.8975
3247	0.8959
3238	0.8918
3229	0.8938
3220	0.8973
3211	0.8978
3202	0.8945
3193	0.8874
3184	0.8808
3175	0.8737
3166	0.8724
3157	0.8752
3148	0.878
3139	0.8807
3130	0.8828
3121	0.8833
3112	0.8827
3103	0.8778
3094	0.8715
3085	0.8648
3076	0.8543
3067	0.8438
3058	0.8336
3049	0.8252
3040	0.8058
3031	0.766
3022	0.7217
3013	0.6601
3004	0.5339
2995	0.2955
2986	0.0816
2977	0.0114
2968	0.0088
2959	0.0073
2950	0.0065
2941	0.0073
2932	0.0195
2923	0.0531
2914	0.0668
2905	0.1254
2896	0.2535
2887	0.2658
2878	0.0978
2869	0.0032
2860	0.0552
2851	0.4723
2842	0.7242
2833	0.7918
2824	0.8362
2815	0.8641
2806	0.8802
2797	0.8852
2788	0.8838
2779	0.8791
2770	0.8735
2761	0.8742
2752	0.8864
2743	0.8964
2734	0.9055
2725	0.9098
2716	0.9107
2707	0.9117
2698	0.9131
2689	0.9166
2680	0.9194
2671	0.9204
2662	0.921
2653	0.9214
2644	0.9209
2635	0.9174
2626	0.9086
2617	0.9004
2608	0.8994
2599	0.9062
2590	0.9067
2581	0.9025
2572	0.8935
2563	0.9004
2554	0.9109
2545	0.9139
2536	0.9118
2527	0.9089
2518	0.907
2509	0.9055
2500	0.9052
2491	0.9049
2482	0.9067
2473	0.911
2464	0.9127
2455	0.9089
2446	0.9018
2437	0.9008
2428	0.9027
2419	0.9042
2410	0.9047
2401	0.9023
2392	0.9003
2383	0.8916
2374	0.8768
2365	0.8618
2356	0.854
2347	0.8557
2338	0.8712
2329	0.8831
2320	0.892
2311	0.8985
2302	0.9057
2293	0.9134
2284	0.9214
2275	0.924
2266	0.9228
2257	0.9209
2248	0.9182
2239	0.9156
2230	0.9133
2221	0.9143
2212	0.9154
2203	0.9164
2194	0.9177
2185	0.9201
2176	0.9225
2167	0.9251
2158	0.9291
2149	0.9328
2140	0.9375
2131	0.943
2122	0.9454
2113	0.942
2104	0.9382
2095	0.9342
2086	0.9312
2077	0.93
2068	0.9356
2059	0.9447
2050	0.9534
2041	0.9601
2032	0.9652
2023	0.9652
2014	0.9652
2005	0.9641
1996	0.9616
1987	0.9657
1978	0.9656
1969	0.9636
1960	0.9564
1951	0.9553
1942	0.9539
1933	0.9556
1924	0.9604
1915	0.9625
1906	0.9533
1897	0.9503
1888	0.9546
1879	0.9521
1870	0.9518
1861	0.9551
1852	0.95
1843	0.9396
1834	0.9409
1825	0.9468
1816	0.9532
1807	0.9571
1798	0.9551
1789	0.9473
1780	0.9406
1771	0.9418
1762	0.9437
1753	0.9337
1744	0.9171
1735	0.9112
1726	0.925
1717	0.9295
1708	0.9321
1699	0.9316
1690	0.931
1681	0.9304
1672	0.931
1663	0.9341
1654	0.9325
1645	0.9318
1636	0.9314
1627	0.9324
1618	0.9313
1609	0.9278
1600	0.9267
1591	0.9262
1582	0.9246
1573	0.9216
1564	0.9187
1555	0.9161
1546	0.9115
1537	0.9053
1528	0.8966
1519	0.8883
1510	0.8767
1501	0.847
1492	0.795
1483	0.7649
1474	0.4484
1465	0.5686
1456	0.1854
1447	0.2909
1438	0.2029
1429	0.6626
1420	0.7933
1411	0.8234
1402	0.8174
1393	0.8303
1384	0.8432
1375	0.8533
1366	0.859
1357	0.8537
1348	0.8271
1339	0.7992
1330	0.7687
1321	0.678
1312	0.0565
1303	0.1601
1294	0.4515
1285	0.396
1276	0.7248
1267	0.6099
1258	0.3734
1249	0.3076
1240	0.2475
1231	0.0081
1222	0.2291
1213	0.4459
1204	0.6183
1195	0.3334
1186	0.1968
1177	0.7592
1168	0.7358
1159	0.8065
1150	0.7991
1141	0.7148
1132	0.3778
1123	0.636
1114	0.627
1105	0.851
1096	0.8956
1087	0.8418
1078	0.8293
1069	0.91
1060	0.9084
1051	0.8312
1042	0.424
1033	0.7845
1024	0.8928
1015	0.8933
1006	0.7318
997	0.8118
988	0.9012
979	0.8971
970	0.8659
961	0.7905
952	0.4407
943	0.049
934	0.5321
925	0.69
916	0.508
907	0.6821
898	0.4952
889	0.3094
880	0.7135
871	0.5725
862	0.8217
853	0.8631
844	0.8117
835	0.4143
826	0.7684
817	0.6964
808	0.506
799	0.6814
790	0.7743
781	0.8064
772	0.6001
763	0.2248
754	0.7195
745	0.8183
736	0.8312
727	0.8324
718	0.8423
709	0.8509
700	0.8421
691	0.8221
682	0.8055
673	0.7891
664	0.7668
655	0.7292
646	0.6921
637	0.6358
628	0.3048
619	0.0617
610	0.3905
601	0.6339
592	0.7189
583	0.6839
574	0.3194
565	0.6983
556	0.7398
547	0.7383
538	0.7325
529	0.7208
520	0.7072
511	0.6945
502	0.7024
493	0.7195
484	0.7032
