Infrared Spectrum: SILANE, TRIMETHOXY-[3(2-METHYLPROPENOYLOXY)PROPYL]-
Formula: C10 H20 O5 Si
CAS: 2530-85-0
State: SOLUTION (10% IN CCl4 FOR 3800-1300, 2.6% IN CS2 FOR 1300-700, AND 10% IN CCl4 FOR 700-250 CM^-^1) VS. SOLVENT
Class: COBLENTZ
Instrument: PERKIN-ELMER 521 (GRATING)
Instrument parameters: FILTERS AT 3150, 2500, 2000, 1150, 700, 410 AND GRATING CHANGES AT 2000, 630 CM^-^1
Sampling: TRANSMISSION
Path length: 0.011, 0.011, AND 0.010 CM (CsBr CELL)
Resolution: 4
Origin: DOW CORNING CORP.
1/CM	TRANSMITTANCE
245.428	0.694
254.629	0.694
263.829	0.694
273.03	0.693
282.231	0.692
291.432	0.686
300.632	0.678
309.833	0.655
319.034	0.64
328.234	0.618
337.435	0.585
346.636	0.56
355.836	0.556
365.037	0.559
374.238	0.561
383.439	0.581
392.639	0.617
401.84	0.615
411.041	0.584
420.241	0.591
429.442	0.603
438.643	0.616
447.843	0.615
457.044	0.6
466.245	0.625
475.446	0.648
484.646	0.653
493.847	0.711
503.048	0.74
512.248	0.738
521.449	0.723
530.65	0.696
539.851	0.724
549.051	0.744
558.252	0.754
567.453	0.753
576.653	0.743
585.854	0.713
595.055	0.692
604.255	0.713
613.456	0.733
622.657	0.737
631.858	0.701
641.058	0.632
650.259	0.601
659.46	0.648
668.66	0.691
677.861	0.691
687.062	0.722
696.263	0.723
705.463	0.723
714.664	0.723
723.865	0.723
733.065	0.723
742.266	0.723
751.467	0.657
760.667	0.632
769.868	0.566
779.069	0.546
788.27	0.511
797.47	0.474
806.671	0.423
815.872	0.352
825.072	0.409
834.273	0.572
843.474	0.595
852.674	0.673
861.875	0.694
871.076	0.749
880.277	0.783
889.477	0.783
898.678	0.785
907.879	0.793
917.079	0.788
926.28	0.734
935.481	0.557
944.682	0.76
953.882	0.795
963.083	0.79
972.284	0.754
981.484	0.74
990.685	0.744
999.886	0.707
1009.09	0.627
1018.29	0.673
1027.49	0.671
1036.69	0.643
1045.89	0.637
1055.09	0.582
1064.29	0.501
1073.49	0.341
1082.69	0.105
1091.89	0.09
1101.09	0.191
1110.29	0.286
1119.49	0.432
1128.7	0.514
1137.9	0.513
1147.1	0.398
1156.3	0.22
1165.5	0.254
1174.7	0.358
1183.9	0.352
1193.1	0.361
1202.3	0.488
1211.5	0.653
1220.7	0.712
1229.9	0.74
1239.1	0.74
1248.3	0.724
1257.51	0.682
1266.71	0.726
1275.91	0.718
1285.11	0.6299
1294.31	0.066
1303.51	0.308
1312.71	0.2139
1321.91	0.202
1331.11	0.4281
1340.31	0.647
1349.51	0.622
1358.71	0.694
1367.91	0.652
1377.11	0.612
1386.32	0.559
1395.52	0.525
1404.72	0.491
1413.92	0.5101
1423.12	0.586
1432.32	0.49
1441.52	0.428
1450.72	0.282
1459.92	0.378
1469.12	0.391
1478.32	0.577
1487.52	0.678
1496.72	0.718
1505.92	0.738
1515.13	0.76
1524.33	0.769
1533.53	0.775
1542.73	0.778
1551.93	0.779
1561.13	0.779
1570.33	0.779
1579.53	0.78
1588.73	0.779
1597.93	0.775
1607.13	0.755
1616.33	0.718
1625.53	0.591
1634.73	0.45
1643.94	0.5861
1653.14	0.772
1662.34	0.767
1671.54	0.735
1680.74	0.681
1689.94	0.645
1699.14	0.5389
1708.34	0.2659
1717.54	0.007
1726.74	0.018
1735.94	0.3301
1745.14	0.64
1754.34	0.721
1763.54	0.76
1772.74	0.782
1781.95	0.794
1791.15	0.803
1800.35	0.814
1809.55	0.819
1818.75	0.819
1827.95	0.818
1837.15	0.815
1846.35	0.813
1855.55	0.808
1864.75	0.794
1873.95	0.773
1883.15	0.772
1892.35	0.782
1901.55	0.792
1910.76	0.795
1919.96	0.801
1929.16	0.81
1938.36	0.824
1947.56	0.826
1956.76	0.826
1965.96	0.828
1975.16	0.828
1984.36	0.828
1993.56	0.829
2002.76	0.838
2011.96	0.8395
2021.16	0.846
2030.36	0.85
2039.57	0.85
2048.77	0.85
2057.97	0.85
2067.17	0.85
2076.37	0.85
2085.57	0.85
2094.77	0.849
2103.97	0.8469
2113.17	0.846
2122.37	0.8419
2131.57	0.8384
2140.77	0.8354
2149.97	0.8334
2159.17	0.833
2168.38	0.834
2177.58	0.8371
2186.78	0.8436
2195.98	0.849
2205.18	0.85
2214.38	0.851
2223.58	0.853
2232.78	0.8536
2241.98	0.854
2251.18	0.854
2260.38	0.855
2269.58	0.855
2278.78	0.855
2287.98	0.855
2297.19	0.854
2306.39	0.8553
2315.59	0.856
2324.79	0.858
2333.99	0.858
2343.19	0.858
2352.39	0.858
2361.59	0.856
2370.79	0.856
2379.99	0.856
2389.19	0.856
2398.39	0.858
2407.59	0.856
2416.79	0.856
2425.99	0.855
2435.2	0.854
2444.4	0.855
2453.6	0.855
2462.8	0.854
2472	0.854
2481.2	0.854
2490.4	0.8547
2499.6	0.854
2508.8	0.854
2518	0.8543
2527.2	0.853
2536.4	0.8525
2545.6	0.851
2554.8	0.85
2564.01	0.849
2573.21	0.849
2582.41	0.846
2591.61	0.845
2600.81	0.844
2610.01	0.844
2619.21	0.844
2628.41	0.844
2637.61	0.846
2646.81	0.8476
2656.01	0.848
2665.21	0.848
2674.41	0.848
2683.61	0.848
2692.82	0.848
2702.02	0.8464
2711.22	0.8432
2720.42	0.8363
2729.62	0.831
2738.82	0.8298
2748.02	0.8232
2757.22	0.819
2766.42	0.8143
2775.62	0.8052
2784.82	0.7942
2794.02	0.7648
2803.22	0.7343
2812.42	0.7064
2821.63	0.6242
2830.83	0.4186
2840.03	0.0803
2849.23	0.3642
2858.43	0.5237
2867.63	0.5445
2876.83	0.4853
2886.03	0.3926
2895.23	0.3371
2904.43	0.3156
2913.63	0.2718
2922.83	0.2107
2932.03	0.1361
2941.23	0.07
2950.44	0.0991
2959.64	0.1276
2968.84	0.1727
2978.04	0.2017
2987.24	0.2983
2996.44	0.4158
3005.64	0.5381
3014.84	0.5858
3024.04	0.6408
3033.24	0.6827
3042.44	0.7088
3051.64	0.7469
3060.84	0.7778
3070.04	0.8
3079.24	0.804
3088.45	0.803
3097.65	0.8
3106.85	0.819
3116.05	0.856
3125.25	0.86
3134.45	0.865
3143.65	0.866
3152.85	0.871
3162.05	0.871
3171.25	0.872
3180.45	0.8721
3189.65	0.874
3198.85	0.876
3208.05	0.877
3217.26	0.8771
3226.46	0.879
3235.66	0.879
3244.86	0.879
3254.06	0.879
3263.26	0.88
3272.46	0.88
3281.66	0.88
3290.86	0.88
3300.06	0.8799
3309.26	0.879
3318.46	0.8788
3327.66	0.877
3336.86	0.876
3346.07	0.876
3355.27	0.879
3364.47	0.881
3373.67	0.881
3382.87	0.879
3392.07	0.8759
3401.27	0.8687
3410.47	0.8599
3419.67	0.8591
3428.87	0.8664
3438.07	0.8793
3447.27	0.8841
3456.47	0.885
3465.67	0.8858
3474.88	0.885
3484.08	0.884
3493.28	0.882
3502.48	0.8812
3511.68	0.881
3520.88	0.881
3530.08	0.88
3539.28	0.88
3548.48	0.881
3557.68	0.881
3566.88	0.881
3576.08	0.881
3585.28	0.8869
3594.48	0.892
3603.69	0.894
3612.89	0.894
3622.09	0.894
3631.29	0.8935
3640.49	0.892
3649.69	0.894
3658.89	0.895
3668.09	0.8968
3677.29	0.895
3686.49	0.895
3695.69	0.896
3704.89	0.897
3714.09	0.897
3723.29	0.8963
3732.49	0.897
3741.7	0.8993
3750.9	0.897
3760.1	0.897
3769.3	0.897
3778.5	0.897
3787.7	0.897
3796.9	0.899
