Infrared Spectrum: POLYPROPYLENE GLYCOL 425
Formula: C3 H8 O2
CAS: 25322-69-4
State: LIQUID
Class: COBLENTZ
Instrument: PERKIN-ELMER
Sampling: TRANSMISSION
Path length: SMEAR
Resolution: 4
MICROMETERS	TRANSMITTANCE
2.025	0.909
2.06175	0.909
2.0985	0.91
2.13525	0.909
2.172	0.909
2.20875	0.912
2.2455	0.91
2.28224	0.901
2.31899	0.895
2.35574	0.889
2.39249	0.9
2.42924	0.901
2.46599	0.896
2.50274	0.889
2.53949	0.893
2.57624	0.904
2.61299	0.909
2.64974	0.909
2.68649	0.916
2.72324	0.91
2.75998	0.893
2.79673	0.784
2.83348	0.656
2.87023	0.518
2.90698	0.478
2.94373	0.503
2.98048	0.586
3.01723	0.655
3.05398	0.723
3.09073	0.778
3.12748	0.815
3.16423	0.844
3.20098	0.863
3.23772	0.88
3.27447	0.886
3.31122	0.883
3.34797	0.833
3.38472	0.26
3.42147	0.378
3.45822	0.273
3.49497	0.235
3.53172	0.426
3.56847	0.675
3.60522	0.723
3.64197	0.778
3.67872	0.815
3.71546	0.84
3.75221	0.858
3.78896	0.869
3.82571	0.88
3.86246	0.9
3.89921	0.903
3.93596	0.913
3.97271	0.915
4.00946	0.915
4.04621	0.924
4.08296	0.923
4.11971	0.927
4.15646	0.926
4.1932	0.929
4.22995	0.93
4.2667	0.933
4.30345	0.93
4.3402	0.93
4.37695	0.926
4.4137	0.924
4.45045	0.923
4.4872	0.916
4.52395	0.915
4.5607	0.916
4.59745	0.916
4.6342	0.918
4.67094	0.916
4.70769	0.921
4.74444	0.915
4.78119	0.913
4.81794	0.913
4.85469	0.913
4.89144	0.909
4.92819	0.909
4.96494	0.907
5.00169	0.909
5.03844	0.909
5.07519	0.907
5.11194	0.91
5.14868	0.913
5.18543	0.916
5.22218	0.913
5.25893	0.913
5.29568	0.92
5.33243	0.921
5.36918	0.921
5.40593	0.921
5.44268	0.924
5.47943	0.923
5.51618	0.923
5.55293	0.924
5.58968	0.92
5.62642	0.923
5.66317	0.923
5.69992	0.923
5.73667	0.926
5.77342	0.92
5.81017	0.918
5.84692	0.923
5.88367	0.926
5.92042	0.918
5.95717	0.913
5.99392	0.907
6.03067	0.9
6.06741	0.9
6.10416	0.896
6.14091	0.898
6.17766	0.906
6.21441	0.906
6.25116	0.909
6.28791	0.91
6.32466	0.91
6.36141	0.913
6.39816	0.913
6.43491	0.912
6.47166	0.913
6.50841	0.915
6.54515	0.907
6.5819	0.904
6.61865	0.901
6.6554	0.884
6.69215	0.861
6.7289	0.758
6.76565	0.673
6.8024	0.573
6.83915	0.515
6.8759	0.498
6.91265	0.6
6.9494	0.701
6.98615	0.73
7.02289	0.713
7.05964	0.666
7.09639	0.635
7.13314	0.621
7.16989	0.584
7.20664	0.489
7.24339	0.355
7.28014	0.315
7.31689	0.495
7.35364	0.589
7.39039	0.563
7.42714	0.529
7.46389	0.57
7.50063	0.598
7.53738	0.6
7.57413	0.598
7.61088	0.607
7.64763	0.6
7.68438	0.561
7.72113	0.561
7.75788	0.589
7.79463	0.586
7.83138	0.581
7.86813	0.578
7.90488	0.576
7.94163	0.575
7.97837	0.595
8.01512	0.627
8.05187	0.649
8.08862	0.68
8.12537	0.723
8.16212	0.767
8.19887	0.778
8.23562	0.79
8.27237	0.793
8.30912	0.78
8.34587	0.767
8.38262	0.726
8.41937	0.663
8.45611	0.556
8.49286	0.476
8.52961	0.4
8.56636	0.333
8.60311	0.272
8.63986	0.23
8.67661	0.198
8.71336	0.176
8.75011	0.16
8.78686	0.126
8.82361	0.116
8.86036	0.109
8.89711	0.1
8.93385	0.086
8.9706	0.061
9.00735	0.06
9.0441	0.056
9.08085	0.06
9.1176	0.064
9.15435	0.067
9.1911	0.076
9.22785	0.11
9.2646	0.124
9.30135	0.155
9.3381	0.201
9.37485	0.23
9.41159	0.261
9.44834	0.293
9.48509	0.324
9.52184	0.381
9.55859	0.473
9.59534	0.538
9.63209	0.607
9.66884	0.632
9.70559	0.633
9.74234	0.618
9.77909	0.587
9.81584	0.555
9.85259	0.543
9.88933	0.55
9.92608	0.607
9.96283	0.663
9.99958	0.703
10.0363	0.726
10.0731	0.746
10.1098	0.756
10.1466	0.76
10.1833	0.761
10.2201	0.761
10.2568	0.756
10.2936	0.74
10.3303	0.735
10.3671	0.718
10.4038	0.675
10.4406	0.64
10.4773	0.632
10.5141	0.618
10.5508	0.595
10.5876	0.58
10.6243	0.575
10.6611	0.586
10.6978	0.593
10.7346	0.6
10.7713	0.6
10.8081	0.606
10.8448	0.63
10.8816	0.641
10.9183	0.663
10.9551	0.68
10.9918	0.687
11.0286	0.701
11.0653	0.726
11.1021	0.769
11.1388	0.793
11.1756	0.813
11.2123	0.838
11.2491	0.852
11.2858	0.852
11.3226	0.852
11.3593	0.841
11.3961	0.813
11.4328	0.787
11.4696	0.756
11.5063	0.732
11.543	0.723
11.5798	0.715
11.6165	0.721
11.6533	0.733
11.69	0.74
11.7268	0.746
11.7635	0.749
11.8003	0.741
11.837	0.74
11.8738	0.723
11.9105	0.713
11.9473	0.724
11.984	0.747
12.0208	0.766
12.0575	0.769
12.0943	0.772
12.131	0.773
12.1678	0.781
12.2045	0.793
12.2413	0.804
12.278	0.815
12.3148	0.829
12.3515	0.838
12.3883	0.85
12.425	0.855
12.4618	0.863
12.4985	0.867
12.5353	0.872
12.572	0.875
12.6088	0.881
12.6455	0.883
12.6823	0.884
12.719	0.887
12.7558	0.886
12.7925	0.889
12.8293	0.889
12.866	0.884
12.9028	0.886
12.9395	0.883
12.9763	0.886
13.013	0.881
13.0498	0.878
13.0865	0.881
13.1233	0.876
13.16	0.873
13.1968	0.875
13.2335	0.87
13.2703	0.87
13.307	0.869
13.3438	0.863
13.3805	0.863
13.4173	0.861
13.454	0.856
13.4908	0.853
13.5275	0.853
13.5643	0.847
13.601	0.844
13.6378	0.84
13.6745	0.84
13.7113	0.836
13.748	0.832
13.7848	0.829
13.8215	0.826
13.8583	0.824
13.895	0.818
13.9317	0.816
13.9685	0.81
14.0052	0.807
14.042	0.806
14.0787	0.8
14.1155	0.796
14.1522	0.796
14.189	0.792
14.2257	0.787
14.2625	0.786
14.2992	0.784
14.336	0.776
14.3727	0.775
14.4095	0.77
14.4462	0.763
14.483	0.756
14.5197	0.753
14.5565	0.749
14.5932	0.743
14.63	0.735
14.6667	0.732
14.7035	0.726
14.7402	0.718
14.777	0.713
14.8137	0.706
14.8505	0.696
14.8872	0.696
14.924	0.695
14.9607	0.693
14.9975	0.68
15.0342	0.673
15.071	0.667
