Infrared Spectrum: Polypropylene glycol
Formula: C6 H14 O3
CAS: 25322-69-4
State: SOLUTION (10% CCl4 FOR 2.5-7.5, 10% CS2 FOR 7.5-26 MICRON)
Class: COBLENTZ III
Instrument: DOW KBr FOREPRISM-GRATING
Instrument parameters: BLAZED AT 3.5, 12.0, 20.0 MICRON AND CHANGED AT 5.0, 7.5, 14.9 MICRON
Sampling: TRANSMISSION
Path length: 0.011 CM, 0.011 CM
Resolution: 2
Origin: DOW CHEMICAL COMPANY
1/CM	TRANSMITTANCE
3800	0.8494
3791	0.8496
3782	0.8498
3773	0.8499
3764	0.8501
3755	0.8502
3746	0.8502
3737	0.8501
3728	0.8503
3719	0.8505
3710	0.851
3701	0.8513
3692	0.8515
3683	0.8517
3674	0.8478
3665	0.8454
3656	0.8468
3647	0.8499
3638	0.8505
3629	0.8499
3620	0.8485
3611	0.845
3602	0.8336
3593	0.8161
3584	0.7891
3575	0.7832
3566	0.7912
3557	0.8018
3548	0.8071
3539	0.8093
3530	0.8061
3521	0.7937
3512	0.7799
3503	0.7654
3494	0.7551
3485	0.7495
3476	0.7458
3467	0.7421
3458	0.7419
3449	0.7449
3440	0.7515
3431	0.7612
3422	0.7743
3413	0.788
3404	0.8022
3395	0.814
3386	0.8245
3377	0.8345
3368	0.8436
3359	0.8511
3350	0.8574
3341	0.8633
3332	0.8692
3323	0.8728
3314	0.8761
3305	0.8788
3296	0.8811
3287	0.8832
3278	0.8847
3269	0.886
3260	0.8868
3251	0.8874
3242	0.8875
3233	0.8877
3224	0.8867
3215	0.8856
3206	0.883
3197	0.879
3188	0.8753
3179	0.874
3170	0.8739
3161	0.8738
3152	0.8741
3143	0.8745
3134	0.875
3125	0.8754
3116	0.8759
3107	0.8761
3098	0.8757
3089	0.8746
3080	0.8723
3071	0.8689
3062	0.8648
3053	0.8588
3044	0.8515
3035	0.8412
3026	0.8267
3017	0.7987
3008	0.7494
2999	0.5985
2990	0.1166
2981	0.0674
2972	0.0826
2963	0.2603
2954	0.3445
2945	0.2384
2936	0.1125
2927	0.1332
2918	0.1451
2909	0.1158
2900	0.0915
2891	0.0935
2882	0.0999
2873	0.0883
2864	0.0872
2855	0.1182
2846	0.2851
2837	0.4574
2828	0.5516
2819	0.6019
2810	0.6279
2801	0.6414
2792	0.6442
2783	0.649
2774	0.6596
2765	0.6786
2756	0.7076
2747	0.7344
2738	0.7507
2729	0.7603
2720	0.7696
2711	0.7784
2702	0.7868
2693	0.7926
2684	0.7965
2675	0.7981
2666	0.7997
2657	0.8038
2648	0.8083
2639	0.8117
2630	0.8141
2621	0.8188
2612	0.8274
2603	0.8339
2594	0.8355
2585	0.8364
2576	0.8407
2567	0.8465
2558	0.8527
2549	0.8587
2540	0.8633
2531	0.8654
2522	0.8664
2513	0.8668
2504	0.8674
2495	0.8678
2486	0.8682
2477	0.8677
2468	0.8678
2459	0.8687
2450	0.8711
2441	0.8734
2432	0.8758
2423	0.8763
2414	0.8764
2405	0.8752
2396	0.8733
2387	0.8721
2378	0.8718
2369	0.8727
2360	0.8738
2351	0.8747
2342	0.8755
2333	0.8757
2324	0.8752
2315	0.869
2306	0.8667
2297	0.8613
2288	0.8606
2279	0.8603
2270	0.86
2261	0.8598
2252	0.8601
2243	0.8603
2234	0.8606
2225	0.8611
2216	0.8617
2207	0.8618
2198	0.8621
2189	0.8628
2180	0.8664
2171	0.867
2162	0.8641
2153	0.863
2144	0.8643
2135	0.8657
2126	0.8666
2117	0.8671
2108	0.8666
2099	0.8659
2090	0.8651
2081	0.8642
2072	0.8628
2063	0.8609
2054	0.8583
2045	0.8558
2036	0.8533
2027	0.8516
2018	0.8496
2009	0.8493
2000	0.8514
1991	0.8498
1982	0.8515
1973	0.8531
1964	0.8549
1955	0.8571
1946	0.8592
1937	0.861
1928	0.8628
1919	0.8635
1910	0.8643
1901	0.8668
1892	0.8691
1883	0.8703
1874	0.8716
1865	0.8727
1856	0.8738
1847	0.875
1838	0.8761
1829	0.8764
1820	0.8767
1811	0.8768
1802	0.8768
1793	0.8768
1784	0.8764
1775	0.876
1766	0.8751
1757	0.8739
1748	0.8711
1739	0.859
1730	0.8537
1721	0.8565
1712	0.8646
1703	0.8684
1694	0.8692
1685	0.8681
1676	0.8601
1667	0.7971
1658	0.828
1649	0.841
1640	0.8414
1631	0.8421
1622	0.8437
1613	0.8457
1604	0.8491
1595	0.8531
1586	0.8552
1577	0.8551
1568	0.8552
1559	0.8594
1550	0.8632
1541	0.8641
1532	0.8618
1523	0.8583
1514	0.8477
1505	0.8336
1496	0.8111
1487	0.7636
1478	0.5084
1469	0.4298
1460	0.3668
1451	0.3541
1442	0.5899
1433	0.6928
1424	0.7188
1415	0.6451
1406	0.5309
1397	0.4941
1388	0.4078
1379	0.0911
1370	0.3058
1361	0.5149
1352	0.4172
1343	0.3884
1334	0.4739
1325	0.5353
1316	0.5187
1307	0.4856
1298	0.4091
1289	0.4982
1280	0.5275
1271	0.5241
1262	0.4841
1253	0.4688
1244	0.5124
1235	0.591
1226	0.6791
1217	0.7097
1208	0.7132
1199	0.6978
1190	0.5854
1181	0.395
1172	0.2734
1163	0.147
1154	0.1074
1145	0.0795
1136	0.0578
1127	0.0341
1118	0.0143
1109	0.0035
1100	0.0016
1091	0.0064
1082	0.0257
1073	0.1211
1064	0.1923
1055	0.2496
1046	0.3803
1037	0.5317
1028	0.5567
1019	0.4479
1010	0.4068
1001	0.5335
992	0.6628
983	0.7158
974	0.7333
965	0.7282
956	0.7175
947	0.6199
938	0.4604
929	0.4314
920	0.4635
911	0.5159
902	0.554
893	0.7294
884	0.7605
875	0.7074
866	0.6309
857	0.6508
848	0.674
839	0.6668
830	0.6619
821	0.7093
812	0.7525
803	0.7855
794	0.8105
785	0.8225
776	0.8308
767	0.8356
758	0.8367
749	0.8375
740	0.8368
731	0.8297
722	0.8247
713	0.8284
704	0.8302
695	0.8294
686	0.8246
677	0.8169
668	0.8082
659	0.8093
650	0.8098
641	0.8108
632	0.8099
623	0.8084
614	0.803
605	0.7921
596	0.7786
587	0.7644
578	0.7544
569	0.746
560	0.7392
551	0.7326
542	0.7274
533	0.7135
524	0.706
515	0.7054
506	0.706
497	0.7074
488	0.7078
479	0.7061
470	0.7047
461	0.7039
452	0.7031
443	0.7037
434	0.7044
425	0.7058
416	0.7074
407	0.7091
398	0.711
