Infrared Spectrum: 2-METHYL-PHENANTHRENE
Formula: C15 H12
CAS: 2531-84-2
State: SOLID (1% IN KI)
Class: COBLENTZ
Instrument: Not specified, most likely a prism, grating, or hybrid spectrometer.
Sampling: TRANSMISSION
Resolution: 4
Origin: CENTRE D'ETUDES NUCLEAIRES DE GRENOBLE
MICROMETERS	TRANSMITTANCE
1.982	0.267
2.02219	0.279
2.06237	0.296
2.10256	0.306
2.14274	0.319
2.18293	0.331
2.22311	0.339
2.2633	0.351
2.30348	0.359
2.34367	0.369
2.38386	0.382
2.42404	0.391
2.46423	0.402
2.50441	0.414
2.5446	0.425
2.58478	0.434
2.62497	0.447
2.66515	0.455
2.70534	0.467
2.74553	0.475
2.78571	0.489
2.8259	0.479
2.86608	0.464
2.90627	0.462
2.94645	0.469
2.98664	0.487
3.02683	0.5
3.06701	0.514
3.1072	0.525
3.14738	0.535
3.18757	0.545
3.22775	0.554
3.26794	0.542
3.30812	0.429
3.34831	0.391
3.3885	0.452
3.42868	0.455
3.46887	0.42
3.50905	0.469
3.54924	0.469
3.58942	0.587
3.62961	0.647
3.66979	0.665
3.70998	0.67
3.75017	0.68
3.79035	0.698
3.83054	0.705
3.87072	0.715
3.91091	0.725
3.95109	0.733
3.99128	0.74
4.03146	0.745
4.07165	0.748
4.11184	0.757
4.15202	0.763
4.19221	0.77
4.23239	0.777
4.27258	0.795
4.31276	0.805
4.35295	0.805
4.39314	0.795
4.43332	0.795
4.47351	0.801
4.51369	0.808
4.55388	0.813
4.59406	0.818
4.63425	0.823
4.67443	0.828
4.71462	0.83
4.75481	0.831
4.79499	0.838
4.83518	0.845
4.87536	0.846
4.91555	0.85
4.95573	0.853
4.99592	0.86
5.0361	0.861
5.07629	0.865
5.11648	0.865
5.15666	0.856
5.19685	0.845
5.23703	0.835
5.27722	0.825
5.3174	0.843
5.35759	0.87
5.39777	0.885
5.43796	0.883
5.47815	0.866
5.51833	0.868
5.55852	0.88
5.5987	0.868
5.63889	0.868
5.67907	0.813
5.71926	0.801
5.75944	0.846
5.79963	0.875
5.83982	0.883
5.88	0.885
5.92019	0.885
5.96037	0.881
6.00056	0.878
6.04074	0.88
6.08093	0.883
6.12112	0.89
6.1613	0.853
6.20149	0.79
6.24167	0.585
6.28186	0.732
6.32204	0.73
6.36223	0.846
6.40241	0.863
6.4426	0.846
6.48279	0.866
6.52297	0.865
6.56316	0.883
6.60334	0.855
6.64353	0.866
6.68371	0.865
6.7239	0.811
6.76408	0.69
6.80427	0.792
6.84446	0.811
6.88464	0.63
6.92483	0.628
6.96501	0.7
7.0052	0.718
7.04538	0.75
7.08557	0.742
7.12575	0.806
7.16594	0.863
7.20613	0.871
7.24631	0.858
7.2865	0.831
7.32668	0.695
7.36687	0.85
7.40705	0.888
7.44724	0.888
7.48742	0.84
7.52761	0.89
7.5678	0.906
7.60798	0.921
7.64817	0.91
7.68835	0.881
7.72854	0.742
7.76872	0.895
7.80891	0.916
7.8491	0.92
7.88928	0.916
7.92947	0.916
7.96965	0.878
8.00984	0.772
8.05002	0.457
8.09021	0.565
8.13039	0.773
8.17058	0.737
8.21077	0.758
8.25095	0.851
8.29114	0.888
8.33132	0.915
8.37151	0.863
8.41169	0.81
8.45188	0.851
8.49206	0.906
8.53225	0.918
8.57244	0.838
8.61262	0.861
8.65281	0.823
8.69299	0.838
8.73318	0.91
8.77336	0.818
8.81355	0.833
8.85373	0.923
8.89392	0.945
8.93411	0.958
8.97429	0.96
9.01448	0.963
9.05466	0.963
9.09485	0.96
9.13503	0.925
9.17522	0.92
9.21541	0.955
9.25559	0.958
9.29578	0.941
9.33596	0.953
9.37615	0.96
9.41633	0.96
9.45652	0.961
9.4967	0.963
9.53689	0.958
9.57708	0.945
9.61726	0.918
9.65745	0.84
9.69763	0.821
9.73782	0.853
9.778	0.883
9.81819	0.92
9.85837	0.915
9.89856	0.91
9.93875	0.918
9.97893	0.906
10.0191	0.835
10.0593	0.89
10.0995	0.948
10.1397	0.97
10.1799	0.981
10.22	0.986
10.2602	0.98
10.3004	0.973
10.3406	0.966
10.3808	0.961
10.421	0.951
10.4612	0.938
10.5013	0.846
10.5415	0.863
10.5817	0.896
10.6219	0.835
10.6621	0.875
10.7023	0.955
10.7425	0.983
10.7826	0.988
10.8228	0.981
10.863	0.983
10.9032	0.988
10.9434	0.991
10.9836	0.993
11.0238	0.996
11.0639	0.995
11.1041	0.99
11.1443	0.971
11.1845	0.951
11.2247	0.848
11.2649	0.402
11.3051	0.44
11.3452	0.56
11.3854	0.612
11.4256	0.773
11.4658	0.888
11.506	0.92
11.5462	0.88
11.5864	0.772
11.6265	0.823
11.6667	0.936
11.7069	0.966
11.7471	0.978
11.7873	0.981
11.8275	0.981
11.8677	0.975
11.9078	0.971
11.948	0.965
11.9882	0.95
12.0284	0.935
12.0686	0.9
12.1088	0.85
12.149	0.688
12.1891	0.284
12.2293	0.206
12.2695	0.143
12.3097	0.039
12.3499	0.093
12.3901	0.349
12.4303	0.584
12.4704	0.73
12.5106	0.82
12.5508	0.896
12.591	0.928
12.6312	0.95
12.6714	0.963
12.7116	0.973
12.7517	0.971
12.7919	0.96
12.8321	0.94
12.8723	0.792
12.9125	0.459
12.9527	0.608
12.9928	0.763
13.033	0.863
13.0732	0.9
13.1134	0.91
13.1536	0.913
13.1938	0.906
13.234	0.876
13.2741	0.855
13.3143	0.778
13.3545	0.407
13.3947	0.151
13.4349	0.086
13.4751	0.046
13.5153	0.159
13.5554	0.402
13.5956	0.592
13.6358	0.768
13.676	0.845
13.7162	0.888
13.7564	0.92
13.7966	0.933
13.8367	0.941
13.8769	0.925
13.9171	0.915
13.9573	0.93
13.9975	0.933
14.0377	0.881
14.0779	0.49
14.118	0.296
14.1582	0.457
14.1984	0.662
14.2386	0.826
14.2788	0.905
14.319	0.94
14.3592	0.956
14.3993	0.97
14.4395	0.976
14.4797	0.973
14.5199	0.986
14.5601	0.985
14.6003	0.981
14.6405	0.985
14.6806	0.988
14.7208	0.985
14.761	0.971
14.8012	0.933
14.8414	0.85
14.8816	0.78
14.9218	0.792
14.9619	0.858
15.0021	0.913
15.0423	0.926
15.0825	0.936
15.1227	0.956
15.1629	0.966
15.2031	0.98
15.2432	0.978
15.2834	0.976
15.3236	0.976
15.3638	0.98
15.404	0.973
15.4442	0.966
15.4844	0.97
15.5245	0.971
15.5647	0.971
15.6049	0.968
15.6451	0.963
15.6853	0.97
15.7255	0.971
15.7657	0.97
15.8058	0.965
15.846	0.961
15.8862	0.965
