Infrared Spectrum: 2-METHYL-PHENANTHRENE
Formula: C15 H12
CAS: 2531-84-2
State: SOLUTION (SATURATED IN BENZENE)
Class: COBLENTZ
Instrument: Not specified, most likely a prism, grating, or hybrid spectrometer.
Sampling: TRANSMISSION
Path length: 0.05 CM
Resolution: 4
Origin: CENTRE D'ETUDES NUCLEAIRES DE GRENOBLE
MICROMETERS	TRANSMITTANCE
15.353	0.576
15.4088	0.625
15.4646	0.705
15.5204	0.815
15.5761	0.887
15.6319	0.922
15.6877	0.942
15.7435	0.947
15.7993	0.952
15.8551	0.952
15.9108	0.947
15.9666	0.926
16.0224	0.897
16.0782	0.84
16.134	0.786
16.1898	0.749
16.2455	0.675
16.3013	0.591
16.3571	0.47
16.4129	0.334
16.4687	0.223
16.5245	0.139
16.5802	0.124
16.636	0.151
16.6918	0.258
16.7476	0.389
16.8034	0.482
16.8592	0.568
16.915	0.628
16.9707	0.645
17.0265	0.655
17.0823	0.665
17.1381	0.655
17.1939	0.633
17.2497	0.542
17.3054	0.411
17.3612	0.327
17.417	0.285
17.4728	0.339
17.5286	0.436
17.5844	0.552
17.6401	0.625
17.6959	0.675
17.7517	0.702
17.8075	0.705
17.8633	0.672
17.9191	0.61
17.9748	0.556
18.0306	0.526
18.0864	0.544
18.1422	0.603
18.198	0.662
18.2538	0.702
18.3096	0.726
18.3653	0.739
18.4211	0.737
18.4769	0.727
18.5327	0.704
18.5885	0.682
18.6443	0.665
18.7	0.657
18.7558	0.663
18.8116	0.678
18.8674	0.7
18.9232	0.712
18.979	0.715
19.0347	0.71
19.0905	0.699
19.1463	0.658
19.2021	0.605
19.2579	0.485
19.3137	0.418
19.3694	0.386
19.4252	0.411
19.481	0.452
19.5368	0.546
19.5926	0.598
19.6484	0.643
19.7042	0.657
19.7599	0.67
19.8157	0.648
19.8715	0.603
19.9273	0.5
19.9831	0.408
20.0389	0.347
20.0946	0.342
20.1504	0.396
20.2062	0.499
20.262	0.584
20.3178	0.663
20.3736	0.719
20.4293	0.754
20.4851	0.766
20.5409	0.769
20.5967	0.771
20.6525	0.771
20.7083	0.764
20.764	0.757
20.8198	0.739
20.8756	0.712
20.9314	0.695
20.9872	0.65
21.043	0.63
21.0988	0.588
21.1545	0.541
21.2103	0.5
21.2661	0.475
21.3219	0.423
21.3777	0.341
21.4335	0.289
21.4892	0.22
21.545	0.144
21.6008	0.121
21.6566	0.105
21.7124	0.112
21.7682	0.164
21.8239	0.248
21.8797	0.307
21.9355	0.349
21.9913	0.389
22.0471	0.41
22.1029	0.426
22.1586	0.423
22.2144	0.41
22.2702	0.394
22.326	0.359
22.3818	0.319
22.4376	0.278
22.4934	0.25
22.5491	0.188
22.6049	0.156
22.6607	0.115
22.7165	0.08
22.7723	0.055
22.8281	0.043
22.8838	0.036
22.9396	0.03
22.9954	0.028
23.0512	0.025
23.107	0.023
23.1628	0.02
23.2185	0.025
23.2743	0.028
23.3301	0.042
23.3859	0.075
23.4417	0.107
23.4975	0.144
23.5532	0.189
23.609	0.23
23.6648	0.278
23.7206	0.356
23.7764	0.384
23.8322	0.435
23.888	0.478
23.9437	0.507
23.9995	0.542
24.0553	0.578
24.1111	0.6
24.1669	0.62
24.2227	0.638
24.2784	0.65
24.3342	0.663
24.39	0.67
24.4458	0.673
24.5016	0.678
24.5574	0.682
24.6131	0.677
24.6689	0.668
24.7247	0.665
24.7805	0.672
24.8363	0.682
24.8921	0.684
24.9479	0.684
25.0036	0.687
25.0594	0.687
25.1152	0.682
25.171	0.678
25.2268	0.672
25.2826	0.66
25.3383	0.648
25.3941	0.635
25.4499	0.616
25.5057	0.613
25.5615	0.616
25.6173	0.62
25.673	0.643
25.7288	0.675
25.7846	0.699
25.8404	0.746
25.8962	0.764
25.952	0.778
26.0077	0.794
26.0635	0.81
26.1193	0.82
26.1751	0.83
26.2309	0.845
26.2867	0.848
26.3425	0.855
26.3982	0.862
26.454	0.863
26.5098	0.867
26.5656	0.877
26.6214	0.882
26.6772	0.884
26.7329	0.889
26.7887	0.892
26.8445	0.894
26.9003	0.895
26.9561	0.895
27.0119	0.897
27.0676	0.9
27.1234	0.904
27.1792	0.905
27.235	0.907
27.2908	0.909
27.3466	0.91
27.4023	0.912
27.4581	0.915
27.5139	0.915
27.5697	0.917
27.6255	0.919
27.6813	0.919
27.7371	0.919
27.7928	0.921
27.8486	0.921
27.9044	0.921
27.9602	0.922
28.016	0.926
28.0718	0.927
28.1275	0.927
28.1833	0.926
28.2391	0.926
28.2949	0.924
28.3507	0.924
28.4065	0.922
28.4622	0.919
28.518	0.917
28.5738	0.915
28.6296	0.915
28.6854	0.915
28.7412	0.919
28.7969	0.919
28.8527	0.917
28.9085	0.914
28.9643	0.912
29.0201	0.91
29.0759	0.91
29.1317	0.909
29.1874	0.91
29.2432	0.91
29.299	0.91
29.3548	0.909
29.4106	0.905
29.4664	0.899
29.5221	0.895
29.5779	0.895
29.6337	0.894
29.6895	0.892
29.7453	0.892
29.8011	0.889
29.8568	0.887
29.9126	0.88
29.9684	0.878
30.0242	0.877
30.08	0.872
30.1358	0.86
30.1915	0.857
30.2473	0.853
30.3031	0.847
30.3589	0.833
30.4147	0.828
30.4705	0.823
30.5263	0.808
30.582	0.801
30.6378	0.793
30.6936	0.773
30.7494	0.757
30.8052	0.736
30.861	0.705
30.9167	0.694
30.9725	0.667
31.0283	0.63
31.0841	0.605
31.1399	0.559
31.1957	0.532
31.2514	0.494
31.3072	0.458
31.363	0.428
31.4188	0.393
31.4746	0.352
31.5304	0.332
31.5861	0.307
31.6419	0.304
31.6977	0.3
31.7535	0.292
31.8093	0.297
31.8651	0.309
31.9209	0.321
31.9766	0.352
32.0324	0.376
32.0882	0.41
32.144	0.44
32.1998	0.484
32.2556	0.51
32.3113	0.547
32.3671	0.578
32.4229	0.618
32.4787	0.626
32.5345	0.668
32.5903	0.678
32.646	0.697
32.7018	0.714
32.7576	0.744
32.8134	0.749
32.8692	0.768
32.925	0.771
32.9807	0.781
33.0365	0.798
33.0923	0.801
33.1481	0.828
33.2039	0.833
33.2597	0.835
33.3155	0.836
33.3712	0.836
33.427	0.838
33.4828	0.84
33.5386	0.843
33.5944	0.855
33.6502	0.857
33.7059	0.858
33.7617	0.858
33.8175	0.858
33.8733	0.858
33.9291	0.858
33.9849	0.858
34.0406	0.86
34.0964	0.862
34.1522	0.863
34.208	0.863
34.2638	0.863
34.3196	0.862
34.3753	0.858
34.4311	0.86
34.4869	0.862
34.5427	0.862
34.5985	0.86
34.6543	0.858
34.7101	0.858
34.7658	0.855
34.8216	0.85
34.8774	0.847
34.9332	0.843
34.989	0.84
