Infrared Spectrum: 2-Methylphenanthrene
Formula: C15 H12
CAS: 2531-84-2
State: SOLUTION (10% CCl4 FOR 3800-1330, 10% CS2 FOR 1330-400 CM^-^1)
Class: COBLENTZ III
Instrument: BECKMAN IR-9 (GRATING)
Instrument parameters: ORDER CHANGES: 670, 1200, 2000 CM^-^1
Sampling: TRANSMISSION
Path length: 0.011 CM, 0.011 CM
Resolution: 2
Origin: DOW CHEMICAL COMPANY
1/CM	TRANSMITTANCE
3812	0.9065
3803	0.9085
3794	0.9094
3785	0.9103
3776	0.9112
3767	0.9119
3758	0.9129
3749	0.9137
3740	0.9142
3731	0.9154
3722	0.9153
3713	0.9153
3704	0.9165
3695	0.9151
3686	0.914
3677	0.914
3668	0.9141
3659	0.9141
3650	0.9142
3641	0.9143
3632	0.9155
3623	0.9157
3614	0.916
3605	0.9162
3596	0.9164
3587	0.9166
3578	0.9169
3569	0.9159
3560	0.9161
3551	0.9171
3542	0.9167
3533	0.9164
3524	0.9149
3515	0.9144
3506	0.9141
3497	0.9138
3488	0.9135
3479	0.9136
3470	0.9137
3461	0.9139
3452	0.9141
3443	0.9142
3434	0.9144
3425	0.9134
3416	0.9143
3407	0.9145
3398	0.9136
3389	0.9132
3380	0.9128
3371	0.9125
3362	0.9122
3353	0.9118
3344	0.9126
3335	0.9109
3326	0.9106
3317	0.9102
3308	0.9108
3299	0.9093
3290	0.9089
3281	0.9084
3272	0.909
3263	0.9083
3254	0.9077
3245	0.9063
3236	0.9063
3227	0.9054
3218	0.9049
3209	0.9044
3200	0.9029
3191	0.9035
3182	0.9005
3173	0.8976
3164	0.8949
3155	0.8885
3146	0.8817
3137	0.8718
3128	0.8517
3119	0.8261
3110	0.7973
3101	0.7772
3092	0.7057
3083	0.5084
3074	0.5517
3065	0.4942
3056	0.4909
3047	0.5386
3038	0.4836
3029	0.5158
3020	0.6161
3011	0.6838
3002	0.6998
2993	0.7157
2984	0.7187
2975	0.7217
2966	0.6959
2957	0.6862
2948	0.7025
2939	0.6846
2930	0.5569
2921	0.6383
2912	0.7634
2903	0.7909
2894	0.7944
2885	0.7818
2876	0.7315
2867	0.7363
2858	0.8096
2849	0.8655
2840	0.8823
2831	0.8895
2822	0.8942
2813	0.897
2804	0.8999
2795	0.9015
2786	0.9022
2777	0.9047
2768	0.9041
2759	0.9014
2750	0.884
2741	0.8795
2732	0.8908
2723	0.8985
2714	0.9029
2705	0.9059
2696	0.9067
2687	0.9073
2678	0.9074
2669	0.9074
2660	0.9074
2651	0.908
2642	0.9077
2633	0.904
2624	0.9045
2615	0.9064
2606	0.9083
2597	0.9093
2588	0.9094
2579	0.9095
2570	0.9096
2561	0.9097
2552	0.9099
2543	0.91
2534	0.9101
2525	0.9103
2516	0.9103
2507	0.91
2498	0.9097
2489	0.9095
2480	0.9105
2471	0.9105
2462	0.9104
2453	0.91
2444	0.9104
2435	0.9105
2426	0.9105
2417	0.9102
2408	0.9106
2399	0.9105
2390	0.9119
2381	0.9162
2372	0.9186
2363	0.9149
2354	0.9178
2345	0.9159
2336	0.9094
2327	0.9091
2318	0.9087
2309	0.9096
2300	0.914
2291	0.9193
2282	0.9205
2273	0.9219
2264	0.9221
2255	0.9235
2246	0.9246
2237	0.9254
2228	0.9254
2219	0.925
2210	0.9259
2201	0.9266
2192	0.9259
2183	0.9271
2174	0.9285
2165	0.9277
2156	0.9281
2147	0.9284
2138	0.9288
2129	0.9288
2120	0.9289
2111	0.929
2102	0.929
2093	0.9285
2084	0.9272
2075	0.9242
2066	0.9233
2057	0.9252
2048	0.926
2039	0.9264
2030	0.9238
2021	0.9207
2012	0.9193
2003	0.9167
1994	0.8942
1985	0.9176
1976	0.9159
1967	0.915
1958	0.9084
1949	0.8527
1940	0.8727
1931	0.8774
1922	0.8612
1913	0.8381
1904	0.8403
1895	0.8614
1886	0.878
1877	0.9077
1868	0.9131
1859	0.9094
1850	0.8995
1841	0.8592
1832	0.87
1823	0.8853
1814	0.8919
1805	0.8735
1796	0.9025
1787	0.903
1778	0.8831
1769	0.8104
1760	0.8335
1751	0.8544
1742	0.8962
1733	0.8955
1724	0.8918
1715	0.9052
1706	0.8887
1697	0.8939
1688	0.8745
1679	0.8822
1670	0.8725
1661	0.896
1652	0.8851
1643	0.8739
1634	0.7974
1625	0.6189
1616	0.72
1607	0.7919
1598	0.7552
1589	0.7888
1580	0.7972
1571	0.778
1562	0.7295
1553	0.6883
1544	0.7088
1535	0.7218
1526	0.6944
1517	0.8006
1508	0.809
1499	0.6147
1490	0.7002
1481	0.754
1472	0.6921
1463	0.3613
1454	0.6746
1445	0.6771
1436	0.7449
1427	0.7631
1418	0.8269
1409	0.8689
1400	0.8715
1391	0.874
1382	0.8497
1373	0.8846
1364	0.896
1355	0.8829
1346	0.8419
1337	0.8759
1328	0.8996
1319	0.8986
1310	0.8544
1301	0.8214
1292	0.9133
1283	0.9196
1274	0.9051
1265	0.9162
1256	0.8382
1247	0.6567
1238	0.7962
1229	0.7882
1220	0.8455
1211	0.9066
1202	0.8679
1193	0.8342
1184	0.9079
1175	0.8844
1166	0.8245
1157	0.8459
1148	0.8667
1139	0.8588
1130	0.9074
1121	0.9225
1112	0.921
1103	0.9126
1094	0.8637
1085	0.9231
1076	0.9179
1067	0.9138
1058	0.9026
1049	0.8746
1040	0.7276
1031	0.7897
1022	0.8622
1013	0.8719
1004	0.7856
995	0.8742
986	0.9066
977	0.8929
968	0.8864
959	0.8651
950	0.7441
941	0.7347
932	0.896
923	0.9033
914	0.9119
905	0.9001
896	0.8664
887	0.7922
878	0.3182
869	0.7834
860	0.5882
851	0.853
842	0.8847
833	0.867
824	0.767
815	0.2515
806	0.0898
797	0.8295
788	0.8704
779	0.843
770	0.5157
761	0.8475
752	0.7796
743	0.0225
734	0.7408
725	0.8866
716	0.8952
707	0.3011
698	0.9177
689	0.9387
680	0.8999
671	0.8882
662	0.928
653	0.8948
644	0.9199
635	0.9365
626	0.9382
617	0.9384
608	0.9163
599	0.6844
590	0.9396
581	0.9366
572	0.7935
563	0.9395
554	0.9195
545	0.9304
536	0.928
527	0.925
518	0.9042
509	0.8967
500	0.86
491	0.8726
482	0.87
473	0.8175
464	0.7341
455	0.7437
446	0.6844
437	0.4223
428	0.4748
419	0.4396
410	0.4688
