Infrared Spectrum: Sulfur hexafluoride
Formula: S F6
CAS: 2551-62-4
State: gas
Melting point: -50.5 C
Boiling point: -63.9 C (sublimes)
Class: IUPAC A
Instrument: IFS66V (Bruker)
Instrument parameters: KBr Beam Splitter; MCT Detector; Multipass cell
Sampling: 1 L/min Flow
Resolution: 1.9290
Temperature: 23 C
Pressure: 101.3 Pa
Origin: NIST, Analytical Chemistry Division, 301-975-3108
cm-1	(micromol/mol)-1m-1 (base 10)
575.652	-1.55879e-06
584.33	2.01829e-06
593.008	5.76366e-05
601.687	0.000307024
610.365	0.000182021
619.043	0.000186998
627.721	0.000419343
636.399	8.40879e-05
645.077	1.82898e-06
653.756	5.3145e-07
662.434	8.76175e-07
671.112	1.01017e-07
679.79	1.16005e-07
688.468	7.51585e-07
697.146	1.60608e-06
705.825	1.14523e-06
714.503	2.41584e-07
723.181	-2.2613e-07
731.859	9.31878e-08
740.537	1.96445e-08
749.216	9.07053e-07
757.894	-5.13348e-07
766.572	-5.92013e-07
775.25	-1.61085e-07
783.928	-1.08694e-06
792.606	-2.057e-07
801.285	-7.63721e-07
809.963	-2.08436e-07
818.641	2.37917e-07
827.319	-3.41844e-07
835.997	5.44051e-07
844.675	2.26043e-06
853.354	8.49057e-06
862.032	9.31226e-06
870.71	3.6353e-05
879.388	2.225e-05
888.066	2.03481e-05
896.744	3.62522e-06
905.423	1.94338e-06
914.101	1.15788e-05
922.779	0.000301324
931.457	0.000989291
940.135	0.00625204
948.814	0.0187701
957.492	6.83986e-05
966.17	2.39461e-05
974.848	4.13003e-05
983.526	0.000141817
992.204	0.000114952
1000.88	1.7543e-05
1009.56	1.58384e-06
1018.24	4.15038e-07
1026.92	5.9181e-07
1035.6	5.33982e-07
1044.27	2.58988e-07
1052.95	3.80434e-07
1061.63	1.45515e-07
1070.31	-5.41112e-07
1078.99	3.82995e-08
1087.66	-1.20021e-07
1096.34	-3.65912e-07
1105.02	-9.10691e-07
1113.7	-1.93128e-07
1122.38	4.31597e-08
1131.06	8.23935e-07
1139.73	6.2685e-07
1148.41	-1.89461e-07
1157.09	-3.75021e-07
1165.77	-6.01035e-07
1174.45	-3.39225e-07
1183.12	1.11464e-08
1191.8	2.28138e-07
1200.48	1.03112e-07
1209.16	3.06833e-07
1217.84	5.15414e-07
1226.52	2.59744e-07
1235.19	7.62062e-07
1243.87	5.52538e-06
1252.55	1.2865e-05
1261.23	9.53277e-06
1269.91	3.13087e-06
1278.58	1.29037e-06
1287.26	5.48126e-07
1295.94	-4.86573e-07
1304.62	-3.3841e-07
1313.3	-1.03141e-07
1321.98	-6.56273e-08
1330.65	7.33978e-08
1339.33	-1.95718e-07
1348.01	-1.67467e-06
1356.69	7.81331e-06
1365.37	-4.29851e-08
1374.04	2.00427e-06
1382.72	1.93305e-06
1391.4	2.23511e-07
1400.08	5.21089e-07
1408.76	9.21401e-08
1417.44	-1.63894e-06
1426.11	-4.43268e-07
1434.79	-6.2033e-07
1443.47	-9.65638e-08
1452.15	-2.77352e-08
1460.83	-3.79736e-07
1469.5	-8.14884e-10
1478.18	1.53082e-07
1486.86	-9.27542e-07
1495.54	-2.69619e-06
1504.22	-1.46088e-06
1512.89	-9.66278e-07
1521.57	-5.30545e-06
1530.25	-4.34333e-07
1538.93	-6.95925e-06
1547.61	1.22617e-06
1556.29	4.07957e-06
1564.96	1.67686e-05
1573.64	3.21017e-05
1582.32	4.19698e-05
1591	3.33094e-05
1599.68	2.19333e-05
1608.35	6.96505e-06
1617.03	-3.57097e-06
1625.71	8.18027e-07
1634.39	-9.94042e-07
1643.07	8.38399e-07
1651.75	-6.22307e-06
1660.42	-2.04885e-08
1669.1	-2.95535e-06
1677.78	-7.69571e-07
1686.46	-2.22798e-06
1695.14	-4.79553e-06
1703.81	2.25953e-06
1712.49	3.49257e-05
1721.17	3.77511e-05
1729.85	-1.77892e-06
1738.53	-1.94679e-06
1747.21	-9.94362e-07
1755.88	-1.00915e-06
1764.56	-1.10126e-07
1773.24	-3.10127e-06
1781.92	-2.45717e-07
1790.6	-6.43991e-07
1799.27	-6.23619e-07
1807.95	-3.3224e-07
1816.63	8.89679e-08
1825.31	-7.5953e-07
1833.99	-1.6967e-07
1842.67	-1.11497e-06
1851.34	-1.03522e-06
1860.02	-2.00485e-06
1868.7	-2.51432e-06
1877.38	-4.27229e-06
1886.06	-7.91596e-06
1894.73	-9.10147e-06
1903.41	-3.55348e-06
1912.09	-1.29604e-06
1920.77	-1.00932e-06
1929.45	-1.16828e-06
1938.13	-7.83977e-07
1946.8	-1.08086e-06
1955.48	-3.97576e-07
1964.16	-8.23266e-07
1972.84	-5.91169e-07
1981.52	-5.32992e-07
1990.19	-3.66261e-07
1998.87	-1.9403e-07
2007.55	-7.28215e-07
2016.23	-3.67542e-07
2024.91	-3.21123e-07
2033.59	-4.52348e-07
2042.26	-8.95732e-07
2050.94	-5.6195e-07
2059.62	-6.74142e-07
2068.3	-5.79383e-07
2076.98	-8.36857e-07
2085.65	-5.53394e-07
2094.33	-7.04293e-08
2103.01	1.92167e-07
2111.69	4.10498e-07
2120.37	3.33491e-07
2129.05	-1.67924e-08
2137.72	-4.60206e-07
2146.4	7.50857e-08
2155.08	3.54853e-07
2163.76	1.90188e-07
2172.44	7.34385e-07
2181.11	2.71822e-08
2189.79	9.06849e-08
2198.47	4.98243e-08
2207.15	4.53134e-08
2215.83	3.67251e-07
2224.51	4.54793e-07
2233.18	-1.31807e-07
2241.86	-5.83952e-07
2250.54	-4.39455e-07
2259.22	-5.84767e-07
2267.9	-7.71666e-07
2276.57	-7.83744e-07
2285.25	-7.75915e-07
2293.93	-6.97017e-07
2302.61	-1.25643e-06
2311.29	-1.93017e-06
2319.97	-3.67705e-06
2328.64	-6.68138e-06
2337.32	-7.74073e-06
2346	-4.60212e-06
2354.68	-6.67375e-06
2363.36	-9.94866e-06
2372.03	-5.23557e-06
2380.71	-1.36266e-06
2389.39	-9.36709e-07
2398.07	-8.78561e-07
2406.75	-7.84122e-07
2415.43	-5.7653e-07
2424.1	-9.82081e-07
2432.78	-9.91365e-07
2441.46	-1.30862e-06
2450.14	-1.2117e-06
2458.82	-9.46255e-07
2467.49	-1.00234e-06
2476.17	-8.68434e-07
2484.85	-8.94859e-07
2493.53	-6.11192e-07
2502.21	-5.94109e-07
2510.89	-8.49633e-07
2519.56	-5.76007e-07
2528.24	-4.97865e-07
2536.92	-1.06002e-06
2545.6	-8.24459e-07
2554.28	-1.05088e-06
2562.95	-1.02827e-06
2571.63	-1.12626e-06
2580.31	-1.06168e-06
2588.99	-1.58218e-06
2597.67	-1.43632e-06
2606.35	-1.69932e-06
2615.02	-1.48387e-06
2623.7	-1.67377e-06
2632.38	-1.64921e-06
2641.06	-1.42998e-06
2649.74	-1.47704e-06
2658.41	-1.47427e-06
2667.09	-1.2943e-06
2675.77	-1.57386e-06
2684.45	-1.36388e-06
2693.13	-1.36898e-06
2701.8	-4.39222e-07
2710.48	-1.24049e-06
2719.16	-1.41991e-06
2727.84	-1.48227e-06
2736.52	-1.66603e-06
2745.2	-1.46691e-06
2753.87	-1.29601e-06
2762.55	-1.17329e-06
2771.23	-1.23481e-06
2779.91	-1.74737e-06
2788.59	-1.11101e-06
2797.26	-1.03397e-06
2805.94	-1.40914e-06
2814.62	-1.1553e-06
2823.3	-1.68949e-06
2831.98	-1.22084e-06
2840.66	-2.17562e-06
2849.33	-9.01698e-07
2858.01	-2.3595e-06
2866.69	-1.20597e-06
2875.37	-6.11454e-07
2884.05	-1.05574e-06
2892.72	-9.49136e-07
2901.4	-7.61713e-07
2910.08	-1.13266e-06
2918.76	-1.23787e-06
2927.44	-6.04091e-07
2936.12	-9.75212e-07
2944.79	-8.29668e-07
2953.47	-7.46026e-07
2962.15	-1.11136e-06
2970.83	-8.21403e-07
2979.51	-2.04187e-07
2988.18	-8.24488e-07
2996.86	-6.61016e-07
3005.54	-7.83104e-07
3014.22	-4.30317e-07
3022.9	-7.2027e-07
3031.58	-4.8733e-07
3040.25	-2.60472e-08
3048.93	-1.55468e-07
3057.61	-5.67683e-07
3066.29	-1.12914e-06
3074.97	-8.57374e-07
3083.64	-9.46313e-07
3092.32	-7.71171e-07
3101	-1.14165e-06
3109.68	-1.06179e-06
3118.36	-1.00833e-06
3127.04	-1.07955e-06
3135.71	-6.61453e-07
3144.39	5.93701e-09
3153.07	-4.53978e-07
3161.75	-3.33375e-07
3170.43	-5.33225e-07
3179.1	6.08544e-08
3187.78	-2.51508e-07
3196.46	-7.07523e-07
3205.14	-5.74697e-07
3213.82	-6.73327e-07
3222.5	-1.72779e-06
3231.17	-1.32555e-06
3239.85	7.90437e-08
3248.53	-1.97286e-06
3257.21	5.83311e-07
3265.89	-1.30469e-06
3274.56	-3.01303e-07
3283.24	4.29968e-07
3291.92	2.46793e-08
3300.6	-1.33292e-07
3309.28	3.49818e-07
3317.96	-5.47136e-08
3326.63	1.03886e-06
3335.31	2.47841e-07
3343.99	3.13381e-07
3352.67	-2.12248e-07
3361.35	-6.45912e-07
3370.02	-5.49232e-07
3378.7	-1.01177e-06
3387.38	-1.23414e-06
3396.06	-1.22832e-06
3404.74	-1.17387e-06
3413.42	-8.09238e-07
3422.09	-1.09052e-06
3430.77	-7.18495e-07
3439.45	-4.06249e-07
3448.13	-5.73649e-07
3456.81	-1.61784e-07
3465.48	1.00987e-08
3474.16	-7.02692e-07
3482.84	9.35661e-08
3491.52	-3.33462e-07
3500.2	-4.83226e-07
3508.88	-5.37823e-07
3517.55	-5.8011e-07
3526.23	-1.35454e-06
3534.91	-5.18761e-07
3543.59	-7.2126e-07
3552.27	-1.4282e-06
3560.94	-6.3203e-07
3569.62	-7.98936e-07
3578.3	-4.64047e-07
3586.98	-1.57188e-06
3595.66	-6.30225e-07
3604.34	3.94753e-07
3613.01	-9.0228e-07
3621.69	-2.0538e-07
3630.37	-2.5895e-06
3639.05	-3.53369e-07
3647.73	-2.4083e-06
3656.4	-2.54049e-06
3665.08	-3.95772e-07
3673.76	-2.21357e-06
3682.44	-9.53851e-07
3691.12	-2.35923e-06
3699.8	-6.99636e-07
3708.47	-1.98893e-06
3717.15	-1.2216e-06
3725.83	-1.97772e-06
3734.51	-2.68286e-06
3743.19	-4.37273e-06
3751.86	-6.25671e-06
3760.54	-1.24165e-06
3769.22	-1.66472e-06
3777.9	-6.34911e-07
3786.58	-6.41692e-07
3795.26	-1.53722e-06
3803.93	-1.71667e-06
3812.61	-2.86839e-07
3821.29	-4.22212e-06
3829.97	-1.15847e-06
3838.65	-5.43205e-06
3847.32	-1.53437e-06
3856	-3.51553e-06
3864.68	-3.75373e-06
3873.36	-2.64855e-06
3882.04	-2.73126e-06
3890.71	-3.58889e-06
3899.39	-3.75536e-06
3908.07	-2.17111e-06
3916.75	-3.32563e-06
3925.43	-2.3895e-06
3934.11	-2.48807e-06
3942.78	-2.28581e-06
3951.46	-1.87677e-06
3960.14	-1.55273e-06
3968.82	-1.31077e-06
