Infrared Spectrum: Sulfur hexafluoride
Formula: S F6
CAS: 2551-62-4
State: gas
Melting point: -50.5 C
Boiling point: -63.9 C (sublimes)
Class: IUPAC A
Instrument: IFS66V (Bruker)
Instrument parameters: KBr Beam Splitter; MCT Detector; Multipass cell
Sampling: 1 L/min Flow
Resolution: 1.9290
Temperature: 23 C
Pressure: 101.3 Pa
Origin: NIST, Analytical Chemistry Division, 301-975-3108
cm-1	(micromol/mol)-1m-1 (base 10)
575.652	-4.8311e-08
584.33	4.1236e-06
593.008	6.13731e-05
601.687	0.000301921
610.365	0.000202296
619.043	0.000205757
627.721	0.000411
636.399	8.81594e-05
645.077	5.26069e-06
653.756	1.98092e-06
662.434	1.85095e-06
671.112	9.44916e-07
679.79	9.26901e-07
688.468	1.30271e-06
697.146	2.28703e-06
705.825	1.7763e-06
714.503	8.32055e-07
723.181	7.32231e-08
731.859	7.60956e-07
740.537	5.66403e-07
749.216	1.69574e-06
757.894	2.78836e-07
766.572	2.04507e-07
775.25	6.62006e-07
783.928	-1.06954e-07
792.606	8.94364e-07
801.285	3.04446e-07
809.963	1.08126e-06
818.641	1.57206e-06
827.319	1.2888e-06
835.997	2.41243e-06
844.675	4.4199e-06
853.354	1.08424e-05
862.032	1.28293e-05
870.71	3.82834e-05
879.388	2.707e-05
888.066	2.65276e-05
896.744	1.37657e-05
905.423	1.64037e-05
914.101	3.89053e-05
922.779	0.000341928
931.457	0.00104411
940.135	0.00627202
948.814	0.0171798
957.492	0.000243368
966.17	7.97011e-05
974.848	6.56407e-05
983.526	0.000153069
992.204	0.000119673
1000.88	2.59793e-05
1009.56	7.04421e-06
1018.24	4.90906e-06
1026.92	3.7441e-06
1035.6	3.40825e-06
1044.27	2.3806e-06
1052.95	2.2911e-06
1061.63	1.76329e-06
1070.31	9.38077e-07
1078.99	1.30256e-06
1087.66	1.06112e-06
1096.34	5.82555e-07
1105.02	9.76406e-08
1113.7	5.12096e-07
1122.38	8.28417e-07
1131.06	1.38786e-06
1139.73	1.19529e-06
1148.41	2.86956e-07
1157.09	1.76044e-07
1165.77	-9.42937e-08
1174.45	1.11959e-07
1183.12	4.36254e-07
1191.8	6.5019e-07
1200.48	5.71321e-07
1209.16	6.90643e-07
1217.84	8.0982e-07
1226.52	6.28799e-07
1235.19	1.13833e-06
1243.87	5.74284e-06
1252.55	1.28237e-05
1261.23	9.67884e-06
1269.91	3.40246e-06
1278.58	1.52712e-06
1287.26	7.86363e-07
1295.94	-2.34366e-07
1304.62	-1.66615e-07
1313.3	7.58715e-08
1321.98	9.10051e-08
1330.65	1.73221e-07
1339.33	-1.4534e-07
1348.01	-1.29244e-06
1356.69	7.46181e-06
1365.37	1.27238e-07
1374.04	2.02761e-06
1382.72	1.97219e-06
1391.4	4.77493e-07
1400.08	6.86278e-07
1408.76	2.0666e-07
1417.44	-1.28685e-06
1426.11	-3.62012e-07
1434.79	-2.32096e-07
1443.47	-1.54246e-08
1452.15	-7.95967e-08
1460.83	-3.29446e-07
1469.5	5.23854e-10
1478.18	2.75926e-07
1486.86	-9.95846e-07
1495.54	-2.68589e-06
1504.22	-9.23496e-07
1512.89	-1.02699e-06
1521.57	-5.38516e-06
1530.25	-3.2671e-07
1538.93	-7.15977e-06
1547.61	1.27521e-06
1556.29	4.96145e-06
1564.96	1.65736e-05
1573.64	3.17118e-05
1582.32	4.12467e-05
1591	3.34624e-05
1599.68	2.18011e-05
1608.35	7.24944e-06
1617.03	-3.90379e-06
1625.71	1.05137e-06
1634.39	-4.15678e-07
1643.07	6.86598e-07
1651.75	-5.3496e-06
1660.42	-5.43353e-08
1669.1	-3.23847e-06
1677.78	-8.19046e-07
1686.46	-1.16304e-06
1695.14	-4.59493e-06
1703.81	2.39183e-06
1712.49	3.41656e-05
1721.17	3.6771e-05
1729.85	-1.50864e-06
1738.53	-1.53204e-06
1747.21	-8.52922e-07
1755.88	-9.16017e-07
1764.56	-2.42544e-07
1773.24	-3.15916e-06
1781.92	-1.94961e-07
1790.6	-5.86629e-07
1799.27	-7.29292e-07
1807.95	-3.77641e-07
1816.63	9.31005e-08
1825.31	-9.15784e-07
1833.99	-1.68972e-07
1842.67	-6.94805e-07
1851.34	-9.94508e-07
1860.02	-2.05528e-06
1868.7	-2.50757e-06
1877.38	-4.22549e-06
1886.06	-7.75653e-06
1894.73	-8.91198e-06
1903.41	-3.83394e-06
1912.09	-1.26569e-06
1920.77	-1.01791e-06
1929.45	-1.14346e-06
1938.13	-8.21549e-07
1946.8	-1.05362e-06
1955.48	-3.68386e-07
1964.16	-8.12963e-07
1972.84	-6.0348e-07
1981.52	-5.36776e-07
1990.19	-3.06542e-07
1998.87	-1.61231e-07
2007.55	-7.53768e-07
2016.23	-3.504e-07
2024.91	-3.19376e-07
2033.59	-4.47953e-07
2042.26	-8.47916e-07
2050.94	-5.07585e-07
2059.62	-6.44078e-07
2068.3	-4.7758e-07
2076.98	-7.96113e-07
2085.65	-4.88116e-07
2094.33	5.18033e-09
2103.01	3.49469e-07
2111.69	6.09912e-07
2120.37	4.43006e-07
2129.05	-1.47174e-07
2137.72	-4.24671e-07
2146.4	6.18148e-08
2155.08	4.3378e-07
2163.76	1.86259e-09
2172.44	9.57285e-07
2181.11	-1.25056e-07
2189.79	3.06658e-07
2198.47	-5.7071e-08
2207.15	1.39956e-07
2215.83	4.01214e-07
2224.51	4.47924e-07
2233.18	-9.10342e-08
2241.86	-5.2269e-07
2250.54	-3.4458e-07
2259.22	-5.52841e-07
2267.9	-7.80659e-07
2276.57	-7.4396e-07
2285.25	-8.17125e-07
2293.93	-7.18204e-07
2302.61	-1.30693e-06
2311.29	-1.91899e-06
2319.97	-3.62763e-06
2328.64	-6.62661e-06
2337.32	-7.62807e-06
2346	-4.62761e-06
2354.68	-6.62978e-06
2363.36	-9.7248e-06
2372.03	-5.1627e-06
2380.71	-1.41883e-06
2389.39	-9.50591e-07
2398.07	-9.50009e-07
2406.75	-7.66689e-07
2415.43	-5.49261e-07
2424.1	-9.8633e-07
2432.78	-9.36535e-07
2441.46	-1.25646e-06
2450.14	-1.22532e-06
2458.82	-9.4771e-07
2467.49	-1.01014e-06
2476.17	-8.70383e-07
2484.85	-9.38281e-07
2493.53	-5.70361e-07
2502.21	-5.38231e-07
2510.89	-8.8316e-07
2519.56	-4.63407e-07
2528.24	-5.01125e-07
2536.92	-1.06156e-06
2545.6	-7.6829e-07
2554.28	-1.02865e-06
2562.95	-9.35458e-07
2571.63	-1.09453e-06
2580.31	-1.04727e-06
2588.99	-1.52389e-06
2597.67	-1.375e-06
2606.35	-1.64019e-06
2615.02	-1.45244e-06
2623.7	-1.57089e-06
2632.38	-1.6364e-06
2641.06	-1.37011e-06
2649.74	-1.43719e-06
2658.41	-1.56691e-06
2667.09	-1.32975e-06
2675.77	-1.61362e-06
2684.45	-1.28437e-06
2693.13	-1.36321e-06
2701.8	-4.74815e-07
2710.48	-1.22203e-06
2719.16	-1.46027e-06
2727.84	-1.47983e-06
2736.52	-1.62465e-06
2745.2	-1.42282e-06
2753.87	-1.32308e-06
2762.55	-1.21418e-06
2771.23	-1.17713e-06
2779.91	-1.75418e-06
2788.59	-1.06339e-06
2797.26	-1.00146e-06
2805.94	-1.43571e-06
2814.62	-1.16965e-06
2823.3	-1.6419e-06
2831.98	-1.15879e-06
2840.66	-2.10892e-06
2849.33	-9.61359e-07
2858.01	-2.33019e-06
2866.69	-1.19514e-06
2875.37	-5.96612e-07
2884.05	-1.02498e-06
2892.72	-8.53067e-07
2901.4	-7.18e-07
2910.08	-1.21377e-06
2918.76	-1.19823e-06
2927.44	-5.61804e-07
2936.12	-1.08161e-06
2944.79	-8.78998e-07
2953.47	-7.48995e-07
2962.15	-1.11133e-06
2970.83	-8.11595e-07
2979.51	-2.09047e-07
2988.18	-9.08945e-07
2996.86	-6.79206e-07
3005.54	-8.0659e-07
3014.22	-4.25777e-07
3022.9	-7.44542e-07
3031.58	-4.65764e-07
3040.25	1.29508e-08
3048.93	-2.20164e-07
3057.61	-6.04266e-07
3066.29	-1.21086e-06
3074.97	-8.57695e-07
3083.64	-9.73495e-07
3092.32	-7.88284e-07
3101	-1.11165e-06
3109.68	-9.74427e-07
3118.36	-1.1436e-06
3127.04	-1.02774e-06
3135.71	-7.10841e-07
3144.39	3.69317e-08
3153.07	-4.72109e-07
3161.75	-4.21441e-07
3170.43	-4.98069e-07
3179.1	1.1487e-07
3187.78	-1.84455e-07
3196.46	-6.73152e-07
3205.14	-5.05403e-07
3213.82	-7.51032e-07
3222.5	-1.63311e-06
3231.17	-1.25175e-06
3239.85	5.60815e-08
3248.53	-1.80165e-06
3257.21	6.60493e-07
3265.89	-1.2904e-06
3274.56	-2.66554e-07
3283.24	4.20218e-07
3291.92	7.91602e-08
3300.6	-2.05991e-07
3309.28	3.90097e-07
3317.96	5.18324e-08
3326.63	1.06433e-06
3335.31	2.81688e-07
3343.99	3.30261e-07
3352.67	-2.14285e-07
3361.35	-5.98678e-07
3370.02	-4.92888e-07
3378.7	-9.72651e-07
3387.38	-1.3007e-06
3396.06	-1.1792e-06
3404.74	-1.15274e-06
3413.42	-8.25157e-07
3422.09	-1.0833e-06
3430.77	-6.08049e-07
3439.45	-3.78106e-07
3448.13	-5.36106e-07
3456.81	-1.9077e-07
3465.48	-1.71126e-08
3474.16	-6.67827e-07
3482.84	1.63763e-07
3491.52	-2.46706e-07
3500.2	-4.00981e-07
3508.88	-5.14832e-07
3517.55	-6.47134e-07
3526.23	-1.35006e-06
3534.91	-3.78776e-07
3543.59	-7.37383e-07
3552.27	-1.35192e-06
3560.94	-6.48415e-07
3569.62	-6.68321e-07
3578.3	-4.15213e-07
3586.98	-1.39217e-06
3595.66	-6.83397e-07
3604.34	3.00227e-07
3613.01	-9.22914e-07
3621.69	-2.29506e-07
3630.37	-2.23354e-06
3639.05	-4.56946e-07
3647.73	-2.09716e-06
3656.4	-2.81964e-06
3665.08	-4.9673e-07
3673.76	-2.11512e-06
3682.44	-8.98468e-07
3691.12	-2.71295e-06
3699.8	-5.77491e-07
3708.47	-1.81635e-06
3717.15	-1.26633e-06
3725.83	-1.85823e-06
3734.51	-2.77491e-06
3743.19	-3.29955e-06
3751.86	-6.96665e-06
3760.54	-1.22899e-06
3769.22	-1.65643e-06
3777.9	-5.25193e-07
3786.58	-5.52288e-07
3795.26	-1.51996e-06
3803.93	-1.91329e-06
3812.61	-3.68851e-07
3821.29	-4.43102e-06
3829.97	-9.61359e-07
3838.65	-5.17783e-06
3847.32	-1.71271e-06
3856	-2.548e-06
3864.68	-3.95775e-06
3873.36	-2.70437e-06
3882.04	-2.50882e-06
3890.71	-3.72329e-06
3899.39	-4.05635e-06
3908.07	-2.17513e-06
3916.75	-3.3747e-06
3925.43	-2.44878e-06
3934.11	-2.43711e-06
3942.78	-2.40461e-06
3951.46	-1.7832e-06
3960.14	-1.45591e-06
3968.82	-1.31563e-06
