Infrared Spectrum: Sulfur hexafluoride
Formula: S F6
CAS: 2551-62-4
State: gas
Melting point: -50.5 C
Boiling point: -63.9 C (sublimes)
Class: IUPAC A
Instrument: IFS66V (Bruker)
Instrument parameters: KBr Beam Splitter; MCT Detector; Multipass cell
Sampling: 1 L/min Flow
Resolution: 0.9640
Temperature: 23 C
Pressure: 101.3 Pa
Origin: NIST, Analytical Chemistry Division, 301-975-3108
cm-1	(micromol/mol)-1m-1 (base 10)
575.17	-3.95015e-07
583.848	8.33743e-07
592.526	5.20413e-05
601.205	0.00029949
609.883	0.000187647
618.561	0.00014588
627.239	0.000434385
635.917	9.26538e-05
644.595	1.42971e-06
653.274	-2.36878e-06
661.952	2.86694e-07
670.63	-9.10837e-07
679.308	-5.90733e-07
687.986	1.64068e-06
696.664	9.12903e-07
705.343	1.47127e-06
714.021	3.78921e-08
722.699	-1.44098e-06
731.377	5.48301e-07
740.055	1.65622e-06
748.734	1.24651e-06
757.412	-8.30309e-08
766.09	7.05253e-07
774.768	7.46376e-07
783.446	6.63839e-08
792.124	5.80779e-07
800.803	-5.65413e-07
809.481	5.20216e-07
818.159	-9.92034e-07
826.837	2.1868e-07
835.515	1.63137e-06
844.193	1.76353e-06
852.872	1.00142e-05
861.55	1.0514e-05
870.228	6.901e-05
878.906	2.27363e-05
887.584	2.34488e-05
896.262	6.12627e-06
904.941	4.55689e-06
913.619	1.27136e-05
922.297	0.000248728
930.975	0.00101706
939.653	0.00493808
948.332	0.0209037
957.01	6.60626e-05
965.688	1.91903e-05
974.366	3.46908e-05
983.044	0.000136634
991.722	0.000122462
1000.4	1.70717e-05
1009.08	-6.88868e-08
1017.76	-1.34165e-06
1026.44	-1.26228e-06
1035.11	-6.20389e-07
1043.79	-5.4833e-07
1052.47	-5.29529e-07
1061.15	-7.10375e-07
1069.83	-2.32489e-06
1078.5	-1.21325e-06
1087.18	-2.9039e-07
1095.86	-1.06054e-06
1104.54	-1.42311e-06
1113.22	-8.89009e-07
1121.9	-3.36634e-07
1130.57	2.55175e-07
1139.25	-5.42567e-07
1147.93	-5.80779e-07
1156.61	-1.24142e-06
1165.29	-8.43114e-07
1173.96	-5.86105e-07
1182.64	-3.53165e-07
1191.32	-6.67623e-08
1200	-8.48352e-08
1208.68	-1.58029e-07
1217.35	2.56688e-08
1226.03	-1.49706e-07
1234.71	7.09677e-07
1243.39	4.78852e-06
1252.07	1.16701e-05
1260.75	8.85872e-06
1269.42	3.54224e-06
1278.1	3.55726e-07
1286.78	6.73065e-07
1295.46	-8.26874e-07
1304.14	-6.06827e-07
1312.81	-3.96587e-07
1321.49	-8.88689e-07
1330.17	-6.07496e-07
1338.85	-5.26677e-07
1347.53	-1.53457e-06
1356.21	9.74729e-06
1364.88	-6.39044e-07
1373.56	1.40084e-06
1382.24	1.39322e-06
1390.92	-5.47864e-07
1399.6	-4.51824e-07
1408.27	2.15857e-07
1416.95	-1.47413e-06
1425.63	-9.60836e-07
1434.31	-2.21619e-07
1442.99	-2.70512e-07
1451.67	-6.66197e-07
1460.34	-3.75429e-09
1469.02	4.43006e-07
1477.7	1.35125e-07
1486.38	-6.75743e-07
1495.06	-5.51327e-07
1503.73	-2.36084e-07
1512.41	-2.49966e-06
1521.09	-9.29602e-06
1529.77	-3.11606e-07
1538.45	-4.99448e-06
1547.13	1.01156e-06
1555.8	4.81922e-06
1564.48	1.50974e-05
1573.16	3.11576e-05
1581.84	4.11171e-05
1590.52	3.25506e-05
1599.19	2.29743e-05
1607.87	7.38128e-06
1616.55	-9.33834e-06
1625.23	9.04609e-07
1633.91	1.48105e-06
1642.59	8.57112e-07
1651.26	-1.00711e-06
1659.94	2.55292e-07
1668.62	-2.16238e-06
1677.3	-1.00635e-06
1685.98	-1.30195e-06
1694.65	-4.71963e-07
1703.33	2.30181e-06
1712.01	3.09188e-05
1720.69	3.4321e-05
1729.37	-1.71588e-06
1738.05	-1.15242e-06
1746.72	-8.67066e-07
1755.4	-5.07178e-07
1764.08	-3.04708e-07
1772.76	-7.455e-06
1781.44	-4.09974e-07
1790.11	-6.58601e-08
1798.79	-3.01071e-07
1807.47	-6.58834e-07
1816.15	-9.25475e-09
1824.83	-1.29008e-06
1833.51	-3.88496e-07
1842.18	-5.68061e-07
1850.86	-1.23222e-06
1859.54	-2.44608e-06
1868.22	-2.12816e-06
1876.9	-4.36076e-06
1885.57	-7.99803e-06
1894.25	-8.83116e-06
1902.93	-5.06532e-06
1911.61	-1.32675e-06
1920.29	-1.14366e-06
1928.97	-1.27864e-06
1937.64	-1.12975e-06
1946.32	-1.16691e-06
1955	-6.42274e-07
1963.68	-1.08339e-06
1972.36	-9.65376e-07
1981.03	-8.30512e-07
1989.71	-5.71001e-07
1998.39	-6.03887e-07
2007.07	-9.94595e-07
2015.75	-3.41407e-07
2024.43	-4.97458e-07
2033.1	-6.31331e-07
2041.78	-7.96083e-07
2050.46	-3.37246e-07
2059.14	-9.70818e-07
2067.82	-5.09535e-07
2076.49	-1.09279e-06
2085.17	-1.01019e-06
2093.85	-4.03309e-07
2102.53	-5.12504e-07
2111.21	1.25772e-06
2119.89	1.71277e-06
2128.56	-8.67851e-08
2137.24	-2.13121e-07
2145.92	-4.91171e-07
2154.6	1.23886e-06
2163.28	-2.30729e-07
2171.95	-3.91057e-07
2180.63	-2.75314e-07
2189.31	-6.77489e-07
2197.99	-1.5314e-07
2206.67	4.43472e-07
2215.35	4.83605e-07
2224.02	2.7025e-07
2232.7	-2.37015e-07
2241.38	-1.01302e-06
2250.06	-1.85066e-07
2258.74	-6.52635e-07
2267.41	-1.00039e-06
2276.09	-9.31412e-07
2284.77	-9.56645e-07
2293.45	-8.40902e-07
2302.13	-1.84141e-06
2310.81	-2.43295e-06
2319.48	-4.59539e-06
2328.16	-5.93174e-06
2336.84	-3.61305e-06
2345.52	-4.51952e-06
2354.2	-7.62426e-06
2362.87	-1.2859e-05
2371.55	-6.13867e-06
2380.23	-1.49263e-06
2388.91	-7.14013e-07
2397.59	-7.71753e-07
2406.26	-6.37676e-07
2414.94	-4.50893e-07
2423.62	-1.07297e-06
2432.3	-1.10786e-06
2440.98	-1.41446e-06
2449.66	-1.22218e-06
2458.33	-1.15652e-06
2467.01	-8.99137e-07
2475.69	-9.15668e-07
2484.37	-1.04567e-06
2493.05	-5.97659e-07
2501.72	-5.14046e-07
2510.4	-7.39187e-07
2519.08	-5.45157e-07
2527.76	-3.29388e-07
2536.44	-1.26883e-06
2545.12	-5.16636e-07
2553.79	-9.98931e-07
2562.47	-7.05806e-07
2571.15	-1.18569e-06
2579.83	-9.37204e-07
2588.51	-1.68009e-06
2597.18	-1.34066e-06
2605.86	-1.57479e-06
2614.54	-1.36284e-06
2623.22	-1.53632e-06
2631.9	-1.78198e-06
2640.58	-1.16642e-06
2649.25	-1.07931e-06
2657.93	-1.69598e-06
2666.61	-1.43181e-06
2675.29	-1.64094e-06
2683.97	-1.15105e-06
2692.64	-1.40664e-06
2701.32	-1.17701e-06
2710	-1.62494e-06
2718.68	-1.65413e-06
2727.36	-1.55992e-06
2736.04	-1.64388e-06
2744.71	-1.57945e-06
2753.39	-1.63087e-06
2762.07	-1.42023e-06
2770.75	-9.80335e-07
2779.43	-1.70389e-06
2788.1	-9.315e-07
2796.78	-1.21569e-06
2805.46	-1.66786e-06
2814.14	-1.06066e-06
2822.82	-1.72005e-06
2831.5	-8.29552e-07
2840.17	-1.77814e-06
2848.85	-8.53475e-07
2857.53	-2.32018e-06
2866.21	-1.175e-06
2874.89	-5.60582e-07
2883.56	-1.24983e-06
2892.24	-6.41721e-07
2900.92	-7.33658e-07
2909.6	-1.60573e-06
2918.28	-1.50675e-06
2926.96	-7.59064e-07
2935.63	-1.19218e-06
2944.31	-1.21627e-06
2952.99	-6.71872e-07
2961.67	-2.50065e-06
2970.35	-1.43198e-06
2979.02	-2.05904e-07
2987.7	-9.56674e-07
2996.38	-1.10603e-06
3005.06	-6.68729e-07
3013.74	-2.81106e-07
3022.42	-6.92244e-07
3031.09	-3.19202e-07
3039.77	1.92138e-07
3048.45	1.30964e-07
3057.13	-5.80023e-07
3065.81	-1.17931e-06
3074.48	-7.35142e-07
3083.16	-9.50038e-07
3091.84	-8.33917e-07
3100.52	-8.38457e-07
3109.2	-1.0496e-06
3117.88	-6.2455e-07
3126.55	-1.2766e-06
3135.23	-1.12824e-06
3143.91	1.6839e-07
3152.59	-2.77061e-07
3161.27	-4.71963e-07
3169.94	-2.1577e-07
3178.62	4.37418e-07
3187.3	-5.16287e-08
3195.98	-2.98393e-07
3204.66	-2.14635e-07
3213.34	-1.26045e-06
3222.01	-2.21503e-06
3230.69	-1.05961e-06
3239.37	3.46413e-07
3248.05	-1.87813e-06
3256.73	5.49668e-07
3265.4	-1.68236e-06
3274.08	-1.00813e-07
3282.76	4.72109e-07
3291.44	1.18478e-07
3300.12	-2.69843e-07
3308.8	3.71442e-07
3317.47	3.21792e-07
3326.15	1.44706e-06
3334.83	3.89165e-07
3343.51	5.38609e-07
3352.19	1.00493e-07
3360.86	-1.45166e-07
3369.54	-8.9579e-08
3378.22	-6.48444e-07
3386.9	-1.53836e-06
3395.58	-1.19832e-06
3404.26	-1.20792e-06
3412.93	-9.73175e-07
3421.61	-1.1952e-06
3430.29	-6.43526e-07
3438.97	1.95281e-08
3447.65	-8.44627e-07
3456.32	2.18011e-07
3465	-5.32207e-07
3473.68	-1.22713e-06
3482.36	7.65438e-07
3491.04	-3.69346e-07
3499.71	5.10467e-08
3508.39	5.08051e-07
3517.07	-1.0739e-06
3525.75	-1.57104e-06
3534.43	-2.35763e-07
3543.11	-9.026e-07
3551.78	-1.46595e-06
3560.46	-3.74497e-07
3569.14	-5.8369e-07
3577.82	-3.07619e-07
3586.5	-2.67314e-06
3595.17	-8.98613e-07
3603.85	3.72635e-07
3612.53	-2.3565e-06
3621.21	-1.68506e-07
3629.89	-5.37937e-06
3638.57	-6.22397e-07
3647.24	-3.34647e-06
3655.92	-3.44236e-06
3664.6	-2.25694e-07
3673.28	-8.0755e-07
3681.96	-6.73734e-07
3690.63	-2.46482e-06
3699.31	-7.6084e-07
3707.99	-7.34938e-07
3716.67	-1.12489e-06
3725.35	-1.3681e-06
3734.03	-1.08458e-06
3742.7	-1.73498e-06
3751.38	-2.44829e-06
3760.06	-2.3565e-06
3768.74	-4.68296e-07
3777.42	-3.16408e-07
3786.09	-1.69991e-07
3794.77	-8.74603e-07
3803.45	-9.3831e-07
3812.13	1.32506e-07
3820.81	-5.20676e-06
3829.49	-1.00714e-06
3838.16	-1.00923e-05
3846.84	-1.06424e-06
3855.52	-2.5734e-06
3864.2	-2.63266e-06
3872.88	-1.68081e-06
3881.55	-2.80381e-06
3890.23	-2.57078e-06
3898.91	-3.86348e-06
3907.59	-2.0584e-06
3916.27	-2.86359e-06
3924.95	-2.70309e-06
3933.62	-2.59261e-06
3942.3	-2.6397e-06
3950.98	-1.80881e-06
3959.66	-1.18682e-06
3968.34	-7.20096e-07
