Infrared Spectrum: Sulfur hexafluoride
Formula: S F6
CAS: 2551-62-4
State: gas
Melting point: -50.5 C
Boiling point: -63.9 C (sublimes)
Class: IUPAC A
Instrument: IFS66V (Bruker)
Instrument parameters: KBr Beam Splitter; MCT Detector; Multipass cell
Sampling: 1 L/min Flow
Resolution: 1.9290
Temperature: 23 C
Pressure: 101.3 Pa
Origin: NIST, Analytical Chemistry Division, 301-975-3108
cm-1	(micromol/mol)-1m-1 (base 10)
575.652	-9.41657e-07
584.33	-6.47134e-07
593.008	5.89118e-05
601.687	0.000304524
610.365	0.000179661
619.043	0.000196071
627.721	0.000416565
636.399	8.64141e-05
645.077	-4.44636e-07
653.756	2.22877e-06
662.434	-5.87386e-07
671.112	1.63978e-06
679.79	-1.05105e-06
688.468	1.932e-06
697.146	7.18524e-07
705.825	2.24317e-06
714.503	-7.48966e-07
723.181	3.35616e-07
731.859	-7.56358e-07
740.537	7.59094e-07
749.216	3.22519e-07
757.894	3.27962e-07
766.572	-1.32646e-06
775.25	6.88199e-07
783.928	-1.79403e-06
792.606	6.97221e-07
801.285	-1.51417e-06
809.963	5.82118e-07
818.641	-5.60495e-07
827.319	3.80638e-07
835.997	-2.63731e-07
844.675	3.01071e-06
853.354	7.52542e-06
862.032	1.01909e-05
870.71	3.5332e-05
879.388	2.32594e-05
888.066	1.93378e-05
896.744	4.80368e-06
905.423	6.72658e-07
914.101	1.31075e-05
922.779	0.00029515
931.457	0.000963209
940.135	0.00613392
948.814	0.0182021
957.492	7.1264e-05
966.17	2.17838e-05
974.848	4.23688e-05
983.526	0.000142257
992.204	0.000115019
1000.88	1.67355e-05
1009.56	1.92598e-06
1018.24	8.58539e-09
1026.92	8.3255e-07
1035.6	3.28398e-07
1044.27	4.42278e-07
1052.95	1.95252e-07
1061.63	3.94142e-07
1070.31	-6.66342e-07
1078.99	2.30147e-07
1087.66	-1.11232e-07
1096.34	-2.68854e-07
1105.02	-8.74691e-07
1113.7	-1.92196e-07
1122.38	1.04014e-07
1131.06	8.0691e-07
1139.73	6.24376e-07
1148.41	-2.36084e-07
1157.09	-3.03341e-07
1165.77	-5.81914e-07
1174.45	-2.80669e-07
1183.12	2.48249e-08
1191.8	3.42251e-07
1200.48	1.80642e-07
1209.16	4.23012e-07
1217.84	4.46644e-07
1226.52	3.73508e-07
1235.19	6.97599e-07
1243.87	5.57707e-06
1252.55	1.28111e-05
1261.23	9.64994e-06
1269.91	2.97587e-06
1278.58	1.36857e-06
1287.26	4.94722e-07
1295.94	-3.96296e-07
1304.62	-4.69926e-07
1313.3	-5.38406e-09
1321.98	-1.6708e-07
1330.65	1.13269e-07
1339.33	-3.76651e-07
1348.01	-1.50497e-06
1356.69	7.91334e-06
1365.37	1.32186e-07
1374.04	1.87505e-06
1382.72	1.95211e-06
1391.4	1.19264e-07
1400.08	7.02692e-07
1408.76	1.80439e-08
1417.44	-1.35151e-06
1426.11	-5.23272e-07
1434.79	-1.71737e-07
1443.47	-1.91236e-07
1452.15	5.24727e-08
1460.83	-4.94314e-07
1469.5	2.11957e-07
1478.18	1.24765e-07
1486.86	-9.2501e-07
1495.54	-3.10739e-06
1504.22	-7.58075e-07
1512.89	-1.22713e-06
1521.57	-5.79938e-06
1530.25	-4.2406e-07
1538.93	-7.69769e-06
1547.61	1.17442e-06
1556.29	4.8937e-06
1564.96	1.65162e-05
1573.64	3.243e-05
1582.32	4.16948e-05
1591	3.32674e-05
1599.68	2.17681e-05
1608.35	7.08495e-06
1617.03	-4.76145e-06
1625.71	1.10705e-06
1634.39	-8.76262e-07
1643.07	9.92092e-07
1651.75	-6.11256e-06
1660.42	2.05846e-07
1669.1	-3.64125e-06
1677.78	-5.27958e-07
1686.46	-1.45204e-06
1695.14	-5.10327e-06
1703.81	1.94944e-06
1712.49	3.50998e-05
1721.17	3.80462e-05
1729.85	-1.75087e-06
1738.53	-1.90645e-06
1747.21	-7.96607e-07
1755.88	-1.17317e-06
1764.56	-1.59775e-08
1773.24	-3.56395e-06
1781.92	-2.1187e-08
1790.6	-7.7769e-07
1799.27	-6.25336e-07
1807.95	-5.63347e-07
1816.63	2.2063e-07
1825.31	-1.11756e-06
1833.99	-3.11111e-08
1842.67	-9.38572e-07
1851.34	-8.42008e-07
1860.02	-2.28389e-06
1868.7	-2.42507e-06
1877.38	-4.41667e-06
1886.06	-7.7471e-06
1894.73	-9.29949e-06
1903.41	-3.58016e-06
1912.09	-1.37791e-06
1920.77	-8.38836e-07
1929.45	-1.32026e-06
1938.13	-6.56214e-07
1946.8	-1.26854e-06
1955.48	-2.32708e-07
1964.16	-1.00336e-06
1972.84	-4.80141e-07
1981.52	-7.35462e-07
1990.19	-1.69147e-07
1998.87	-3.41698e-07
2007.55	-6.77692e-07
2016.23	-5.27637e-07
2024.91	-1.97115e-07
2033.59	-6.16431e-07
2042.26	-7.55572e-07
2050.94	-6.69922e-07
2059.62	-5.04675e-07
2068.3	-6.39771e-07
2076.98	-6.66255e-07
2085.65	-6.42303e-07
2094.33	1.76335e-07
2103.01	2.4496e-07
2111.69	8.361e-07
2120.37	2.73219e-07
2129.05	-1.68506e-08
2137.72	-6.28858e-07
2146.4	2.16439e-07
2155.08	2.76886e-07
2163.76	1.2037e-07
2172.44	8.001e-07
2181.11	-2.66001e-08
2189.79	8.85313e-08
2198.47	7.77341e-08
2207.15	-3.96674e-08
2215.83	5.42742e-07
2224.51	2.88411e-07
2233.18	2.83754e-08
2241.86	-7.15206e-07
2250.54	-2.15711e-07
2259.22	-7.34531e-07
2267.9	-6.53333e-07
2276.57	-9.2664e-07
2285.25	-6.50889e-07
2293.93	-8.45442e-07
2302.61	-1.14995e-06
2311.29	-2.11553e-06
2319.97	-3.38322e-06
2328.64	-6.97899e-06
2337.32	-7.59798e-06
2346	-4.80924e-06
2354.68	-6.56779e-06
2363.36	-1.01544e-05
2372.03	-5.0721e-06
2380.71	-1.50672e-06
2389.39	-7.80892e-07
2398.07	-1.11447e-06
2406.75	-6.22426e-07
2415.43	-6.89275e-07
2424.1	-8.49051e-07
2432.78	-1.10685e-06
2441.46	-1.15513e-06
2450.14	-1.40518e-06
2458.82	-8.0854e-07
2467.49	-1.17751e-06
2476.17	-7.17389e-07
2484.85	-1.08854e-06
2493.53	-4.17017e-07
2502.21	-6.7484e-07
2510.89	-7.44688e-07
2519.56	-5.73591e-07
2528.24	-3.1699e-07
2536.92	-1.24025e-06
2545.6	-6.32059e-07
2554.28	-1.20629e-06
2562.95	-7.91136e-07
2571.63	-1.25597e-06
2580.31	-8.85488e-07
2588.99	-1.70634e-06
2597.67	-1.23106e-06
2606.35	-1.81088e-06
2615.02	-1.28702e-06
2623.7	-1.75116e-06
2632.38	-1.50986e-06
2641.06	-1.5369e-06
2649.74	-1.31362e-06
2658.41	-1.73684e-06
2667.09	-1.17611e-06
2675.77	-1.80718e-06
2684.45	-1.15562e-06
2693.13	-1.51909e-06
2701.8	-2.68271e-07
2710.48	-1.34112e-06
2719.16	-1.31557e-06
2727.84	-1.65151e-06
2736.52	-1.56909e-06
2745.2	-1.60951e-06
2753.87	-1.20091e-06
2762.55	-1.34872e-06
2771.23	-1.01543e-06
2779.91	-1.95136e-06
2788.59	-8.92123e-07
2797.26	-1.10082e-06
2805.94	-1.29252e-06
2814.62	-1.29802e-06
2823.3	-1.55975e-06
2831.98	-1.32605e-06
2840.66	-2.09073e-06
2849.33	-1.12658e-06
2858.01	-2.36709e-06
2866.69	-1.37922e-06
2875.37	-4.39688e-07
2884.05	-1.20818e-06
2892.72	-7.52633e-07
2901.4	-8.9451e-07
2910.08	-1.10845e-06
2918.76	-1.43585e-06
2927.44	-4.14689e-07
2936.12	-1.26822e-06
2944.79	-7.53127e-07
2953.47	-9.10109e-07
2962.15	-1.05132e-06
2970.83	-9.80189e-07
2979.51	-7.33105e-08
2988.18	-1.08333e-06
2996.86	-5.61775e-07
3005.54	-9.85107e-07
3014.22	-2.74267e-07
3022.9	-8.99516e-07
3031.58	-3.43183e-07
3040.25	-9.9183e-08
3048.93	-5.52375e-08
3057.61	-7.44135e-07
3066.29	-1.08685e-06
3074.97	-1.0122e-06
3083.64	-8.30425e-07
3092.32	-9.20906e-07
3101	-1.00402e-06
3109.68	-1.16007e-06
3118.36	-1.03225e-06
3127.04	-1.21327e-06
3135.71	-5.72019e-07
3144.39	-4.27523e-08
3153.07	-3.34393e-07
3161.75	-5.43499e-07
3170.43	-3.68706e-07
3179.1	-2.88702e-08
3187.78	-3.76593e-08
3196.46	-8.49458e-07
3205.14	-3.58549e-07
3213.82	-8.95121e-07
3222.5	-1.63239e-06
3231.17	-1.46999e-06
3239.85	2.83609e-07
3248.53	-2.08086e-06
3257.21	8.90232e-07
3265.89	-1.52561e-06
3274.56	-1.22669e-07
3283.24	3.29009e-07
3291.92	2.28575e-07
3300.6	-3.58607e-07
3309.28	5.23708e-07
3317.96	-1.56982e-07
3326.63	1.28816e-06
3335.31	1.39432e-07
3343.99	4.86864e-07
3352.67	-3.60935e-07
3361.35	-4.75805e-07
3370.02	-6.19312e-07
3378.7	-8.68521e-07
3387.38	-1.46906e-06
3396.06	-1.09296e-06
3404.74	-1.34735e-06
3413.42	-6.7711e-07
3422.09	-1.281e-06
3430.77	-5.00688e-07
3439.45	-4.85031e-07
3448.13	-4.61253e-07
3456.81	-3.26798e-07
3465.48	1.51103e-07
3474.16	-9.05016e-07
3482.84	3.34073e-07
3491.52	-3.88787e-07
3500.2	-2.65041e-07
3508.88	-6.69253e-07
3517.55	-4.97428e-07
3526.23	-1.53227e-06
3534.91	-2.37597e-07
3543.59	-8.71489e-07
3552.27	-1.26403e-06
3560.94	-7.77399e-07
3569.62	-5.71175e-07
3578.3	-6.04411e-07
3586.98	-1.48111e-06
3595.66	-8.34558e-07
3604.34	5.20245e-07
3613.01	-1.11444e-06
3621.69	-6.56564e-08
3630.37	-2.56915e-06
3639.05	-3.17863e-07
3647.73	-2.39553e-06
3656.4	-2.82942e-06
3665.08	-6.226e-07
3673.76	-1.81018e-06
3682.44	-1.04285e-06
3691.12	-2.46543e-06
3699.8	-6.9821e-07
3708.47	-1.76178e-06
3717.15	-1.34857e-06
3725.83	-1.77249e-06
3734.51	-2.88777e-06
3743.19	-3.48558e-06
3751.86	-7.31687e-06
3760.54	-1.13691e-06
3769.22	-1.89295e-06
3777.9	-4.55869e-07
3786.58	-7.00888e-07
3795.26	-1.51775e-06
3803.93	-1.84295e-06
3812.61	-3.05582e-08
3821.29	-4.78913e-06
3829.97	-8.11275e-07
3838.65	-5.64744e-06
3847.32	-1.41522e-06
3856	-2.78123e-06
3864.68	-3.90312e-06
3873.36	-2.76863e-06
3882.04	-2.41316e-06
3890.71	-3.89969e-06
3899.39	-3.99447e-06
3908.07	-2.26753e-06
3916.75	-3.41233e-06
3925.43	-2.63787e-06
3934.11	-2.44483e-06
3942.78	-2.63077e-06
3951.46	-1.77386e-06
3960.14	-1.61909e-06
3968.82	-1.22864e-06
