Infrared Spectrum: Sulfur hexafluoride
Formula: S F6
CAS: 2551-62-4
State: gas
Melting point: -50.5 C
Boiling point: -63.9 C (sublimes)
Class: IUPAC A
Instrument: IFS66V (Bruker)
Instrument parameters: KBr Beam Splitter; MCT Detector; Multipass cell
Sampling: 1 L/min Flow
Resolution: 0.4820
Temperature: 23 C
Pressure: 101.3 Pa
Origin: NIST, Analytical Chemistry Division, 301-975-3108
cm-1	(micromol/mol)-1m-1 (base 10)
575.17	-9.26248e-07
583.848	-4.38345e-06
592.526	5.44393e-05
601.205	0.000295271
609.883	0.000185878
618.561	0.000169747
627.239	0.000434929
635.917	9.44012e-05
644.595	2.75377e-06
653.274	-1.48329e-06
661.952	1.40081e-06
670.63	-1.888e-06
679.308	2.45575e-07
687.986	2.20703e-06
696.664	1.3227e-06
705.343	1.93369e-06
714.021	-2.42607e-07
722.699	-4.4866e-07
731.377	1.57793e-06
740.055	2.55628e-06
748.733	1.06525e-06
757.412	-1.00815e-07
766.09	1.20902e-06
774.768	4.49882e-07
783.446	5.93711e-09
792.124	6.90684e-07
800.803	-1.77456e-06
809.481	-4.00057e-07
818.159	-1.58102e-06
826.837	-3.01512e-07
835.515	1.11525e-06
844.193	1.23917e-06
852.872	9.22476e-06
861.55	1.00723e-05
870.228	7.81773e-05
878.906	2.32038e-05
887.584	2.26667e-05
896.262	6.65242e-06
904.941	5.93752e-06
913.619	1.60832e-05
922.297	0.000255565
930.975	0.000871646
939.653	0.00494704
948.332	0.0169946
957.01	0.00012533
965.688	3.83891e-05
974.366	4.50094e-05
983.044	0.000141756
991.722	0.00011715
1000.4	2.10007e-05
1009.08	3.44376e-06
1017.76	1.45174e-06
1026.44	3.76774e-07
1035.11	1.56618e-06
1043.79	1.22986e-06
1052.47	1.19679e-06
1061.15	7.69497e-07
1069.83	-8.50346e-07
1078.5	-4.73805e-08
1087.18	8.33175e-07
1095.86	3.44469e-07
1104.54	-6.0838e-07
1113.22	3.19091e-07
1121.9	6.69555e-07
1130.57	1.29575e-06
1139.25	3.11175e-07
1147.93	5.0058e-08
1156.61	-5.44119e-07
1165.29	-2.23864e-07
1173.96	-4.51453e-07
1182.64	-3.30849e-07
1191.32	7.34281e-07
1200	7.31837e-07
1208.68	8.37133e-07
1217.35	2.53608e-07
1226.03	5.75143e-07
1234.71	1.31385e-06
1243.39	4.78205e-06
1252.07	1.22863e-05
1260.75	9.19647e-06
1269.42	4.46494e-06
1278.1	8.53198e-07
1286.78	1.63195e-06
1295.46	-3.1164e-07
1304.14	-1.61699e-07
1312.81	1.93829e-07
1321.49	-9.08961e-07
1330.17	1.00116e-08
1338.85	-6.37367e-08
1347.53	-9.97377e-07
1356.21	1.01657e-05
1364.88	-1.74912e-07
1373.56	1.25873e-06
1382.24	1.86821e-06
1390.92	-2.25901e-07
1399.6	4.00639e-07
1408.27	9.80904e-07
1416.95	-1.07846e-06
1425.63	-8.85911e-07
1434.31	1.45867e-07
1442.99	-1.76891e-07
1451.67	-4.79335e-07
1460.34	4.60359e-07
1469.02	1.0883e-06
1477.7	3.98194e-07
1486.38	-4.42781e-07
1495.06	-1.80151e-07
1503.73	-4.58671e-08
1512.41	-3.48148e-06
1521.09	-1.13563e-05
1529.77	-2.9348e-07
1538.45	-3.11227e-06
1547.13	1.10262e-06
1555.8	5.05662e-06
1564.48	1.57469e-05
1573.16	3.10747e-05
1581.84	4.12787e-05
1590.52	3.29715e-05
1599.19	2.32688e-05
1607.87	7.79229e-06
1616.55	-1.19952e-05
1625.23	1.18306e-06
1633.91	1.4876e-06
1642.59	9.74385e-07
1651.26	-7.72582e-07
1659.94	4.49649e-07
1668.62	-1.38719e-06
1677.3	-7.62395e-07
1685.98	-1.31449e-06
1694.65	-2.66588e-07
1703.33	2.59172e-06
1712.01	3.09849e-05
1720.69	3.52166e-05
1729.37	-1.33818e-06
1738.05	-8.25666e-07
1746.72	-3.98602e-07
1755.4	-5.4115e-07
1764.08	-2.06984e-07
1772.76	-1.12277e-05
1781.44	-1.81431e-07
1790.11	2.54365e-08
1798.79	9.89519e-10
1807.47	-5.04713e-07
1816.15	3.02502e-07
1824.83	-5.51511e-07
1833.51	-3.0873e-07
1842.18	-5.43479e-07
1850.86	-1.52043e-06
1859.54	-2.36687e-06
1868.22	-2.15855e-06
1876.9	-4.27519e-06
1885.57	-7.7562e-06
1894.25	-8.98012e-06
1902.93	-4.93106e-06
1911.61	-1.2759e-06
1920.29	-9.73512e-07
1928.97	-1.17782e-06
1937.64	-1.19511e-06
1946.32	-8.52325e-07
1955	-5.09311e-07
1963.68	-1.16618e-06
1972.36	-6.88181e-07
1981.03	-7.02442e-07
1989.71	-6.43304e-07
1998.39	-7.54887e-07
2007.07	-8.4761e-07
2015.75	-1.266e-07
2024.43	-4.68217e-07
2033.1	-7.19962e-07
2041.78	-6.02442e-07
2050.46	-2.87193e-07
2059.14	-8.58611e-07
2067.82	-3.94236e-07
2076.49	-8.07448e-07
2085.17	-1.00296e-06
2093.85	-3.46797e-07
2102.53	-7.73571e-07
2111.21	6.47262e-07
2119.89	2.23014e-06
2128.56	-1.55413e-07
2137.24	-1.24156e-07
2145.92	-2.33759e-07
2154.6	2.29266e-06
2163.28	-4.33642e-08
2171.95	-3.53258e-07
2180.63	-1.56984e-07
2189.31	-6.5448e-07
2197.99	-1.55005e-07
2206.67	3.98718e-07
2215.35	6.60591e-07
2224.02	5.76308e-07
2232.7	-2.16705e-07
2241.38	-7.58786e-07
2250.06	-1.27823e-07
2258.74	-4.76599e-07
2267.41	-9.43361e-07
2276.09	-8.34223e-07
2284.77	-8.57855e-07
2293.45	-6.52733e-07
2302.13	-1.5174e-06
2310.8	-2.15372e-06
2319.48	-3.89108e-06
2328.16	-3.7572e-06
2336.84	-3.08718e-06
2345.52	-3.38381e-06
2354.2	-8.28885e-06
2362.87	-1.93132e-05
2371.55	-8.05637e-06
2380.23	-1.26135e-06
2388.91	-6.52326e-07
2397.59	-5.98775e-07
2406.26	-7.62745e-07
2414.94	-3.53899e-07
2423.62	-1.06757e-06
2432.3	-1.21618e-06
2440.98	-1.21821e-06
2449.66	-1.33265e-06
2458.33	-9.19263e-07
2467.01	-3.00057e-07
2475.69	-9.12104e-07
2484.37	-1.20093e-06
2493.05	-5.32187e-07
2501.72	-4.11698e-07
2510.4	-4.7235e-07
2519.08	-4.02734e-07
2527.76	-2.44295e-07
2536.44	-1.16216e-06
2545.12	-4.14259e-07
2553.79	-9.41149e-07
2562.47	-7.75899e-07
2571.15	-1.04645e-06
2579.83	-7.53315e-07
2588.51	-1.9575e-06
2597.18	-1.19278e-06
2605.86	-1.41431e-06
2614.54	-1.28713e-06
2623.22	-1.41251e-06
2631.9	-1.62473e-06
2640.58	-1.17048e-06
2649.25	-7.43071e-07
2657.93	-1.83241e-06
2666.61	-1.4323e-06
2675.29	-1.97886e-06
2683.97	-9.13268e-07
2692.64	-1.35378e-06
2701.32	-1.14551e-06
2710	-1.54446e-06
2718.68	-1.80133e-06
2727.36	-1.41018e-06
2736.04	-1.38725e-06
2744.71	-1.71903e-06
2753.39	-1.78404e-06
2762.07	-1.27246e-06
2770.75	-9.04479e-07
2779.43	-1.46734e-06
2788.1	-8.32826e-07
2796.78	-1.27526e-06
2805.46	-1.74959e-06
2814.14	-1.32485e-06
2822.82	-1.89778e-06
2831.5	-5.93362e-07
2840.17	-1.65104e-06
2848.85	-9.60648e-07
2857.53	-2.40907e-06
2866.21	-1.03294e-06
2874.89	-4.10476e-07
2883.56	-1.33376e-06
2892.24	-2.07392e-07
2900.92	-7.27355e-07
2909.6	-2.04726e-06
2918.28	-1.61239e-06
2926.96	-1.03614e-06
2935.63	-1.07363e-06
2944.31	-1.02066e-06
2952.99	-7.07914e-07
2961.67	-2.5504e-06
2970.35	-1.83399e-06
2979.02	-2.0745e-07
2987.7	-1.24924e-06
2996.38	-1.16036e-06
3005.06	-6.28461e-07
3013.74	-5.83583e-07
3022.42	-1.14336e-06
3031.09	-3.09254e-07
3039.77	1.59254e-07
3048.45	2.11524e-07
3057.13	-7.59776e-07
3065.81	-1.46047e-06
3074.48	-4.24096e-07
3083.16	-9.94234e-07
3091.84	-1.01321e-06
3100.52	-7.70079e-07
3109.2	-1.08486e-06
3117.88	-5.55411e-07
3126.55	-1.38154e-06
3135.23	-1.49813e-06
3143.91	1.3114e-07
3152.59	-4.43596e-07
3161.27	-5.86436e-07
3169.94	-1.49243e-07
3178.62	7.96563e-07
3187.3	-5.23863e-08
3195.98	-3.46273e-07
3204.66	-2.16879e-07
3213.34	-1.50238e-06
3222.01	-2.57944e-06
3230.69	-8.97959e-07
3239.37	5.46506e-07
3248.05	-1.53992e-06
3256.73	4.44876e-07
3265.4	-1.76082e-06
3274.08	-2.99766e-08
3282.76	8.24968e-07
3291.44	3.53608e-07
3300.12	-9.1385e-09
3308.8	2.62688e-07
3317.47	6.26482e-07
3326.15	1.16088e-06
3334.83	6.3434e-07
3343.51	3.64958e-07
3352.19	-1.0128e-07
3360.86	-1.72991e-07
3369.54	-2.02328e-07
3378.22	-7.18856e-07
3386.9	-1.63934e-06
3395.58	-1.4848e-06
3404.26	-1.52724e-06
3412.93	-1.17863e-06
3421.61	-1.12223e-06
3430.29	-5.08729e-07
3438.97	-1.94295e-07
3447.65	-1.01222e-06
3456.32	6.6356e-08
3465	-9.05526e-07
3473.68	-1.46967e-06
3482.36	8.48774e-07
3491.04	-5.59136e-07
3499.71	-4.95167e-07
3508.39	1.00605e-06
3517.07	-1.43847e-06
3525.75	-1.99027e-06
3534.43	-4.03607e-07
3543.11	-1.23201e-06
3551.78	-1.6926e-06
3560.46	-1.57159e-07
3569.14	-5.3143e-08
3577.82	-3.99242e-07
3586.5	-3.71832e-06
3595.17	-1.45407e-06
3603.85	3.65074e-07
3612.53	-3.62502e-06
3621.21	-2.13096e-07
3629.89	-4.5586e-06
3638.57	-6.72058e-07
3647.24	-3.53852e-06
3655.92	-2.49597e-06
3664.6	-4.94759e-07
3673.28	-1.08073e-06
3681.96	-1.00366e-06
3690.63	-2.33544e-06
3699.31	-5.42547e-07
3707.99	-6.8271e-07
3716.67	-1.29173e-06
3725.35	-1.26932e-06
3734.03	-9.22348e-07
3742.7	-2.11029e-06
3751.38	-2.03189e-06
3760.06	-3.07647e-06
3768.74	-7.44991e-07
3777.42	-3.18159e-07
3786.09	-1.77648e-07
3794.77	-1.33189e-06
3803.45	-3.93945e-07
3812.13	-4.87193e-08
3820.81	-7.18344e-06
3829.49	-1.33428e-06
3838.16	-9.16696e-06
3846.84	-4.53083e-07
3855.52	-2.70633e-06
3864.2	-3.30709e-06
3872.88	-2.11297e-06
3881.55	-3.3873e-06
3890.23	-3.30982e-06
3898.91	-3.6157e-06
3907.59	-2.07007e-06
3916.27	-2.84545e-06
3924.95	-3.09848e-06
3933.62	-2.63945e-06
3942.3	-2.59359e-06
3950.98	-2.25139e-06
3959.66	-1.44132e-06
3968.34	-8.752e-07
