Infrared Spectrum: Sulfur hexafluoride
Formula: S F6
CAS: 2551-62-4
State: gas
Melting point: -50.5 C
Boiling point: -63.9 C (sublimes)
Class: IUPAC A
Instrument: IFS66V (Bruker)
Instrument parameters: KBr Beam Splitter; MCT Detector; Multipass cell
Sampling: 1 L/min Flow
Resolution: 0.4820
Temperature: 23 C
Pressure: 101.3 Pa
Origin: NIST, Analytical Chemistry Division, 301-975-3108
cm-1	(micromol/mol)-1m-1 (base 10)
575.17	2.19138e-06
583.848	-8.01976e-06
592.526	6.35426e-05
601.205	0.000299931
609.883	0.000186161
618.561	0.000152641
627.239	0.000435542
635.917	9.03502e-05
644.595	1.13329e-06
653.274	-3.2114e-06
661.952	4.53141e-06
670.63	-5.10243e-06
679.308	1.33038e-06
687.986	2.05378e-06
696.664	9.21824e-07
705.343	2.77898e-06
714.021	6.61523e-07
722.699	1.55011e-06
731.377	4.83229e-06
740.055	4.10546e-06
748.733	2.24138e-06
757.412	3.59719e-08
766.09	2.86582e-06
774.768	1.84155e-06
783.446	1.49214e-06
792.124	2.25965e-06
800.803	-1.76297e-06
809.481	-3.10476e-07
818.159	-7.05818e-07
826.837	1.60669e-06
835.515	1.90698e-06
844.193	2.76594e-06
852.872	1.08858e-05
861.55	1.14257e-05
870.228	9.82179e-05
878.906	2.65645e-05
887.584	2.42915e-05
896.262	9.60171e-06
904.941	9.23157e-06
913.619	1.86859e-05
922.297	0.000252607
930.975	0.000792112
939.653	0.00487491
948.332	0.0139223
957.01	4.15469e-05
965.688	9.01545e-06
974.366	2.78711e-05
983.044	0.00013064
991.722	9.7439e-05
1000.4	1.30607e-05
1009.08	-2.27811e-06
1017.76	-2.77362e-06
1026.44	-5.05935e-06
1035.11	-2.12467e-06
1043.79	-1.93457e-06
1052.47	-1.77857e-06
1061.15	-1.70028e-06
1069.83	-2.87182e-06
1078.5	-2.23992e-06
1087.18	-1.38032e-06
1095.86	-1.1156e-06
1104.54	-3.24236e-06
1113.22	-1.60232e-06
1121.9	-6.67692e-07
1130.57	-6.68042e-07
1139.25	-1.64633e-06
1147.93	-1.72863e-06
1156.61	-1.82822e-06
1165.29	-1.29854e-06
1173.96	-2.94655e-06
1182.64	-2.06594e-06
1191.32	-3.51803e-07
1200	-2.68334e-08
1208.68	3.1781e-08
1217.35	-1.18579e-06
1226.03	6.08845e-08
1234.71	-2.5483e-07
1243.39	2.51489e-06
1252.07	1.14115e-05
1260.75	7.56505e-06
1269.42	3.74457e-06
1278.1	-8.44584e-08
1286.78	1.60942e-06
1295.46	-1.12532e-06
1304.14	-1.01693e-06
1312.81	-3.93712e-07
1321.49	-2.41414e-06
1330.17	-5.03491e-08
1338.85	-5.27646e-07
1347.53	-2.28992e-06
1356.21	9.30084e-06
1364.88	-1.82886e-07
1373.56	6.9668e-07
1382.24	1.31117e-06
1390.92	-1.02462e-06
1399.6	4.58555e-07
1408.27	1.15512e-06
1416.95	-2.05756e-06
1425.63	-1.7029e-06
1434.31	-3.06693e-07
1442.99	-1.04912e-06
1451.67	-9.5087e-07
1460.34	-3.98718e-08
1469.02	6.22175e-07
1477.7	2.59952e-07
1486.38	-9.85095e-07
1495.06	-1.17753e-07
1503.73	2.1327e-07
1512.41	-5.80184e-06
1521.09	-1.35794e-05
1529.77	-5.57623e-07
1538.45	-4.41506e-06
1547.13	-1.02852e-07
1555.8	5.47414e-06
1564.48	1.61251e-05
1573.16	3.07797e-05
1581.84	4.17815e-05
1590.52	3.14559e-05
1599.19	2.27783e-05
1607.87	7.65195e-06
1616.55	-1.59694e-05
1625.23	1.00145e-06
1633.91	1.20972e-06
1642.59	4.63444e-07
1651.26	-1.47182e-06
1659.94	5.89171e-07
1668.62	-6.18449e-07
1677.3	-8.10183e-07
1685.98	-2.29091e-06
1694.65	1.12724e-06
1703.33	1.04359e-06
1712.01	3.06076e-05
1720.69	3.45874e-05
1729.37	-2.36111e-06
1738.05	-3.87542e-07
1746.72	2.52095e-07
1755.4	-1.48387e-06
1764.08	-6.53781e-07
1772.76	-1.82882e-05
1781.44	-4.10068e-07
1790.11	-4.31954e-07
1798.79	-3.07333e-07
1807.47	-7.88879e-07
1816.15	4.25493e-07
1824.83	-4.3015e-08
1833.51	-6.50638e-07
1842.18	-1.27264e-06
1850.86	-2.35517e-06
1859.54	-2.73323e-06
1868.22	-2.66734e-06
1876.9	-4.61413e-06
1885.57	-7.81446e-06
1894.25	-9.91399e-06
1902.93	-5.10662e-06
1911.61	-1.3291e-06
1920.29	-1.58224e-06
1928.97	-1.14569e-06
1937.64	-1.73713e-06
1946.32	-9.27179e-07
1955	-6.9051e-07
1963.68	-1.97328e-06
1972.36	-4.92082e-07
1981.03	-7.13618e-07
1989.71	-9.99472e-07
1998.39	-1.27072e-06
2007.07	-1.22281e-06
2015.75	-3.34923e-07
2024.43	-9.1903e-07
2033.1	-1.09208e-06
2041.78	-1.01298e-06
2050.46	-5.91965e-07
2059.14	-1.10704e-06
2067.82	-7.63909e-07
2076.49	-8.40917e-07
2085.17	-1.52409e-06
2093.85	-8.45748e-07
2102.53	-1.42968e-06
2111.21	-1.33731e-06
2119.89	1.80005e-06
2128.56	-9.53955e-07
2137.24	-3.38939e-07
2145.92	1.89173e-08
2154.6	3.56378e-06
2163.28	6.69381e-09
2171.95	-9.31952e-07
2180.63	-6.48717e-07
2189.31	-1.02462e-06
2197.99	-5.73339e-07
2206.67	-5.70429e-07
2215.35	4.45516e-07
2224.02	4.76715e-07
2232.7	-8.46737e-07
2241.38	-1.04598e-06
2250.06	-1.93946e-07
2258.74	-5.26366e-07
2267.41	-1.19837e-06
2276.09	-1.13096e-06
2284.77	-1.09167e-06
2293.45	-8.47494e-08
2302.13	-1.91757e-06
2310.8	-1.6752e-06
2319.48	-1.70081e-06
2328.16	-3.28287e-06
2336.84	-1.56402e-07
2345.52	-3.01955e-06
2354.2	-7.13577e-06
2362.87	-2.84798e-05
2371.55	-1.04239e-05
2380.23	-1.2745e-06
2388.91	-9.24211e-07
2397.59	-3.12164e-07
2406.26	-1.29231e-06
2414.94	-4.40743e-07
2423.62	-1.00401e-06
2432.3	-1.21734e-06
2440.98	-9.97028e-07
2449.66	-1.5862e-06
2458.33	-4.84573e-07
2467.01	-1.47206e-07
2475.69	-8.86202e-07
2484.37	-1.55966e-06
2493.05	-5.78578e-07
2501.72	-4.47786e-07
2510.4	-5.96622e-08
2519.08	-8.69613e-08
2527.76	-2.07042e-07
2536.44	-9.44176e-07
2545.12	-1.38533e-08
2553.79	-1.19412e-06
2562.47	-1.22142e-06
2571.15	-7.18391e-07
2579.83	-4.08089e-07
2588.51	-2.76041e-06
2597.18	-9.86318e-07
2605.86	-1.21949e-06
2614.54	-1.55453e-06
2623.22	-1.68573e-06
2631.9	-1.13632e-06
2640.58	-1.39016e-06
2649.25	-4.59835e-07
2657.93	-2.43107e-06
2666.61	-1.56571e-06
2675.29	-2.41274e-06
2683.97	-7.46156e-07
2692.64	-1.64668e-06
2701.32	-1.24132e-06
2710	-1.45686e-06
2718.68	-2.17857e-06
2727.36	-1.52217e-06
2736.04	-1.23218e-06
2744.71	-1.99155e-06
2753.39	-2.20866e-06
2762.07	-1.12438e-06
2770.75	-1.1064e-06
2779.43	-1.41466e-06
2788.1	-5.39113e-07
2796.78	-7.80323e-07
2805.46	-1.91344e-06
2814.14	-2.31024e-06
2822.82	-1.64219e-06
2831.5	-3.61349e-07
2840.17	-1.55605e-06
2848.85	-1.7837e-06
2857.53	-3.03253e-06
2866.21	-8.95689e-07
2874.89	2.19906e-07
2883.56	-1.54796e-06
2892.24	7.78228e-07
2900.92	-7.09893e-07
2909.6	-2.8316e-06
2918.28	-1.47444e-06
2926.96	-1.37095e-06
2935.63	-1.27799e-06
2944.31	-5.63386e-07
2952.99	-6.60708e-07
2961.67	-2.60319e-06
2970.35	-2.04237e-06
2979.02	-1.74039e-08
2987.7	-1.70302e-06
2996.38	-1.25599e-06
3005.06	-9.08669e-07
3013.74	-1.25471e-06
3022.42	-2.11751e-06
3031.09	-1.96565e-07
3039.77	1.03253e-06
3048.45	7.13036e-08
3057.13	-6.85387e-07
3065.81	-1.91804e-06
3074.48	1.11833e-06
3083.16	-4.61698e-07
3091.84	-7.89287e-07
3100.52	-3.2171e-07
3109.2	-8.02209e-07
3117.88	-6.60824e-07
3126.55	-8.46621e-07
3135.23	-2.29266e-06
3143.91	-5.94876e-08
3152.59	-5.19614e-07
3161.27	-9.8591e-07
3169.94	-7.63501e-07
3178.62	1.0369e-06
3187.3	2.35797e-07
3195.98	-1.71245e-07
3204.66	1.20023e-07
3213.34	-1.44039e-06
3222.01	-3.85848e-06
3230.69	-4.40976e-07
3239.37	9.68914e-07
3248.05	-1.47718e-06
3256.73	4.40511e-07
3265.4	-2.238e-06
3274.08	4.32362e-07
3282.76	8.87133e-07
3291.44	9.7584e-07
3300.12	6.07041e-07
3308.8	1.94993e-07
3317.47	1.07177e-06
3326.15	9.32593e-07
3334.83	9.77121e-07
3343.51	-1.18335e-07
3352.19	-3.41617e-07
3360.86	-1.23341e-07
3369.54	-3.85039e-07
3378.22	-9.04304e-07
3386.9	-9.34281e-07
3395.58	-1.66716e-06
3404.26	-1.67549e-06
3412.93	-1.63387e-07
3421.61	-1.34668e-06
3430.29	-5.38706e-07
3438.97	-1.51746e-07
3447.65	-1.05064e-06
3456.32	4.29509e-07
3465	-8.71824e-07
3473.68	-1.76466e-06
3482.36	1.00686e-06
3491.04	-4.4377e-07
3499.71	-1.10081e-06
3508.39	1.90832e-06
3517.07	-1.80337e-06
3525.75	-2.50011e-06
3534.43	-9.57913e-07
3543.11	-1.7252e-06
3551.78	-1.51105e-06
3560.46	4.77065e-07
3569.14	5.35039e-07
3577.82	-3.92781e-07
3586.5	-5.23816e-06
3595.17	-2.00651e-06
3603.85	6.74968e-07
3612.53	-5.48339e-06
3621.21	4.04539e-07
3629.89	-9.81195e-07
3638.57	-2.63678e-08
3647.24	-3.02298e-06
3655.92	-5.28229e-07
3664.6	-5.22408e-07
3673.28	-9.26364e-07
3681.96	-1.07438e-06
3690.63	-2.28253e-06
3699.31	-3.48369e-07
3707.99	-9.14432e-08
3716.67	-8.94816e-07
3725.35	5.89928e-07
3734.03	4.18916e-07
3742.7	-1.61903e-06
3751.38	4.9377e-07
3760.06	-3.17537e-06
3768.74	-9.18681e-07
3777.42	-3.90802e-07
3786.09	3.53491e-07
3794.77	-1.42182e-06
3803.45	2.39522e-07
3812.13	3.25552e-07
3820.81	-9.8169e-06
3829.49	-6.90917e-07
3838.16	-4.78037e-06
3846.84	1.50069e-06
3855.52	-3.41564e-06
3864.2	-4.10243e-06
3872.88	-2.06728e-06
3881.55	-3.95982e-06
3890.23	-3.67729e-06
3898.91	-4.05278e-06
3907.59	-1.13166e-06
3916.27	-2.44033e-06
3924.95	-2.99149e-06
3933.62	-2.49359e-06
3942.3	-2.7128e-06
3950.98	-2.97083e-06
3959.66	-1.44836e-06
3968.34	-7.74211e-07
