Infrared Spectrum: Sulfur hexafluoride
Formula: S F6
CAS: 2551-62-4
State: gas
Melting point: -50.5 C
Boiling point: -63.9 C (sublimes)
Class: IUPAC A
Instrument: IFS66V (Bruker)
Instrument parameters: KBr Beam Splitter; MCT Detector; Multipass cell
Sampling: 1 L/min Flow
Resolution: 0.1250
Temperature: 23 C
Pressure: 101.3 Pa
Origin: NIST, Analytical Chemistry Division, 301-975-3108
cm-1	(micromol/mol)-1m-1 (base 10)
575.049	1.1982e-05
583.607	8.81952e-06
592.164	4.06742e-05
600.722	0.000277523
609.28	0.000203884
617.837	0.000116166
626.395	0.000446674
634.953	0.000130352
643.51	7.4264e-06
652.068	-3.63794e-06
660.625	-9.34397e-07
669.183	6.59485e-08
677.741	-8.50928e-07
686.298	-5.68531e-06
694.856	3.8412e-06
703.414	2.87141e-06
711.971	-1.2635e-06
720.529	-1.29644e-06
729.087	2.54085e-06
737.644	1.44703e-06
746.202	2.49353e-06
754.76	7.67518e-07
763.317	-1.56478e-06
771.875	-3.14073e-06
780.432	-5.91558e-07
788.99	-1.80936e-06
797.548	-2.32997e-06
806.105	3.53421e-06
814.663	2.46198e-06
823.221	1.33835e-06
831.778	6.9959e-07
840.336	-7.52093e-07
848.894	5.36727e-06
857.451	1.04662e-05
866.009	1.42111e-05
874.567	1.05209e-05
883.124	2.63508e-05
891.682	1.09343e-05
900.239	2.12706e-06
908.797	4.26285e-06
917.355	2.86525e-05
925.912	0.000715576
934.47	0.000803686
943.028	0.0150023
951.585	0.00482
960.143	3.98169e-05
968.701	2.39476e-05
977.258	5.61602e-05
985.816	0.000138785
994.374	0.000103738
1002.93	1.00847e-05
1011.49	-2.43247e-07
1020.05	-1.22043e-06
1028.6	1.90215e-06
1037.16	1.77339e-06
1045.72	-9.91265e-08
1054.28	1.40162e-07
1062.83	-2.23102e-06
1071.39	-3.46157e-07
1079.95	7.53082e-07
1088.51	-3.48229e-06
1097.07	-2.38358e-07
1105.62	-1.80634e-06
1114.18	-8.11988e-08
1122.74	-2.29685e-07
1131.3	1.18987e-06
1139.85	7.75899e-08
1148.41	-5.37949e-07
1156.97	-1.42578e-06
1165.53	6.42256e-07
1174.08	-2.51396e-07
1182.64	2.92083e-07
1191.2	9.63675e-07
1199.76	5.57972e-07
1208.31	-1.60797e-06
1216.87	1.30157e-06
1225.43	1.37374e-06
1233.99	-8.25841e-07
1242.55	6.76441e-06
1251.1	1.135e-05
1259.66	7.8853e-06
1268.22	5.04893e-06
1276.78	2.33445e-06
1285.33	1.40325e-06
1293.89	-1.21263e-06
1302.45	5.9569e-07
1311.01	-9.41207e-08
1319.56	-1.38719e-06
1328.12	1.10256e-06
1336.68	-3.44585e-08
1345.24	3.69382e-07
1353.79	7.72081e-06
1362.35	-1.01012e-06
1370.91	2.3873e-06
1379.47	1.77543e-06
1388.03	1.16301e-05
1396.58	7.84689e-07
1405.14	-1.16268e-06
1413.7	5.12804e-08
1422.26	-1.27206e-06
1430.81	-2.69207e-07
1439.37	9.04013e-07
1447.93	-6.37891e-06
1456.49	-1.36785e-05
1465.04	-5.04119e-06
1473.6	-1.06777e-05
1482.16	7.38065e-08
1490.72	-5.36756e-06
1499.27	6.00231e-07
1507.83	-2.34504e-06
1516.39	-7.02733e-07
1524.95	-1.80488e-06
1533.51	-2.00255e-06
1542.06	-1.50136e-05
1550.62	2.21821e-06
1559.18	6.72564e-06
1567.74	2.12522e-05
1576.29	1.48478e-05
1584.85	4.76888e-05
1593.41	3.45021e-05
1601.97	1.60856e-05
1610.52	5.34177e-06
1619.08	1.44982e-06
1627.64	-1.4954e-06
1636.2	6.20254e-07
1644.75	-8.12337e-07
1653.31	-3.56903e-05
1661.87	-1.2174e-06
1670.43	-1.7036e-06
1678.99	-3.7689e-07
1687.54	-3.6944e-07
1696.1	-1.27302e-05
1704.66	2.92065e-06
1713.22	4.15756e-05
1721.77	4.87952e-05
1730.33	-1.17305e-06
1738.89	-2.87438e-06
1747.45	-2.16937e-07
1756	-2.1249e-06
1764.56	4.78112e-07
1773.12	-1.56105e-06
1781.68	-3.12746e-07
1790.23	-5.26191e-07
1798.79	5.26191e-08
1807.35	-3.41326e-07
1815.91	-7.03606e-07
1824.47	2.12339e-07
1833.02	-9.58611e-07
1841.58	-7.34281e-07
1850.14	-2.41379e-06
1858.7	-1.95244e-06
1867.25	-2.6706e-06
1875.81	-4.24172e-06
1884.37	-7.46505e-06
1892.93	-1.03886e-05
1901.48	-4.59579e-06
1910.04	-2.30721e-06
1918.6	-9.59193e-07
1927.16	-1.11303e-06
1935.71	-1.46449e-06
1944.27	2.87601e-07
1952.83	1.58847e-07
1961.39	-1.43777e-06
1969.95	-4.00581e-07
1978.5	-7.31546e-07
1987.06	-4.12513e-07
1995.62	4.65656e-09
2004.18	-2.16123e-07
2012.73	-8.81429e-07
2021.29	-1.72386e-06
2029.85	-1.70838e-06
2038.41	-1.96623e-07
2046.96	8.32826e-07
2055.52	-1.4568e-06
2064.08	-1.27759e-06
2072.64	-1.74604e-06
2081.19	-1.05791e-06
2089.75	-1.11146e-06
2098.31	-1.36094e-06
2106.87	-8.12279e-07
2115.43	1.1855e-06
2123.98	9.57796e-07
2132.54	-6.90335e-08
2141.1	-1.105e-06
2149.66	-8.21883e-08
2158.21	3.83666e-06
2166.77	5.37833e-08
2175.33	-9.90159e-07
2183.89	-3.63794e-07
2192.44	7.38065e-07
2201	-4.68042e-07
2209.56	1.17706e-06
2218.12	9.9761e-07
2226.67	8.06691e-07
2235.23	-1.05593e-06
2243.79	-2.12747e-07
2252.35	-7.88588e-07
2260.9	-3.03782e-07
2269.46	-1.38073e-06
2278.02	-1.31781e-07
2286.58	1.48835e-07
2295.14	-5.55528e-07
2303.69	-1.17235e-06
2312.25	-1.01135e-06
2320.81	-3.21437e-06
2329.37	-5.68857e-07
2337.92	-5.309e-06
2346.48	-1.86844e-06
2355.04	-2.12461e-06
2363.6	-4.78386e-06
2372.15	-2.37327e-06
2380.71	-3.05441e-06
2389.27	-1.10884e-06
2397.83	-9.11114e-07
2406.38	-7.06575e-07
2414.94	-5.70603e-07
2423.5	-1.7231e-06
2432.06	-1.23079e-06
2440.62	-1.88468e-06
2449.17	-1.02712e-06
2457.73	-1.7958e-06
2466.29	-3.84515e-07
2474.85	-1.83311e-06
2483.4	6.36785e-08
2491.96	2.49126e-08
2500.52	-2.92781e-08
2509.08	-5.51919e-07
2517.63	-1.49086e-06
2526.19	-3.30849e-07
2534.75	-1.37951e-06
2543.31	-1.01629e-06
2551.86	-4.6065e-07
2560.42	-4.05121e-07
2568.98	-1.0284e-06
2577.54	-1.34668e-06
2586.1	-1.58178e-06
2594.65	-2.07234e-06
2603.21	-1.59615e-06
2611.77	-1.78754e-06
2620.33	-1.65803e-06
2628.88	-4.44934e-07
2637.44	-1.81495e-06
2646	-7.51743e-07
2654.56	-8.70427e-07
2663.11	-1.26944e-06
2671.67	-9.27296e-07
2680.23	-3.0458e-06
2688.79	-1.85698e-06
2697.34	-1.89778e-06
2705.9	-1.67333e-06
2714.46	-1.66815e-06
2723.02	-1.00035e-06
2731.58	-1.81961e-06
2740.13	-2.52287e-06
2748.69	-1.68602e-06
2757.25	-2.67985e-07
2765.81	-1.60552e-06
2774.36	-9.44409e-07
2782.92	-1.76443e-06
2791.48	-1.30878e-06
2800.04	-2.59912e-06
2808.59	-1.59767e-06
2817.15	-1.01152e-06
2825.71	-2.29923e-06
2834.27	-7.34572e-07
2842.82	-8.96504e-07
2851.38	-2.08957e-06
2859.94	-2.22974e-06
2868.5	-1.85669e-06
2877.06	-5.4668e-07
2885.61	-2.71402e-06
2894.17	-3.62321e-06
2902.73	-6.99823e-07
2911.29	-4.9767e-07
2919.84	-4.05179e-07
2928.4	-9.93244e-07
2936.96	-1.00052e-06
2945.52	6.08729e-07
2954.07	1.48079e-07
2962.63	1.89016e-06
2971.19	-1.50756e-08
2979.75	-5.57507e-07
2988.3	-8.21184e-07
2996.86	-2.75651e-06
3005.42	-7.54363e-08
3013.98	1.0816e-06
3022.54	-2.29388e-06
3031.09	-1.32753e-06
3039.65	-6.35038e-08
3048.21	4.45866e-07
3056.77	-5.69788e-07
3065.32	3.02618e-07
3073.88	-3.50406e-07
3082.44	-2.01804e-07
3091	-1.51792e-06
3099.55	-1.30139e-06
3108.11	6.69963e-08
3116.67	2.03899e-07
3125.23	-2.12234e-06
3133.78	-2.47281e-06
3142.34	-9.12278e-07
3150.9	-1.68288e-06
3159.46	-6.02326e-07
3168.02	-1.73672e-06
3176.57	3.20837e-07
3185.13	-1.72875e-07
3193.69	-3.82769e-07
3202.25	-8.22581e-07
3210.8	4.70895e-08
3219.36	-6.29334e-07
3227.92	1.34935e-06
3236.48	8.75317e-07
3245.03	-2.13218e-06
3253.59	-6.95108e-07
3262.15	-2.13369e-06
3270.71	-2.60127e-07
3279.26	-1.00622e-06
3287.82	-9.18506e-08
3296.38	7.72465e-07
3304.94	6.74503e-07
3313.5	1.46449e-06
3322.05	4.74154e-07
3330.61	-1.74359e-06
3339.17	1.00855e-06
3347.73	1.16961e-06
3356.28	-1.92333e-06
3364.84	-1.1199e-06
3373.4	1.39994e-06
3381.96	-8.55876e-07
3390.51	-1.69103e-06
3399.07	-2.39178e-06
3407.63	-3.93479e-08
3416.19	-1.35221e-06
3424.74	-9.74385e-08
3433.3	1.71839e-06
3441.86	-9.48425e-07
3450.42	1.33661e-06
3458.98	2.26978e-06
3467.53	-3.9086e-07
3476.09	-7.97087e-07
3484.65	-2.3405e-06
3493.21	-1.03521e-06
3501.76	-5.65015e-07
3510.32	-1.91629e-06
3518.88	-1.22863e-06
3527.44	-2.38125e-06
3535.99	-3.87135e-07
3544.55	-2.13125e-06
3553.11	-1.58375e-06
3561.67	-2.92199e-07
3570.22	-2.40354e-06
3578.78	-7.08961e-07
3587.34	4.56634e-07
3595.9	-2.88998e-07
3604.46	-3.4639e-07
3613.01	-7.12046e-07
3621.57	-8.8137e-07
3630.13	-2.0646e-06
3638.69	-1.16606e-06
3647.24	-2.12648e-06
3655.8	-1.09778e-06
3664.36	-7.71999e-07
3672.92	-2.93177e-06
3681.47	-1.55238e-06
3690.03	-1.61024e-06
3698.59	-2.39161e-06
3707.15	-2.52915e-06
3715.7	7.69729e-07
3724.26	-2.02106e-06
3732.82	-1.75622e-06
3741.38	-1.66193e-06
3749.94	-1.96565e-06
3758.49	1.38399e-06
3767.05	5.40045e-07
3775.61	1.05122e-07
3784.17	2.91268e-07
3792.72	-4.37309e-07
3801.28	-1.59743e-05
3809.84	-9.00055e-07
3818.4	9.04304e-07
3826.95	-1.02386e-07
3835.51	-1.9057e-07
3844.07	-2.21064e-06
3852.63	-8.01918e-07
3861.18	1.38649e-07
3869.74	-4.87094e-06
3878.3	-1.94202e-06
3886.86	-2.32613e-06
3895.42	-4.16564e-06
3903.97	-4.63409e-06
3912.53	-8.75957e-07
3921.09	-6.06517e-08
3929.65	-2.20593e-06
3938.2	-1.99149e-06
3946.76	-2.31961e-06
3955.32	-1.53701e-06
3963.88	5.7689e-07
3972.43	6.70777e-07
