Infrared Spectrum: Sulfur hexafluoride
Formula: S F6
CAS: 2551-62-4
State: gas
Melting point: -50.5 C
Boiling point: -63.9 C (sublimes)
Class: IUPAC A
Instrument: IFS66V (Bruker)
Instrument parameters: KBr Beam Splitter; MCT Detector; Multipass cell
Sampling: 1 L/min Flow
Resolution: 0.9640
Temperature: 23 C
Pressure: 101.3 Pa
Origin: NIST, Analytical Chemistry Division, 301-975-3108
cm-1	(micromol/mol)-1m-1 (base 10)
575.17	-5.10176e-07
583.848	5.28714e-07
592.526	5.17122e-05
601.205	0.000298998
609.883	0.000186201
618.561	0.000147713
627.239	0.000434913
635.917	9.28545e-05
644.595	1.57051e-06
653.274	-2.29655e-06
661.952	3.86517e-07
670.63	-8.08772e-07
679.308	-5.71321e-07
687.986	1.66743e-06
696.664	8.99108e-07
705.343	1.46653e-06
714.021	5.3957e-08
722.699	-1.46848e-06
731.377	5.21235e-07
740.055	1.6681e-06
748.734	1.24488e-06
757.412	-1.11959e-07
766.09	6.75393e-07
774.768	7.30078e-07
783.446	3.4458e-08
792.124	5.30198e-07
800.803	-6.38287e-07
809.481	4.61632e-07
818.159	-1.10999e-06
826.837	1.01657e-07
835.515	1.54252e-06
844.193	1.63096e-06
852.872	9.90282e-06
861.55	1.03516e-05
870.228	6.9181e-05
878.906	2.25145e-05
887.584	2.3224e-05
896.262	5.84566e-06
904.941	4.21126e-06
913.619	1.22224e-05
922.297	0.000247918
930.975	0.001017
939.653	0.00493115
948.332	0.0209493
957.01	6.72825e-05
965.688	1.99351e-05
974.366	3.5208e-05
983.044	0.000137072
991.722	0.000123041
1000.4	1.73385e-05
1009.08	1.67633e-07
1017.76	-1.12655e-06
1026.44	-1.07189e-06
1035.11	-4.42686e-07
1043.79	-3.74235e-07
1052.47	-3.81366e-07
1061.15	-5.60553e-07
1069.83	-2.20516e-06
1078.5	-1.09576e-06
1087.18	-1.55614e-07
1095.86	-9.49194e-07
1104.54	-1.30786e-06
1113.22	-7.90903e-07
1121.9	-2.3879e-07
1130.57	3.44609e-07
1139.25	-4.67889e-07
1147.93	-4.96614e-07
1156.61	-1.1638e-06
1165.29	-7.65875e-07
1173.96	-4.98855e-07
1182.64	-2.68912e-07
1191.32	2.59017e-09
1200	-1.33874e-08
1208.68	-9.63018e-08
1217.35	8.48061e-08
1226.03	-9.36826e-08
1234.71	7.76555e-07
1243.39	4.84259e-06
1252.07	1.17225e-05
1260.75	8.91666e-06
1269.42	3.59946e-06
1278.1	3.98507e-07
1286.78	7.22482e-07
1295.46	-7.72859e-07
1304.14	-5.6291e-07
1312.81	-3.51652e-07
1321.49	-8.49866e-07
1330.17	-5.70535e-07
1338.85	-4.93325e-07
1347.53	-1.50183e-06
1356.21	9.80044e-06
1364.88	-5.97601e-07
1373.56	1.43961e-06
1382.24	1.43175e-06
1390.92	-5.11805e-07
1399.6	-4.3442e-07
1408.27	2.60006e-07
1416.95	-1.44071e-06
1425.63	-9.25359e-07
1434.31	-1.75375e-07
1442.99	-2.3489e-07
1451.67	-6.39946e-07
1460.34	4.6623e-08
1469.02	4.8666e-07
1477.7	1.77528e-07
1486.38	-6.265e-07
1495.06	-4.6137e-07
1503.73	-2.12219e-07
1512.41	-2.49072e-06
1521.09	-9.3402e-06
1529.77	-2.7351e-07
1538.45	-5.01916e-06
1547.13	1.04372e-06
1555.8	4.82723e-06
1564.48	1.51235e-05
1573.16	3.1198e-05
1581.84	4.11357e-05
1590.52	3.26343e-05
1599.19	2.30087e-05
1607.87	7.41518e-06
1616.55	-9.40161e-06
1625.23	9.18607e-07
1633.91	1.51318e-06
1642.59	8.90144e-07
1651.26	-8.66163e-07
1659.94	2.73568e-07
1668.62	-2.1382e-06
1677.3	-9.89677e-07
1685.98	-1.13892e-06
1694.65	-3.41727e-07
1703.33	2.33252e-06
1712.01	3.0932e-05
1720.69	3.41644e-05
1729.37	-1.69327e-06
1738.05	-1.14613e-06
1746.72	-8.5461e-07
1755.4	-4.83052e-07
1764.08	-2.84715e-07
1772.76	-7.49251e-06
1781.44	-3.89951e-07
1790.11	-3.71354e-08
1798.79	-2.73219e-07
1807.47	-6.43264e-07
1816.15	1.51336e-08
1824.83	-1.28894e-06
1833.51	-3.69433e-07
1842.18	-5.45216e-07
1850.86	-1.21464e-06
1859.54	-2.43158e-06
1868.22	-2.09571e-06
1876.9	-4.35148e-06
1885.57	-7.98112e-06
1894.25	-8.79874e-06
1902.93	-5.06378e-06
1911.61	-1.30693e-06
1920.29	-1.1278e-06
1928.97	-1.26228e-06
1937.64	-1.11636e-06
1946.32	-1.15239e-06
1955	-6.28887e-07
1963.68	-1.07052e-06
1972.36	-9.56819e-07
1981.03	-8.21578e-07
1989.71	-5.57934e-07
1998.39	-5.92392e-07
2007.07	-9.88687e-07
2015.75	-3.27583e-07
2024.43	-4.82208e-07
2033.1	-6.1873e-07
2041.78	-7.83715e-07
2050.46	-3.15826e-07
2059.14	-9.6069e-07
2067.82	-4.95479e-07
2076.49	-1.09203e-06
2085.17	-1.00711e-06
2093.85	-4.04066e-07
2102.53	-5.06974e-07
2111.21	1.29197e-06
2119.89	1.7444e-06
2128.56	-8.63195e-08
2137.24	-1.90741e-07
2145.92	-4.89367e-07
2154.6	1.26226e-06
2163.28	-2.40187e-07
2171.95	-3.97896e-07
2180.63	-2.80873e-07
2189.31	-6.73211e-07
2197.99	-1.4211e-07
2206.67	4.66172e-07
2215.35	4.92452e-07
2224.02	2.74499e-07
2232.7	-2.28982e-07
2241.38	-1.00883e-06
2250.06	-1.65654e-07
2258.74	-6.49317e-07
2267.41	-9.97534e-07
2276.09	-9.28415e-07
2284.77	-9.5615e-07
2293.45	-8.39913e-07
2302.13	-1.85014e-06
2310.81	-2.44683e-06
2319.48	-4.63963e-06
2328.16	-5.89935e-06
2336.84	-3.46704e-06
2345.52	-4.48434e-06
2354.2	-7.65735e-06
2362.87	-1.2845e-05
2371.55	-6.08937e-06
2380.23	-1.49124e-06
2388.91	-7.01644e-07
2397.59	-7.65205e-07
2406.26	-6.25103e-07
2414.94	-4.39717e-07
2423.62	-1.07154e-06
2432.3	-1.09788e-06
2440.98	-1.40815e-06
2449.66	-1.21784e-06
2458.33	-1.15597e-06
2467.01	-8.96751e-07
2475.69	-9.11797e-07
2484.37	-1.04209e-06
2493.05	-5.88579e-07
2501.72	-5.09972e-07
2510.4	-7.32202e-07
2519.08	-5.4248e-07
2527.76	-3.15535e-07
2536.44	-1.26799e-06
2545.12	-4.98738e-07
2553.79	-9.92179e-07
2562.47	-6.8817e-07
2571.15	-1.17963e-06
2579.83	-9.3214e-07
2588.51	-1.68006e-06
2597.18	-1.33673e-06
2605.86	-1.57258e-06
2614.54	-1.35835e-06
2623.22	-1.53079e-06
2631.9	-1.78477e-06
2640.58	-1.15402e-06
2649.25	-1.07408e-06
2657.93	-1.69653e-06
2666.61	-1.42497e-06
2675.29	-1.6332e-06
2683.97	-1.14608e-06
2692.64	-1.40594e-06
2701.32	-1.18537e-06
2710	-1.6277e-06
2718.68	-1.6566e-06
2727.36	-1.56699e-06
2736.04	-1.64522e-06
2744.71	-1.57543e-06
2753.39	-1.63768e-06
2762.07	-1.42669e-06
2770.75	-9.75096e-07
2779.43	-1.70739e-06
2788.1	-9.27687e-07
2796.78	-1.21668e-06
2805.46	-1.67188e-06
2814.14	-1.05862e-06
2822.82	-1.71748e-06
2831.5	-8.25769e-07
2840.17	-1.76967e-06
2848.85	-8.61303e-07
2857.53	-2.32128e-06
2866.21	-1.17538e-06
2874.89	-5.59884e-07
2883.56	-1.25393e-06
2892.24	-6.37327e-07
2900.92	-7.35287e-07
2909.6	-1.60995e-06
2918.28	-1.51336e-06
2926.96	-7.64187e-07
2935.63	-1.20259e-06
2944.31	-1.23021e-06
2952.99	-6.76004e-07
2961.67	-2.52914e-06
2970.35	-1.4378e-06
2979.02	-2.0893e-07
2987.7	-9.60224e-07
2996.38	-1.11953e-06
3005.06	-6.6934e-07
3013.74	-2.89633e-07
3022.42	-6.9853e-07
3031.09	-3.27874e-07
3039.77	1.95805e-07
3048.45	1.39025e-07
3057.13	-5.75192e-07
3065.81	-1.18045e-06
3074.48	-7.36277e-07
3083.16	-9.44567e-07
3091.84	-8.33626e-07
3100.52	-8.42066e-07
3109.2	-1.04759e-06
3117.88	-6.18584e-07
3126.55	-1.28434e-06
3135.23	-1.13339e-06
3143.91	1.57302e-07
3152.59	-2.82124e-07
3161.27	-4.81509e-07
3169.94	-2.19699e-07
3178.62	4.33256e-07
3187.3	-5.91664e-08
3195.98	-3.03486e-07
3204.66	-2.14984e-07
3213.34	-1.28143e-06
3222.01	-2.22565e-06
3230.69	-1.05126e-06
3239.37	3.41553e-07
3248.05	-1.88087e-06
3256.73	5.50425e-07
3265.4	-1.70255e-06
3274.08	-1.13443e-07
3282.76	4.59362e-07
3291.44	1.19672e-07
3300.12	-2.76333e-07
3308.8	3.68851e-07
3317.47	3.23713e-07
3326.15	1.44994e-06
3334.83	3.82297e-07
3343.51	5.34622e-07
3352.19	9.25475e-08
3360.86	-1.44962e-07
3369.54	-8.54755e-08
3378.22	-6.5409e-07
3386.9	-1.55614e-06
3395.58	-1.21386e-06
3404.26	-1.21683e-06
3412.93	-9.76551e-07
3421.61	-1.20312e-06
3430.29	-6.52344e-07
3438.97	1.68215e-08
3447.65	-8.57083e-07
3456.32	2.20281e-07
3465	-5.40763e-07
3473.68	-1.24139e-06
3482.36	7.68756e-07
3491.04	-3.71849e-07
3499.71	4.60409e-08
3508.39	5.1489e-07
3517.07	-1.0948e-06
3525.75	-1.58425e-06
3534.43	-2.43912e-07
3543.11	-9.17239e-07
3551.78	-1.47613e-06
3560.46	-3.79387e-07
3569.14	-5.8238e-07
3577.82	-3.17397e-07
3586.5	-2.69415e-06
3595.17	-9.13805e-07
3603.85	3.55086e-07
3612.53	-2.39794e-06
3621.21	-1.86579e-07
3629.89	-5.45777e-06
3638.57	-6.4274e-07
3647.24	-3.39053e-06
3655.92	-3.49239e-06
3664.6	-2.48656e-07
3673.28	-8.45995e-07
3681.96	-6.86889e-07
3690.63	-2.46712e-06
3699.31	-7.70793e-07
3707.99	-7.35084e-07
3716.67	-1.15117e-06
3725.35	-1.37512e-06
3734.03	-1.09308e-06
3742.7	-1.75811e-06
3751.38	-2.39221e-06
3760.06	-2.37667e-06
3768.74	-4.42686e-07
3777.42	-3.28049e-07
3786.09	-1.90857e-07
3794.77	-9.02513e-07
3803.45	-9.49398e-07
3812.13	1.19759e-07
3820.81	-5.21895e-06
3829.49	-1.02742e-06
3838.16	-1.02043e-05
3846.84	-1.0709e-06
3855.52	-2.51258e-06
3864.2	-2.61199e-06
3872.88	-1.69944e-06
3881.55	-2.81077e-06
3890.23	-2.56234e-06
3898.91	-3.90117e-06
3907.59	-2.07993e-06
3916.27	-2.86918e-06
3924.95	-2.73798e-06
3933.62	-2.61581e-06
3942.3	-2.67812e-06
3950.98	-1.81189e-06
3959.66	-1.20777e-06
3968.34	-7.39333e-07
