Infrared Spectrum: Sulfur hexafluoride
Formula: S F6
CAS: 2551-62-4
State: gas
Melting point: -50.5 C
Boiling point: -63.9 C (sublimes)
Class: IUPAC A
Instrument: IFS66V (Bruker)
Instrument parameters: KBr Beam Splitter; MCT Detector; Multipass cell
Sampling: 1 L/min Flow
Resolution: 0.4820
Temperature: 23 C
Pressure: 101.3 Pa
Origin: NIST, Analytical Chemistry Division, 301-975-3108
cm-1	(micromol/mol)-1m-1 (base 10)
575.17	-1.61618e-06
583.848	-3.99859e-06
592.526	5.18854e-05
601.205	0.000296839
609.883	0.000178295
618.561	0.000158356
627.239	0.00043837
635.917	9.34945e-05
644.595	2.07543e-06
653.274	-1.98556e-06
661.952	7.56109e-07
670.63	-1.3149e-06
679.308	-2.70313e-07
687.986	2.20197e-06
696.664	1.13696e-06
705.343	1.80523e-06
714.021	-2.83876e-07
722.699	-1.15599e-06
731.377	1.01664e-06
740.055	2.18864e-06
748.733	9.08495e-07
757.412	-2.27764e-07
766.09	1.05844e-06
774.768	3.43538e-07
783.446	-1.15483e-07
792.124	3.91093e-07
800.803	-1.73736e-06
809.481	-3.05936e-07
818.159	-1.96652e-06
826.837	-7.32011e-07
835.515	9.37424e-07
844.193	7.00812e-07
852.872	8.90055e-06
861.55	9.34304e-06
870.228	7.69573e-05
878.906	2.18717e-05
887.584	2.1485e-05
896.262	4.25575e-06
904.941	2.29481e-06
913.619	9.49182e-06
922.297	0.000243064
930.975	0.000886786
939.653	0.00487224
948.332	0.0184369
957.01	7.4032e-05
965.688	2.45411e-05
974.366	3.82652e-05
983.044	0.000139633
991.722	0.00011954
1000.4	1.88399e-05
1009.08	1.74254e-06
1017.76	1.45518e-07
1026.44	-3.34981e-07
1035.11	7.7229e-07
1043.79	7.22e-07
1052.47	6.35329e-07
1061.15	3.62921e-07
1069.83	-1.40366e-06
1078.5	-3.227e-07
1087.18	5.90976e-07
1095.86	-2.79394e-08
1104.54	-7.80905e-07
1113.22	8.17226e-08
1121.9	4.49824e-07
1130.57	1.03975e-06
1139.25	3.84166e-09
1147.93	3.04423e-08
1156.61	-6.82419e-07
1165.29	-2.93538e-07
1173.96	-3.071e-07
1182.64	-1.74796e-07
1191.32	6.18333e-07
1200	5.60242e-07
1208.68	5.93362e-07
1217.35	2.60942e-07
1226.03	3.77472e-07
1234.71	1.32951e-06
1243.39	4.90534e-06
1252.07	1.22128e-05
1260.75	9.13012e-06
1269.42	4.25057e-06
1278.1	6.57564e-07
1286.78	1.36653e-06
1295.46	-4.18799e-07
1304.14	-2.50639e-07
1312.81	7.82302e-08
1321.49	-8.55294e-07
1330.17	-2.02269e-07
1338.85	-1.99883e-07
1347.53	-9.95514e-07
1356.21	1.03837e-05
1364.88	-2.33061e-07
1373.56	1.27939e-06
1382.24	1.77083e-06
1390.92	-4.0256e-07
1399.6	5.3143e-08
1408.27	7.97611e-07
1416.95	-1.08149e-06
1425.63	-8.7846e-07
1434.31	1.79685e-07
1442.99	-1.24854e-07
1451.67	-5.09544e-07
1460.34	4.5611e-07
1469.02	1.04668e-06
1477.7	3.91675e-07
1486.38	-4.67519e-07
1495.06	-1.34516e-07
1503.73	2.37485e-08
1512.41	-3.27385e-06
1521.09	-1.14674e-05
1529.77	-2.40628e-07
1538.45	-3.19166e-06
1547.13	1.1798e-06
1555.8	4.99824e-06
1564.48	1.5512e-05
1573.16	3.12163e-05
1581.84	4.12494e-05
1590.52	3.298e-05
1599.19	2.32478e-05
1607.87	7.66831e-06
1616.55	-1.20389e-05
1625.23	1.16088e-06
1633.91	1.65407e-06
1642.59	1.03312e-06
1651.26	-5.54363e-07
1659.94	4.70895e-07
1668.62	-1.45232e-06
1677.3	-7.81313e-07
1685.98	-9.67284e-07
1694.65	-3.6554e-08
1703.33	2.56769e-06
1712.01	3.10913e-05
1720.69	3.46251e-05
1729.37	-1.37427e-06
1738.05	-8.84164e-07
1746.72	-5.78869e-07
1755.4	-4.49183e-07
1764.08	-1.89522e-07
1772.76	-1.03469e-05
1781.44	-1.87427e-07
1790.11	1.36204e-07
1798.79	3.33526e-08
1807.47	-5.14841e-07
1816.15	2.27648e-07
1824.83	-9.15654e-07
1833.51	-3.06751e-07
1842.18	-4.36552e-07
1850.86	-1.36408e-06
1859.54	-2.39638e-06
1868.22	-2.11751e-06
1876.9	-4.30208e-06
1885.57	-7.88658e-06
1894.25	-8.8431e-06
1902.93	-5.04998e-06
1911.61	-1.2199e-06
1920.29	-9.713e-07
1928.97	-1.17322e-06
1937.64	-1.13003e-06
1946.32	-9.34572e-07
1955	-5.48776e-07
1963.68	-1.11647e-06
1972.36	-7.81313e-07
1981.03	-7.70952e-07
1989.71	-5.97437e-07
1998.39	-7.16295e-07
2007.07	-8.73862e-07
2015.75	-1.5419e-07
2024.43	-4.69381e-07
2033.1	-6.82186e-07
2041.78	-5.6909e-07
2050.46	-2.33585e-07
2059.14	-8.74386e-07
2067.82	-3.53957e-07
2076.49	-8.79857e-07
2085.17	-1.00372e-06
2093.85	-2.84749e-07
2102.53	-8.01336e-07
2111.21	1.17468e-06
2119.89	2.35197e-06
2128.56	-1.56868e-07
2137.24	-1.00174e-07
2145.92	-3.93246e-07
2154.6	2.06047e-06
2163.28	-2.01745e-07
2171.95	-5.31022e-07
2180.63	-2.82653e-07
2189.31	-8.01045e-07
2197.99	-1.4965e-07
2206.67	5.68333e-07
2215.35	6.49939e-07
2224.02	4.60592e-07
2232.7	-1.3766e-07
2241.38	-8.50055e-07
2250.06	-1.04831e-07
2258.74	-5.27879e-07
2267.41	-9.69438e-07
2276.09	-8.58844e-07
2284.77	-9.00986e-07
2293.45	-7.92605e-07
2302.13	-1.67886e-06
2310.8	-2.45762e-06
2319.48	-4.54597e-06
2328.16	-4.0107e-06
2336.84	-2.46507e-06
2345.52	-3.70563e-06
2354.2	-8.56097e-06
2362.87	-1.73794e-05
2371.55	-7.54467e-06
2380.23	-1.29254e-06
2388.91	-6.18275e-07
2397.59	-6.39404e-07
2406.26	-6.38007e-07
2414.94	-3.41442e-07
2423.62	-1.08416e-06
2432.3	-1.20197e-06
2440.98	-1.28253e-06
2449.66	-1.29767e-06
2458.33	-1.01234e-06
2467.01	-4.56401e-07
2475.69	-8.98018e-07
2484.37	-1.14947e-06
2493.05	-5.18159e-07
2501.72	-3.79568e-07
2510.4	-5.02326e-07
2519.08	-4.56226e-07
2527.76	-2.21478e-07
2536.44	-1.21239e-06
2545.12	-4.18043e-07
2553.79	-9.07098e-07
2562.47	-6.56633e-07
2571.15	-1.09516e-06
2579.83	-8.46504e-07
2588.51	-1.85087e-06
2597.18	-1.20937e-06
2605.86	-1.42869e-06
2614.54	-1.25192e-06
2623.22	-1.4064e-06
2631.9	-1.73404e-06
2640.58	-1.11653e-06
2649.25	-7.95108e-07
2657.93	-1.77345e-06
2666.61	-1.47514e-06
2675.29	-1.81292e-06
2683.97	-9.63966e-07
2692.64	-1.33079e-06
2701.32	-1.21367e-06
2710	-1.60436e-06
2718.68	-1.75017e-06
2727.36	-1.41047e-06
2736.04	-1.44062e-06
2744.71	-1.66635e-06
2753.39	-1.733e-06
2762.07	-1.35966e-06
2770.75	-8.51568e-07
2779.43	-1.54429e-06
2788.1	-8.30206e-07
2796.78	-1.33358e-06
2805.46	-1.78306e-06
2814.14	-1.18236e-06
2822.82	-1.86647e-06
2831.5	-6.60358e-07
2840.17	-1.68055e-06
2848.85	-9.30322e-07
2857.53	-2.40674e-06
2866.21	-1.0479e-06
2874.89	-5.00813e-07
2883.56	-1.37351e-06
2892.24	-3.38648e-07
2900.92	-7.32826e-07
2909.6	-1.91367e-06
2918.28	-1.74586e-06
2926.96	-9.12453e-07
2935.63	-1.13434e-06
2944.31	-1.22491e-06
2952.99	-7.14549e-07
2961.67	-2.75913e-06
2970.35	-1.81658e-06
2979.02	-2.34691e-07
2987.7	-1.21583e-06
2996.38	-1.2011e-06
3005.06	-6.17518e-07
3013.74	-4.11698e-07
3022.42	-9.70893e-07
3031.09	-2.99941e-07
3039.77	9.58087e-08
3048.45	1.96681e-07
3057.13	-7.02093e-07
3065.81	-1.3908e-06
3074.48	-5.90394e-07
3083.16	-1.03533e-06
3091.84	-9.91265e-07
3100.52	-7.95631e-07
3109.2	-1.13795e-06
3117.88	-5.60242e-07
3126.55	-1.41006e-06
3135.23	-1.37328e-06
3143.91	2.03841e-07
3152.59	-3.6263e-07
3161.27	-6.01919e-07
3169.94	-7.89287e-08
3178.62	7.07331e-07
3187.3	-5.08147e-08
3195.98	-3.5873e-07
3204.66	-2.10244e-07
3213.34	-1.50779e-06
3222.01	-2.45866e-06
3230.69	-9.36958e-07
3239.37	5.05702e-07
3248.05	-1.65023e-06
3256.73	5.72175e-07
3265.4	-1.73102e-06
3274.08	-7.89869e-08
3282.76	8.02558e-07
3291.44	2.14202e-07
3300.12	-1.73224e-07
3308.8	2.8178e-07
3317.47	5.65132e-07
3326.15	1.35506e-06
3334.83	5.32361e-07
3343.51	5.49008e-07
3352.19	-2.52618e-08
3360.86	-1.15541e-07
3369.54	-7.82302e-08
3378.22	-6.53199e-07
3386.9	-1.77072e-06
3395.58	-1.41006e-06
3404.26	-1.42229e-06
3412.93	-1.25256e-06
3421.61	-1.24441e-06
3430.29	-5.40627e-07
3438.97	-5.1164e-08
3447.65	-9.91964e-07
3456.32	6.1874e-08
3465	-8.08437e-07
3473.68	-1.46222e-06
3482.36	9.30322e-07
3491.04	-5.84748e-07
3499.71	-1.89115e-07
3508.39	9.63792e-07
3517.07	-1.4731e-06
3525.75	-1.96571e-06
3534.43	-2.57973e-07
3543.11	-1.16234e-06
3551.78	-1.63789e-06
3560.46	-2.77298e-07
3569.14	-2.08556e-07
3577.82	-4.41384e-07
3586.5	-3.50301e-06
3595.17	-1.3685e-06
3603.85	3.7724e-07
3612.53	-3.4029e-06
3621.21	-3.032e-07
3629.89	-5.60906e-06
3638.57	-7.85445e-07
3647.24	-3.75616e-06
3655.92	-3.15412e-06
3664.6	-4.55994e-07
3673.28	-9.68856e-07
3681.96	-8.79624e-07
3690.63	-2.23754e-06
3699.31	-5.86959e-07
3707.99	-6.36203e-07
3716.67	-1.31187e-06
3725.35	-1.46367e-06
3734.03	-8.95806e-07
3742.7	-1.94254e-06
3751.38	-1.76588e-06
3760.06	-3.11099e-06
3768.74	-5.38182e-07
3777.42	-2.66704e-07
3786.09	-2.08905e-07
3794.77	-1.21495e-06
3803.45	-5.41791e-07
3812.13	2.63096e-08
3820.81	-6.73804e-06
3829.49	-1.25617e-06
3838.16	-1.06189e-05
3846.84	-6.2299e-07
3855.52	-2.50133e-06
3864.2	-2.99027e-06
3872.88	-1.93864e-06
3881.55	-3.16373e-06
3890.23	-3.08363e-06
3898.91	-3.70942e-06
3907.59	-2.1529e-06
3916.27	-2.93247e-06
3924.95	-3.09795e-06
3933.62	-2.7281e-06
3942.3	-2.71693e-06
3950.98	-2.13527e-06
3959.66	-1.39819e-06
3968.34	-7.24153e-07
