Infrared Spectrum: Sulfur hexafluoride
Formula: S F6
CAS: 2551-62-4
State: gas
Melting point: -50.5 C
Boiling point: -63.9 C (sublimes)
Class: IUPAC A
Instrument: IFS66V (Bruker)
Instrument parameters: KBr Beam Splitter; MCT Detector; Multipass cell
Sampling: 1 L/min Flow
Resolution: 0.2410
Temperature: 23 C
Pressure: 101.3 Pa
Origin: NIST, Analytical Chemistry Division, 301-975-3108
cm-1	(micromol/mol)-1m-1 (base 10)
575.049	4.73403e-06
583.607	2.92479e-06
592.164	3.86419e-05
600.722	0.000278534
609.28	0.000203489
617.837	0.000113536
626.395	0.000457315
634.953	0.00012345
643.51	7.01266e-06
652.068	-3.73788e-06
660.625	-7.99473e-07
669.183	2.30273e-06
677.741	1.45779e-06
686.298	-4.31797e-06
694.856	2.67816e-06
703.414	1.43777e-06
711.971	6.44235e-07
720.529	-9.01568e-07
729.087	1.51594e-06
737.644	3.03084e-06
746.202	1.73631e-06
754.76	-7.34456e-07
763.317	-1.6802e-06
771.875	-3.10726e-06
780.432	-8.72814e-07
788.99	-3.0483e-07
797.548	-2.54737e-06
806.105	1.06862e-06
814.663	6.40219e-07
823.221	2.12485e-06
831.778	1.42083e-07
840.336	9.77528e-07
848.894	4.7909e-06
857.451	9.90491e-06
866.009	1.5152e-05
874.567	8.5949e-06
883.124	2.55107e-05
891.682	1.24142e-05
900.239	1.91361e-06
908.797	3.64929e-06
917.355	2.95186e-05
925.912	0.000713957
934.47	0.000805627
943.028	0.0150276
951.585	0.00486851
960.143	3.94922e-05
968.701	2.39346e-05
977.258	5.66897e-05
985.816	0.000137437
994.374	0.000104254
1002.93	1.03331e-05
1011.49	7.01685e-07
1020.05	3.3958e-07
1028.6	1.6259e-06
1037.16	1.17468e-06
1045.72	-1.79976e-07
1054.28	5.32419e-07
1062.83	-9.5768e-07
1071.39	-2.68334e-08
1079.95	2.99533e-07
1088.51	-1.75319e-06
1097.07	8.50986e-08
1105.62	-1.91059e-06
1114.18	2.03259e-07
1122.74	5.85562e-07
1131.3	5.76191e-07
1139.85	7.30905e-07
1148.41	-7.87366e-07
1156.97	-6.34747e-07
1165.53	-7.27588e-08
1174.08	-4.93886e-07
1182.64	-4.16471e-07
1191.2	1.17526e-06
1199.76	6.97844e-07
1208.31	-9.36085e-07
1216.87	9.7392e-07
1225.43	7.86726e-07
1233.99	-1.27823e-07
1242.55	6.07052e-06
1251.1	1.07575e-05
1259.66	8.94333e-06
1268.22	4.77268e-06
1276.78	1.71606e-06
1285.33	1.8497e-06
1293.89	-7.00172e-07
1302.45	-1.27415e-07
1311.01	1.00523e-07
1319.56	-9.96969e-07
1328.12	3.31489e-07
1336.68	1.31315e-07
1345.24	-7.681e-07
1353.79	8.25608e-06
1362.35	-2.05622e-06
1370.91	2.11152e-06
1379.47	1.56944e-06
1388.03	1.09312e-05
1396.58	1.22508e-06
1405.14	-1.41356e-06
1413.7	-3.7951e-07
1422.26	-1.21484e-06
1430.81	-5.94061e-07
1439.37	7.94758e-07
1447.93	-4.65301e-06
1456.49	-1.01019e-05
1465.04	-5.85621e-06
1473.6	-1.0526e-05
1482.16	2.26483e-07
1490.72	-4.81448e-06
1499.27	2.60243e-07
1507.83	-1.73946e-06
1516.39	-1.08859e-06
1524.95	-1.53265e-06
1533.51	-2.25104e-06
1542.06	-1.42863e-05
1550.62	2.17735e-06
1559.18	6.73135e-06
1567.74	2.20726e-05
1576.29	1.44725e-05
1584.85	4.87981e-05
1593.41	3.43865e-05
1601.97	1.58872e-05
1610.52	5.67344e-06
1619.08	1.3589e-06
1627.64	-1.46583e-06
1636.2	8.98716e-07
1644.75	-7.38123e-07
1653.31	-2.84322e-05
1661.87	-1.07083e-06
1670.43	-1.14371e-06
1678.99	-1.00844e-06
1687.54	-7.13967e-07
1696.1	-1.68783e-05
1704.66	1.44836e-06
1713.22	4.20685e-05
1721.77	4.87283e-05
1730.33	-1.83765e-06
1738.89	-2.24807e-06
1747.45	-4.0774e-07
1756	-8.58379e-07
1764.56	-6.10009e-08
1773.12	-1.76687e-06
1781.68	-2.44295e-07
1790.23	-9.90101e-08
1798.79	9.38297e-08
1807.35	-2.38416e-07
1815.91	-2.07799e-08
1824.47	9.26073e-08
1833.02	-6.29276e-07
1841.58	-7.80265e-07
1850.14	-2.02752e-06
1858.7	-2.20453e-06
1867.25	-1.93463e-06
1875.81	-3.71506e-06
1884.37	-7.75626e-06
1892.93	-1.01615e-05
1901.48	-4.49247e-06
1910.04	-1.90343e-06
1918.6	-1.36938e-06
1927.16	-1.50843e-06
1935.71	-1.52997e-06
1944.27	-1.55296e-07
1952.83	-1.26833e-07
1961.39	-1.1837e-06
1969.95	-5.2427e-07
1978.5	-7.36551e-07
1987.06	-4.04015e-07
1995.62	1.32188e-07
2004.18	3.77181e-08
2012.73	-5.14492e-07
2021.29	-7.27762e-07
2029.85	-1.3614e-06
2038.41	-5.0838e-07
2046.96	3.74504e-07
2055.52	-1.03527e-06
2064.08	-7.61755e-07
2072.64	-1.51344e-06
2081.19	-6.39637e-07
2089.75	-5.6065e-07
2098.31	-1.19161e-06
2106.87	-6.48193e-07
2115.43	2.36623e-06
2123.98	1.544e-06
2132.54	8.1257e-08
2141.1	-5.00464e-07
2149.66	-2.76832e-07
2158.21	3.97932e-06
2166.77	-2.21012e-07
2175.33	-5.60533e-07
2183.89	-1.97787e-07
2192.44	3.10534e-07
2201	-2.79452e-07
2209.56	1.05553e-06
2218.12	7.45573e-07
2226.67	1.14406e-06
2235.23	-6.13036e-07
2243.79	-6.50172e-08
2252.35	-7.85853e-07
2260.9	-5.95516e-07
2269.46	-6.72116e-07
2278.02	-7.27296e-07
2286.58	-4.48077e-07
2295.14	-6.3108e-07
2303.69	-2.53608e-07
2312.25	-9.73279e-07
2320.81	-3.43392e-06
2329.37	-1.76658e-06
2337.92	-7.26458e-06
2346.48	-2.27589e-06
2355.04	-2.73794e-06
2363.6	-3.80901e-06
2372.15	-2.34411e-06
2380.71	-2.23102e-06
2389.27	-1.22793e-06
2397.83	-8.54246e-07
2406.38	-7.0477e-07
2414.94	-4.45516e-07
2423.5	-1.35209e-06
2432.06	-1.12363e-06
2440.62	-1.36658e-06
2449.17	-8.75491e-07
2457.73	-1.89446e-06
2466.29	-8.61813e-07
2474.85	-1.06158e-06
2483.4	-5.27646e-07
2491.96	-5.6455e-07
2500.52	-2.39056e-07
2509.08	-7.22989e-07
2517.63	-1.69283e-06
2526.19	-8.49357e-07
2534.75	-1.0752e-06
2543.31	-8.3527e-07
2551.86	-7.76656e-07
2560.42	-8.37424e-07
2568.98	-1.22706e-06
2577.54	-1.60937e-06
2586.1	-1.50471e-06
2594.65	-1.54487e-06
2603.21	-1.31228e-06
2611.77	-1.55791e-06
2620.33	-1.51833e-06
2628.88	-1.24749e-06
2637.44	-1.68236e-06
2646	-7.38123e-07
2654.56	-1.05721e-06
2663.11	-1.44388e-06
2671.67	-1.95418e-06
2680.23	-2.22944e-06
2688.79	-1.1011e-06
2697.34	-1.86693e-06
2705.9	-1.34767e-06
2714.46	-1.66984e-06
2723.02	-1.41245e-06
2731.58	-1.14703e-06
2740.13	-1.36187e-06
2748.69	-1.5862e-06
2757.25	-1.294e-06
2765.81	-9.61463e-07
2774.36	-1.43981e-06
2782.92	-2.07892e-06
2791.48	-1.63125e-06
2800.04	-2.78299e-06
2808.59	-1.1603e-06
2817.15	-1.3103e-06
2825.71	-1.60133e-06
2834.27	-5.02094e-07
2842.82	-1.80069e-06
2851.38	-1.64999e-06
2859.94	-2.24167e-06
2868.5	-6.76191e-07
2877.06	-9.03198e-07
2885.61	-1.90465e-06
2894.17	-1.95913e-06
2902.73	-8.47669e-07
2911.29	-2.76309e-07
2919.84	-1.03114e-06
2928.4	-1.11053e-06
2936.96	-4.06867e-07
2945.52	2.66355e-07
2954.07	-4.92955e-07
2962.63	1.17322e-06
2971.19	-2.62921e-07
2979.75	1.0454e-07
2988.3	-7.77354e-07
2996.86	-1.76408e-06
3005.42	-8.74386e-07
3013.98	7.33234e-07
3022.54	-1.39412e-06
3031.09	-3.16239e-07
3039.65	2.25494e-07
3048.21	6.21651e-08
3056.77	-6.54596e-07
3065.32	2.5745e-07
3073.88	-7.1484e-07
3082.44	-1.12805e-07
3091	-4.49358e-07
3099.55	-8.59717e-07
3108.11	-8.43478e-07
3116.67	-2.89056e-07
3125.23	-1.22264e-06
3133.78	-1.65483e-06
3142.34	-2.99417e-07
3150.9	-9.05061e-07
3159.46	-7.6775e-07
3168.02	-2.2596e-07
3176.57	6.78635e-07
3185.13	-4.74387e-07
3193.69	-8.39054e-07
3202.25	-1.39412e-06
3210.8	-4.2299e-07
3219.36	-1.32869e-06
3227.92	6.52966e-07
3236.48	1.79976e-07
3245.03	-1.80803e-06
3253.59	-4.09777e-08
3262.15	-1.68469e-06
3270.71	-9.81952e-08
3279.26	-9.86958e-07
3287.82	4.15714e-07
3296.38	1.09511e-06
3304.94	7.78169e-07
3313.5	9.58087e-07
3322.05	1.32363e-07
3330.61	-6.19031e-07
3339.17	1.17735e-06
3347.73	-4.64143e-07
3356.28	-1.91489e-06
3364.84	-9.48483e-07
3373.4	-4.46913e-07
3381.96	-9.29566e-07
3390.51	-1.34557e-06
3399.07	-9.68332e-07
3407.63	2.33992e-08
3416.19	-7.30207e-07
3424.74	-4.2561e-07
3433.3	7.50987e-07
3441.86	-1.30477e-06
3450.42	2.22467e-07
3458.98	7.14957e-07
3467.53	7.29916e-08
3476.09	5.87832e-07
3484.65	-1.59545e-06
3493.21	-1.59377e-06
3501.76	-1.11781e-06
3510.32	-1.022e-06
3518.88	-6.30207e-07
3527.44	-1.85442e-06
3535.99	-1.15931e-06
3544.55	-1.10512e-06
3553.11	-2.12141e-06
3561.67	-7.35853e-07
3570.22	-1.15442e-06
3578.78	-1.43911e-06
3587.34	-6.98135e-07
3595.9	-1.77822e-07
3604.46	4.12688e-07
3613.01	-7.35387e-07
3621.57	-8.56865e-07
3630.13	-1.69784e-06
3638.69	-9.52849e-07
3647.24	-3.30604e-06
3655.8	-1.35227e-06
3664.36	-3.84632e-07
3672.92	-1.7809e-06
3681.47	-8.95864e-07
3690.03	-2.09027e-06
3698.59	-2.13061e-06
3707.15	-1.33632e-06
3715.7	3.98136e-07
3724.26	-1.85116e-06
3732.82	-1.04813e-06
3741.38	-2.25348e-06
3749.94	-2.01606e-06
3758.49	7.103e-07
3767.05	5.82652e-08
3775.61	-1.83003e-07
3784.17	-6.41325e-07
3792.72	3.84166e-08
3801.28	-1.6687e-05
3809.84	-6.59427e-07
3818.4	-7.51918e-07
3826.95	-1.28672e-06
3835.51	-8.35212e-07
3844.07	-2.40616e-06
3852.63	-1.6912e-06
3861.18	-1.0589e-06
3869.74	-4.56325e-06
3878.3	-2.57578e-06
3886.86	-1.93917e-06
3895.42	-3.48753e-06
3903.97	-5.8767e-06
3912.53	-1.46088e-06
3921.09	-1.01362e-06
3929.65	-2.1699e-06
3938.2	-1.44336e-06
3946.76	-2.41623e-06
3955.32	-1.05465e-06
3963.88	-4.51104e-08
3972.43	-1.01903e-06
