Infrared Spectrum: Sulfur hexafluoride
Formula: S F6
CAS: 2551-62-4
State: gas
Melting point: -50.5 C
Boiling point: -63.9 C (sublimes)
Class: IUPAC A
Instrument: IFS66V (Bruker)
Instrument parameters: KBr Beam Splitter; MCT Detector; Multipass cell
Sampling: 1 L/min Flow
Resolution: 0.4820
Temperature: 23 C
Pressure: 101.3 Pa
Origin: NIST, Analytical Chemistry Division, 301-975-3108
cm-1	(micromol/mol)-1m-1 (base 10)
575.17	-1.34121e-06
583.848	-5.66022e-06
592.526	5.36957e-05
601.205	0.000297298
609.883	0.000178674
618.561	0.000158693
627.239	0.000438327
635.917	9.28332e-05
644.595	1.78661e-06
653.274	-2.17293e-06
661.952	1.06036e-06
670.63	-2.08096e-06
679.308	-2.51454e-08
687.986	2.29673e-06
696.664	1.17252e-06
705.343	1.97106e-06
714.021	-3.83118e-07
722.699	-7.03839e-07
731.377	1.57869e-06
740.055	2.63439e-06
748.733	9.6123e-07
757.412	-1.7334e-07
766.09	1.36915e-06
774.768	4.13386e-07
783.446	3.06169e-08
792.124	6.40335e-07
800.803	-2.06996e-06
809.481	-5.37367e-07
818.159	-2.00948e-06
826.837	-6.47786e-07
835.515	9.54304e-07
844.193	7.85445e-07
852.872	8.89706e-06
861.55	9.43471e-06
870.228	8.19822e-05
878.906	2.24501e-05
887.584	2.14944e-05
896.262	4.68607e-06
904.941	2.88934e-06
913.619	1.02231e-05
922.297	0.000243483
930.975	0.00083038
939.653	0.00485966
948.332	0.0169553
957.01	7.13971e-05
965.688	2.34635e-05
974.366	3.74986e-05
983.044	0.000138958
991.722	0.000115286
1000.4	1.83496e-05
1009.08	1.55325e-06
1017.76	-2.04889e-08
1026.44	-8.63967e-07
1035.11	6.46622e-07
1043.79	5.39055e-07
1052.47	5.24503e-07
1061.15	2.41384e-07
1069.83	-1.46961e-06
1078.5	-4.73863e-07
1087.18	4.60941e-07
1095.86	6.75201e-09
1104.54	-9.95514e-07
1113.22	7.31662e-08
1121.9	4.24445e-07
1130.57	1.0011e-06
1139.25	-8.36435e-08
1147.93	-1.27881e-07
1156.61	-7.72873e-07
1165.29	-3.75377e-07
1173.96	-6.44468e-07
1182.64	-4.90743e-07
1191.32	6.29334e-07
1200	6.09544e-07
1208.68	7.0285e-07
1217.35	7.20603e-08
1226.03	4.1944e-07
1234.71	1.25593e-06
1243.39	4.6047e-06
1252.07	1.22325e-05
1260.75	8.99007e-06
1269.42	4.3675e-06
1278.1	6.24095e-07
1286.78	1.55826e-06
1295.46	-4.32711e-07
1304.14	-2.84865e-07
1312.81	1.13271e-07
1321.49	-1.09138e-06
1330.17	-1.18859e-07
1338.85	-1.92083e-07
1347.53	-1.02345e-06
1356.21	1.04333e-05
1364.88	-1.99126e-07
1373.56	1.08323e-06
1382.24	1.7887e-06
1390.92	-4.59544e-07
1399.6	2.52153e-07
1408.27	9.82185e-07
1416.95	-1.11222e-06
1425.63	-9.9761e-07
1434.31	1.90803e-07
1442.99	-2.41559e-07
1451.67	-5.56459e-07
1460.34	5.10126e-07
1469.02	1.16234e-06
1477.7	3.99533e-07
1486.38	-5.10068e-07
1495.06	-4.79044e-08
1503.73	5.40161e-08
1512.41	-3.84463e-06
1521.09	-1.24314e-05
1529.77	-2.99824e-07
1538.45	-2.75657e-06
1547.13	1.05302e-06
1555.8	5.10312e-06
1564.48	1.56671e-05
1573.16	3.11175e-05
1581.84	4.13548e-05
1590.52	3.28324e-05
1599.19	2.3234e-05
1607.87	7.69665e-06
1616.55	-1.33735e-05
1625.23	1.20064e-06
1633.91	1.61577e-06
1642.59	9.62395e-07
1651.26	-5.50813e-07
1659.94	5.11931e-07
1668.62	-1.24615e-06
1677.3	-7.47494e-07
1685.98	-1.05919e-06
1694.65	5.6228e-08
1703.33	2.49237e-06
1712.01	3.10682e-05
1720.69	3.47568e-05
1729.37	-1.41699e-06
1738.05	-7.63734e-07
1746.72	-4.15191e-07
1755.4	-5.69963e-07
1764.08	-2.38998e-07
1772.76	-1.21959e-05
1781.44	-1.81839e-07
1790.11	8.23629e-08
1798.79	5.26773e-08
1807.47	-5.45167e-07
1816.15	2.93713e-07
1824.83	-6.73397e-07
1833.51	-3.53782e-07
1842.18	-5.259e-07
1850.86	-1.5653e-06
1859.54	-2.44935e-06
1868.22	-2.19085e-06
1876.9	-4.33828e-06
1885.57	-7.85725e-06
1894.25	-9.01824e-06
1902.93	-5.0583e-06
1911.61	-1.24452e-06
1920.29	-9.83989e-07
1928.97	-1.18038e-06
1937.64	-1.23277e-06
1946.32	-8.7392e-07
1955	-5.5285e-07
1963.68	-1.23667e-06
1972.36	-7.1583e-07
1981.03	-7.62162e-07
1989.71	-6.80556e-07
1998.39	-8.37133e-07
2007.07	-8.87016e-07
2015.75	-1.20838e-07
2024.43	-5.16704e-07
2033.1	-7.68973e-07
2041.78	-5.6746e-07
2050.46	-2.68625e-07
2059.14	-8.84979e-07
2067.82	-3.68509e-07
2076.49	-8.17052e-07
2085.17	-1.07037e-06
2093.85	-3.28171e-07
2102.53	-9.38762e-07
2111.21	8.09427e-07
2119.89	2.48777e-06
2128.56	-2.38067e-07
2137.24	-1.19033e-07
2145.92	-3.16704e-07
2154.6	2.4802e-06
2163.28	-1.57625e-07
2171.95	-5.58205e-07
2180.63	-2.79277e-07
2189.31	-8.34456e-07
2197.99	-2.13387e-07
2206.67	4.63735e-07
2215.35	6.75201e-07
2224.02	5.36552e-07
2232.7	-2.03608e-07
2241.38	-8.06167e-07
2250.06	-1.09196e-07
2258.74	-4.93363e-07
2267.41	-9.85619e-07
2276.09	-8.65131e-07
2284.77	-8.98192e-07
2293.45	-6.98251e-07
2302.13	-1.60547e-06
2310.8	-2.32584e-06
2319.48	-4.13607e-06
2328.16	-3.29917e-06
2336.84	-2.2724e-06
2345.52	-3.27636e-06
2354.2	-8.67092e-06
2362.87	-2.01924e-05
2371.55	-8.36318e-06
2380.23	-1.2252e-06
2388.91	-6.19206e-07
2397.59	-5.79334e-07
2406.26	-7.34572e-07
2414.94	-3.23922e-07
2423.62	-1.0926e-06
2432.3	-1.2539e-06
2440.98	-1.21752e-06
2449.66	-1.36734e-06
2458.33	-9.27703e-07
2467.01	-2.49883e-07
2475.69	-9.09077e-07
2484.37	-1.23632e-06
2493.05	-5.12629e-07
2501.72	-3.56576e-07
2510.4	-4.01978e-07
2519.08	-3.88648e-07
2527.76	-2.0192e-07
2536.44	-1.17712e-06
2545.12	-3.68509e-07
2553.79	-9.1548e-07
2562.47	-7.19846e-07
2571.15	-1.03579e-06
2579.83	-7.60125e-07
2588.51	-2.0057e-06
2597.18	-1.1557e-06
2605.86	-1.38003e-06
2614.54	-1.25611e-06
2623.22	-1.39394e-06
2631.9	-1.64924e-06
2640.58	-1.1394e-06
2649.25	-6.64316e-07
2657.93	-1.87444e-06
2666.61	-1.48457e-06
2675.29	-1.97473e-06
2683.97	-8.76365e-07
2692.64	-1.33614e-06
2701.32	-1.21076e-06
2710	-1.56629e-06
2718.68	-1.83125e-06
2727.36	-1.38393e-06
2736.04	-1.35937e-06
2744.71	-1.74382e-06
2753.39	-1.82071e-06
2762.07	-1.30704e-06
2770.75	-8.33e-07
2779.43	-1.46554e-06
2788.1	-7.79392e-07
2796.78	-1.31961e-06
2805.46	-1.81588e-06
2814.14	-1.33457e-06
2822.82	-1.92409e-06
2831.5	-5.58671e-07
2840.17	-1.64423e-06
2848.85	-1.01455e-06
2857.53	-2.49679e-06
2866.21	-1.00366e-06
2874.89	-4.03782e-07
2883.56	-1.4057e-06
2892.24	-1.18102e-07
2900.92	-7.25958e-07
2909.6	-2.13247e-06
2918.28	-1.75849e-06
2926.96	-1.03218e-06
2935.63	-1.10168e-06
2944.31	-1.11554e-06
2952.99	-7.1647e-07
2961.67	-2.77438e-06
2970.35	-1.97275e-06
2979.02	-2.17403e-07
2987.7	-1.33859e-06
2996.38	-1.22863e-06
3005.06	-6.22e-07
3013.74	-5.58263e-07
3022.42	-1.18544e-06
3031.09	-2.75377e-07
3039.77	1.58381e-07
3048.45	2.26483e-07
3057.13	-7.58845e-07
3065.81	-1.51257e-06
3074.48	-3.78113e-07
3083.16	-1.0174e-06
3091.84	-1.02246e-06
3100.52	-7.40917e-07
3109.2	-1.12642e-06
3117.88	-5.37949e-07
3126.55	-1.41332e-06
3135.23	-1.55133e-06
3143.91	1.99534e-07
3152.59	-4.09021e-07
3161.27	-6.49881e-07
3169.94	-8.84746e-08
3178.62	8.65538e-07
3187.3	-1.688e-08
3195.98	-3.39114e-07
3204.66	-1.70547e-07
3213.34	-1.58061e-06
3222.01	-2.65907e-06
3230.69	-8.525e-07
3239.37	6.16994e-07
3248.05	-1.51815e-06
3256.73	5.56575e-07
3265.4	-1.79208e-06
3274.08	-2.03724e-09
3282.76	9.41906e-07
3291.44	3.61815e-07
3300.12	-3.44003e-08
3308.8	2.50057e-07
3317.47	7.05643e-07
3326.15	1.25972e-06
3334.83	6.63793e-07
3343.51	4.7008e-07
3352.19	-8.62046e-08
3360.86	-1.04656e-07
3369.54	-1.1426e-07
3378.22	-6.71418e-07
3386.9	-1.7348e-06
3395.58	-1.49382e-06
3404.26	-1.52991e-06
3412.93	-1.2305e-06
3421.61	-1.20151e-06
3430.29	-4.64958e-07
3438.97	-1.04889e-07
3447.65	-1.03457e-06
3456.32	5.90801e-08
3465	-9.27645e-07
3473.68	-1.55919e-06
3482.36	9.93593e-07
3491.04	-6.11057e-07
3499.71	-3.98602e-07
3508.39	1.21664e-06
3517.07	-1.58812e-06
3525.75	-2.11059e-06
3534.43	-3.22932e-07
3543.11	-1.27753e-06
3551.78	-1.6795e-06
3560.46	-1.23341e-07
3569.14	4.52268e-08
3577.82	-4.46215e-07
3586.5	-3.96349e-06
3595.17	-1.56519e-06
3603.85	4.30499e-07
3612.53	-3.93142e-06
3621.21	-2.16588e-07
3629.89	-5.05132e-06
3638.57	-7.30265e-07
3647.24	-3.77659e-06
3655.92	-2.67025e-06
3664.6	-4.92257e-07
3673.28	-9.49414e-07
3681.96	-9.5896e-07
3690.63	-2.19272e-06
3699.31	-4.82885e-07
3707.99	-5.33409e-07
3716.67	-1.28929e-06
3725.35	-1.23917e-06
3734.03	-6.88647e-07
3742.7	-1.95226e-06
3751.38	-1.52124e-06
3760.06	-3.33724e-06
3768.74	-6.14899e-07
3777.42	-2.49126e-07
3786.09	-1.3504e-07
3794.77	-1.3309e-06
3803.45	-2.60593e-07
3812.13	3.38183e-08
3820.81	-7.60154e-06
3829.49	-1.27532e-06
3838.16	-9.98163e-06
3846.84	-2.47263e-07
3855.52	-2.50407e-06
3864.2	-3.2827e-06
3872.88	-2.01128e-06
3881.55	-3.34591e-06
3890.23	-3.29207e-06
3898.91	-3.60697e-06
3907.59	-2.03253e-06
3916.27	-2.85045e-06
3924.95	-3.18934e-06
3933.62	-2.68235e-06
3942.3	-2.66943e-06
3950.98	-2.29627e-06
3959.66	-1.42392e-06
3968.34	-7.16645e-07
