Infrared Spectrum: Sulfur hexafluoride
Formula: S F6
CAS: 2551-62-4
State: gas
Melting point: -50.5 C
Boiling point: -63.9 C (sublimes)
Class: IUPAC A
Instrument: IFS66V (Bruker)
Instrument parameters: KBr Beam Splitter; MCT Detector; Multipass cell
Sampling: 1 L/min Flow
Resolution: 0.2410
Temperature: 23 C
Pressure: 101.3 Pa
Origin: NIST, Analytical Chemistry Division, 301-975-3108
cm-1	(micromol/mol)-1m-1 (base 10)
575.049	7.48594e-06
583.607	4.88316e-06
592.164	4.097e-05
600.722	0.000278255
609.28	0.000205213
617.837	0.000120465
626.395	0.000455158
634.953	0.000125
643.51	7.87023e-06
652.068	-3.50296e-06
660.625	-1.38707e-07
669.183	2.01332e-06
677.741	6.66412e-07
686.298	-4.14352e-06
694.856	3.27118e-06
703.414	1.44062e-06
711.971	-7.40393e-08
720.529	-1.39167e-06
729.087	1.79836e-06
737.644	2.77449e-06
746.202	1.57258e-06
754.76	-4.74212e-07
763.317	-1.27526e-06
771.875	-3.03718e-06
780.432	-8.46213e-07
788.99	-7.57797e-07
797.548	-2.05523e-06
806.105	1.24254e-06
814.663	1.25651e-06
823.221	2.40587e-06
831.778	6.04713e-07
840.336	9.22057e-07
848.894	4.89637e-06
857.451	1.03159e-05
866.009	1.5609e-05
874.567	9.62622e-06
883.124	2.6506e-05
891.682	1.31567e-05
900.239	3.34521e-06
908.797	5.86401e-06
917.355	3.39237e-05
925.912	0.000718712
934.47	0.000834285
943.028	0.0149681
951.585	0.00496335
960.143	5.38641e-05
968.701	2.92133e-05
977.258	5.92986e-05
985.816	0.000138782
994.374	0.000104735
1002.93	1.11756e-05
1011.49	1.28259e-06
1020.05	6.07623e-07
1028.6	2.05046e-06
1037.16	1.65587e-06
1045.72	-1.01862e-07
1054.28	7.41674e-07
1062.83	-8.84979e-07
1071.39	7.46214e-08
1079.95	6.7037e-07
1088.51	-1.9025e-06
1097.07	8.49822e-08
1105.62	-1.81175e-06
1114.18	3.15773e-07
1122.74	3.22176e-07
1131.3	9.30614e-07
1139.85	6.76424e-07
1148.41	-7.28984e-07
1156.97	-5.71535e-07
1165.53	1.71129e-08
1174.08	-2.51512e-07
1182.64	-5.90219e-08
1191.2	1.20785e-06
1199.76	5.83176e-07
1208.31	-7.83874e-07
1216.87	1.10436e-06
1225.43	8.93827e-07
1233.99	-3.88241e-08
1242.55	6.30009e-06
1251.1	1.09569e-05
1259.66	8.90212e-06
1268.22	4.85452e-06
1276.78	1.76414e-06
1285.33	1.69476e-06
1293.89	-6.72465e-07
1302.45	1.73457e-08
1311.01	1.04773e-08
1319.56	-1.10785e-06
1328.12	3.69731e-07
1336.68	1.64609e-07
1345.24	-3.532e-07
1353.79	8.13204e-06
1362.35	-1.81373e-06
1370.91	2.04801e-06
1379.47	1.6571e-06
1388.03	1.02403e-05
1396.58	1.09249e-06
1405.14	-1.25058e-06
1413.7	-3.25901e-07
1422.26	-1.23009e-06
1430.81	-6.27413e-07
1439.37	8.7002e-07
1447.93	-4.7838e-06
1456.49	-1.07457e-05
1465.04	-5.3721e-06
1473.6	-1.01748e-05
1482.16	1.41618e-07
1490.72	-4.73444e-06
1499.27	1.10011e-07
1507.83	-2.03917e-06
1516.39	-1.0426e-06
1524.95	-1.66274e-06
1533.51	-2.32997e-06
1542.06	-1.38033e-05
1550.62	2.11233e-06
1559.18	6.22029e-06
1567.74	2.18215e-05
1576.29	1.5585e-05
1584.85	4.80891e-05
1593.41	3.43153e-05
1601.97	1.59662e-05
1610.52	5.54532e-06
1619.08	1.35529e-06
1627.64	-1.20582e-06
1636.2	5.75842e-07
1644.75	-8.96271e-07
1653.31	-2.88758e-05
1661.87	-1.11752e-06
1670.43	-1.30419e-06
1678.99	-8.06283e-07
1687.54	-6.36261e-07
1696.1	-1.43595e-05
1704.66	1.98154e-06
1713.22	4.163e-05
1721.77	4.73721e-05
1730.33	-1.64062e-06
1738.89	-2.30686e-06
1747.45	-3.97437e-07
1756	-1.13597e-06
1764.56	8.6321e-08
1773.12	-1.99324e-06
1781.68	-2.53957e-07
1790.23	-1.80209e-07
1798.79	2.85214e-08
1807.35	-2.94178e-07
1815.91	-1.51047e-07
1824.47	1.75203e-08
1833.02	-6.67401e-07
1841.58	-7.4278e-07
1850.14	-2.05052e-06
1858.7	-2.08387e-06
1867.25	-2.12135e-06
1875.81	-3.82985e-06
1884.37	-7.69758e-06
1892.93	-1.01524e-05
1901.48	-4.62839e-06
1910.04	-1.97555e-06
1918.6	-1.33131e-06
1927.16	-1.38731e-06
1935.71	-1.5529e-06
1944.27	-1.6653e-07
1952.83	-1.14086e-07
1961.39	-1.15739e-06
1969.95	-4.98834e-07
1978.5	-7.59892e-07
1987.06	-4.18159e-07
1995.62	1.03085e-07
2004.18	-6.93245e-08
2012.73	-6.00056e-07
2021.29	-9.34455e-07
2029.85	-1.33603e-06
2038.41	-5.12222e-07
2046.96	4.30615e-07
2055.52	-1.1284e-06
2064.08	-8.5704e-07
2072.64	-1.56338e-06
2081.19	-6.83292e-07
2089.75	-6.69846e-07
2098.31	-1.19383e-06
2106.87	-6.50929e-07
2115.43	1.7337e-06
2123.98	1.26786e-06
2132.54	5.51802e-08
2141.1	-7.12104e-07
2149.66	-2.07683e-07
2158.21	3.81483e-06
2166.77	-2.12456e-07
2175.33	-6.06401e-07
2183.89	-1.01397e-07
2192.44	4.10301e-07
2201	-2.82944e-07
2209.56	1.15215e-06
2218.12	8.10125e-07
2226.67	1.02846e-06
2235.23	-6.51744e-07
2243.79	-6.47844e-08
2252.35	-8.35561e-07
2260.9	-5.86901e-07
2269.46	-8.15364e-07
2278.02	-6.63269e-07
2286.58	-4.12746e-07
2295.14	-5.97902e-07
2303.69	-5.18683e-07
2312.25	-1.05186e-06
2320.81	-3.62315e-06
2329.37	-1.98259e-06
2337.92	-6.22501e-06
2346.48	-2.24557e-06
2355.04	-3.05971e-06
2363.6	-4.5519e-06
2372.15	-2.59813e-06
2380.71	-2.37217e-06
2389.27	-1.19848e-06
2397.83	-8.54653e-07
2406.38	-7.30789e-07
2414.94	-6.35329e-07
2423.5	-1.40075e-06
2432.06	-1.10227e-06
2440.62	-1.31298e-06
2449.17	-8.78576e-07
2457.73	-1.83451e-06
2466.29	-7.07157e-07
2474.85	-1.227e-06
2483.4	-4.99183e-07
2491.96	-5.06284e-07
2500.52	-3.06227e-07
2509.08	-8.24851e-07
2517.63	-1.59534e-06
2526.19	-8.50579e-07
2534.75	-1.15791e-06
2543.31	-9.02325e-07
2551.86	-7.70661e-07
2560.42	-7.3009e-07
2568.98	-1.22479e-06
2577.54	-1.57089e-06
2586.1	-1.61449e-06
2594.65	-1.59056e-06
2603.21	-1.39836e-06
2611.77	-1.57689e-06
2620.33	-1.53387e-06
2628.88	-1.17881e-06
2637.44	-1.68957e-06
2646	-8.25899e-07
2654.56	-1.00372e-06
2663.11	-1.3713e-06
2671.67	-1.68684e-06
2680.23	-2.34318e-06
2688.79	-1.39575e-06
2697.34	-1.77817e-06
2705.9	-1.34522e-06
2714.46	-1.72293e-06
2723.02	-1.49854e-06
2731.58	-1.30948e-06
2740.13	-1.5532e-06
2748.69	-1.72613e-06
2757.25	-1.2582e-06
2765.81	-1.06967e-06
2774.36	-1.37811e-06
2782.92	-1.96868e-06
2791.48	-1.52671e-06
2800.04	-2.59644e-06
2808.59	-1.21437e-06
2817.15	-1.30139e-06
2825.71	-1.7986e-06
2834.27	-6.89229e-07
2842.82	-1.68102e-06
2851.38	-1.72124e-06
2859.94	-2.094e-06
2868.5	-8.80614e-07
2877.06	-8.69787e-07
2885.61	-2.02706e-06
2894.17	-2.34935e-06
2902.73	-7.28286e-07
2911.29	-3.30965e-07
2919.84	-9.08378e-07
2928.4	-1.14866e-06
2936.96	-6.08263e-07
2945.52	3.14783e-07
2954.07	-3.02735e-07
2962.63	1.13073e-06
2971.19	-1.51047e-07
2979.75	-8.05585e-08
2988.3	-7.24328e-07
2996.86	-2.00255e-06
3005.42	-6.55469e-07
3013.98	9.00229e-07
3022.54	-1.65366e-06
3031.09	-4.54655e-07
3039.65	1.27357e-07
3048.21	1.25727e-07
3056.77	-7.59485e-07
3065.32	2.05529e-07
3073.88	-5.98484e-07
3082.44	-1.30675e-07
3091	-7.37424e-07
3099.55	-9.16178e-07
3108.11	-7.21534e-07
3116.67	-1.10302e-07
3125.23	-1.30826e-06
3133.78	-1.8681e-06
3142.34	-3.91617e-07
3150.9	-1.13783e-06
3159.46	-8.20602e-07
3168.02	-5.54887e-07
3176.57	6.05877e-07
3185.13	-4.75435e-07
3193.69	-7.85795e-07
3202.25	-1.20215e-06
3210.8	-2.69207e-07
3219.36	-1.19342e-06
3227.92	6.66761e-07
3236.48	2.74097e-07
3245.03	-1.88038e-06
3253.59	-2.30558e-07
3262.15	-1.67118e-06
3270.71	-1.00523e-07
3279.26	-1.19412e-06
3287.82	3.18101e-07
3296.38	1.0525e-06
3304.94	8.2619e-07
3313.5	1.02927e-06
3322.05	8.79508e-08
3330.61	-9.63617e-07
3339.17	9.90858e-07
3347.73	-1.45634e-07
3356.28	-1.98422e-06
3364.84	-1.07374e-06
3373.4	-6.01278e-08
3381.96	-8.3917e-07
3390.51	-1.35558e-06
3399.07	-1.40331e-06
3407.63	8.42837e-08
3416.19	-6.43828e-07
3424.74	-5.88706e-07
3433.3	7.32943e-07
3441.86	-1.30995e-06
3450.42	5.43653e-07
3458.98	9.74443e-07
3467.53	-6.55411e-08
3476.09	2.12165e-07
3484.65	-1.50756e-06
3493.21	-1.51554e-06
3501.76	-1.04976e-06
3510.32	-1.09191e-06
3518.88	-8.2066e-07
3527.44	-1.96257e-06
3535.99	-1.17753e-06
3544.55	-1.42782e-06
3553.11	-1.92904e-06
3561.67	-5.56983e-07
3570.22	-1.34115e-06
3578.78	-1.19726e-06
3587.34	-6.06633e-07
3595.9	-2.25436e-07
3604.46	3.16821e-07
3613.01	-9.35619e-07
3621.57	-1.05122e-06
3630.13	-2.04871e-06
3638.69	-1.10989e-06
3647.24	-2.91763e-06
3655.8	-1.39877e-06
3664.36	-3.93363e-07
3672.92	-2.09854e-06
3681.47	-1.11111e-06
3690.03	-2.07328e-06
3698.59	-2.08305e-06
3707.15	-1.56944e-06
3715.7	3.28811e-07
3724.26	-1.8213e-06
3732.82	-1.44406e-06
3741.38	-2.15302e-06
3749.94	-2.30075e-06
3758.49	6.27297e-07
3767.05	1.52211e-07
3775.61	-1.56693e-07
3784.17	-4.74969e-07
3792.72	-1.84574e-07
3801.28	-1.5365e-05
3809.84	-6.63211e-07
3818.4	-5.454e-07
3826.95	-9.1222e-07
3835.51	-7.87133e-07
3844.07	-2.30657e-06
3852.63	-1.92892e-06
3861.18	-9.49182e-07
3869.74	-5.04573e-06
3878.3	-2.54271e-06
3886.86	-2.13922e-06
3895.42	-3.74254e-06
3903.97	-5.39317e-06
3912.53	-1.25884e-06
3921.09	-8.2555e-07
3929.65	-2.12677e-06
3938.2	-1.63643e-06
3946.76	-2.39143e-06
3955.32	-1.0862e-06
3963.88	8.72523e-08
3972.43	-6.17285e-07
