Infrared Spectrum: Sulfur hexafluoride
Formula: S F6
CAS: 2551-62-4
State: gas
Melting point: -50.5 C
Boiling point: -63.9 C (sublimes)
Class: IUPAC A
Instrument: IFS66V (Bruker)
Instrument parameters: KBr Beam Splitter; MCT Detector; Multipass cell
Sampling: 1 L/min Flow
Resolution: 0.2410
Temperature: 23 C
Pressure: 101.3 Pa
Origin: NIST, Analytical Chemistry Division, 301-975-3108
cm-1	(micromol/mol)-1m-1 (base 10)
575.049	7.25672e-06
583.607	4.40388e-06
592.164	3.93089e-05
600.722	0.000278699
609.28	0.000202109
617.837	0.000112429
626.395	0.00045793
634.953	0.000123836
643.51	7.72401e-06
652.068	-4.23124e-06
660.625	-2.69731e-07
669.183	2.38247e-06
677.741	8.92663e-07
686.298	-4.74055e-06
694.856	3.4515e-06
703.414	1.53405e-06
711.971	-1.89755e-08
720.529	-1.57386e-06
729.087	1.76379e-06
737.644	2.9387e-06
746.202	1.74184e-06
754.76	-6.94351e-07
763.317	-1.51129e-06
771.875	-3.38107e-06
780.432	-9.83465e-07
788.99	-6.60358e-07
797.548	-2.38288e-06
806.105	1.33934e-06
814.663	9.18448e-07
823.221	2.39987e-06
831.778	2.59661e-07
840.336	7.24386e-07
848.894	4.60505e-06
857.451	1.00682e-05
866.009	1.48243e-05
874.567	8.92546e-06
883.124	2.56319e-05
891.682	1.23929e-05
900.239	1.74801e-06
908.797	3.82385e-06
917.355	2.8885e-05
925.912	0.000714901
934.47	0.000804391
943.028	0.0150204
951.585	0.00484984
960.143	3.88999e-05
968.701	2.44267e-05
977.258	5.61615e-05
985.816	0.000138091
994.374	0.000104099
1002.93	1.04006e-05
1011.49	3.62688e-07
1020.05	2.10768e-07
1028.6	1.54161e-06
1037.16	1.52182e-06
1045.72	-4.77821e-07
1054.28	7.08496e-07
1062.83	-1.28632e-06
1071.39	-4.37135e-08
1079.95	3.79393e-07
1088.51	-2.04801e-06
1097.07	-3.37601e-08
1105.62	-1.90413e-06
1114.18	2.07857e-07
1122.74	4.43887e-07
1131.3	7.15946e-07
1139.85	6.66703e-07
1148.41	-8.6676e-07
1156.97	-6.3108e-07
1165.53	-3.04423e-08
1174.08	-3.68276e-07
1182.64	-3.0873e-07
1191.2	1.31915e-06
1199.76	6.48368e-07
1208.31	-9.76422e-07
1216.87	1.04202e-06
1225.43	9.21766e-07
1233.99	-2.15017e-07
1242.55	6.37518e-06
1251.1	1.0929e-05
1259.66	8.81603e-06
1268.22	4.79643e-06
1276.78	1.83003e-06
1285.33	1.70098e-06
1293.89	-7.3789e-07
1302.45	-6.46098e-09
1311.01	6.70545e-08
1319.56	-1.17037e-06
1328.12	4.03666e-07
1336.68	1.15133e-07
1345.24	-4.4377e-07
1353.79	8.30445e-06
1362.35	-1.75692e-06
1370.91	2.06926e-06
1379.47	1.6532e-06
1388.03	1.09265e-05
1396.58	1.12665e-06
1405.14	-1.37566e-06
1413.7	-3.34108e-07
1422.26	-1.27927e-06
1430.81	-5.89229e-07
1439.37	9.64956e-07
1447.93	-5.15894e-06
1456.49	-1.09227e-05
1465.04	-5.8342e-06
1473.6	-1.10363e-05
1482.16	1.43829e-07
1490.72	-5.09818e-06
1499.27	3.43305e-07
1507.83	-1.89545e-06
1516.39	-9.98949e-07
1524.95	-1.6284e-06
1533.51	-2.16268e-06
1542.06	-1.49798e-05
1550.62	2.20674e-06
1559.18	6.72605e-06
1567.74	2.1822e-05
1576.29	1.38781e-05
1584.85	4.88793e-05
1593.41	3.44112e-05
1601.97	1.58796e-05
1610.52	5.62966e-06
1619.08	1.37345e-06
1627.64	-1.39057e-06
1636.2	8.76597e-07
1644.75	-8.60823e-07
1653.31	-3.09338e-05
1661.87	-1.13108e-06
1670.43	-1.27968e-06
1678.99	-8.1775e-07
1687.54	-6.53548e-07
1696.1	-1.57419e-05
1704.66	1.70523e-06
1713.22	4.20058e-05
1721.77	4.88049e-05
1730.33	-1.60855e-06
1738.89	-2.39301e-06
1747.45	-2.94295e-07
1756	-1.12177e-06
1764.56	1.35564e-07
1773.12	-1.60669e-06
1781.68	-2.61175e-07
1790.23	-1.90861e-07
1798.79	8.3236e-08
1807.35	-2.87193e-07
1815.91	-1.44353e-07
1824.47	5.06401e-08
1833.02	-6.60417e-07
1841.58	-7.95573e-07
1850.14	-2.15546e-06
1858.7	-2.1674e-06
1867.25	-2.10482e-06
1875.81	-3.84387e-06
1884.37	-7.74095e-06
1892.93	-1.03145e-05
1901.48	-4.51698e-06
1910.04	-1.96454e-06
1918.6	-1.2784e-06
1927.16	-1.44575e-06
1935.71	-1.58207e-06
1944.27	-1.01688e-07
1952.83	-1.06111e-07
1961.39	-1.22462e-06
1969.95	-4.87484e-07
1978.5	-8.64025e-07
1987.06	-4.00755e-07
1995.62	1.27124e-07
2004.18	-3.83584e-08
2012.73	-6.07565e-07
2021.29	-9.65771e-07
2029.85	-1.43079e-06
2038.41	-5.04014e-07
2046.96	4.993e-07
2055.52	-1.10296e-06
2064.08	-8.52965e-07
2072.64	-1.66705e-06
2081.19	-6.78694e-07
2089.75	-6.60475e-07
2098.31	-1.25704e-06
2106.87	-7.24968e-07
2115.43	1.9589e-06
2123.98	1.32718e-06
2132.54	3.7951e-08
2141.1	-6.91034e-07
2149.66	-2.19208e-07
2158.21	4.15615e-06
2166.77	-2.19091e-07
2175.33	-6.83292e-07
2183.89	-1.92374e-07
2192.44	3.7107e-07
2201	-3.25668e-07
2209.56	1.22741e-06
2218.12	8.57855e-07
2226.67	1.12054e-06
2235.23	-6.79858e-07
2243.79	-6.38531e-08
2252.35	-8.52907e-07
2260.9	-5.98659e-07
2269.46	-8.07855e-07
2278.02	-6.43537e-07
2286.58	-3.97787e-07
2295.14	-5.97146e-07
2303.69	-4.13328e-07
2312.25	-9.70252e-07
2320.81	-3.35878e-06
2329.37	-1.53562e-06
2337.92	-6.15737e-06
2346.48	-2.05558e-06
2355.04	-2.61734e-06
2363.6	-4.03089e-06
2372.15	-2.19667e-06
2380.71	-2.45872e-06
2389.27	-1.21181e-06
2397.83	-9.11929e-07
2406.38	-7.17401e-07
2414.94	-6.06808e-07
2423.5	-1.43172e-06
2432.06	-1.14441e-06
2440.62	-1.3192e-06
2449.17	-9.02616e-07
2457.73	-1.86821e-06
2466.29	-7.17401e-07
2474.85	-1.19685e-06
2483.4	-4.89288e-07
2491.96	-4.2788e-07
2500.52	-1.99999e-07
2509.08	-7.21825e-07
2517.63	-1.71181e-06
2526.19	-8.2392e-07
2534.75	-1.11548e-06
2543.31	-8.9825e-07
2551.86	-7.89462e-07
2560.42	-7.02558e-07
2568.98	-1.21199e-06
2577.54	-1.56356e-06
2586.1	-1.61391e-06
2594.65	-1.56356e-06
2603.21	-1.34586e-06
2611.77	-1.55913e-06
2620.33	-1.51129e-06
2628.88	-1.10582e-06
2637.44	-1.75162e-06
2646	-8.00346e-07
2654.56	-9.62627e-07
2663.11	-1.41682e-06
2671.67	-1.7784e-06
2680.23	-2.4167e-06
2688.79	-1.30587e-06
2697.34	-1.78975e-06
2705.9	-1.38288e-06
2714.46	-1.68707e-06
2723.02	-1.4908e-06
2731.58	-1.25e-06
2740.13	-1.63073e-06
2748.69	-1.71501e-06
2757.25	-1.15913e-06
2765.81	-1.06076e-06
2774.36	-1.38917e-06
2782.92	-2.0444e-06
2791.48	-1.55448e-06
2800.04	-2.69033e-06
2808.59	-1.16722e-06
2817.15	-1.25803e-06
2825.71	-1.79516e-06
2834.27	-5.67227e-07
2842.82	-1.65739e-06
2851.38	-1.69679e-06
2859.94	-2.16274e-06
2868.5	-8.28809e-07
2877.06	-9.03489e-07
2885.61	-2.14173e-06
2894.17	-2.43753e-06
2902.73	-7.6158e-07
2911.29	-2.87601e-07
2919.84	-8.58495e-07
2928.4	-1.16792e-06
2936.96	-5.69555e-07
2945.52	4.14317e-07
2954.07	-3.25144e-07
2962.63	1.34045e-06
2971.19	-1.40686e-07
2979.75	1.97904e-09
2988.3	-7.6094e-07
2996.86	-2.06402e-06
3005.42	-7.2392e-07
3013.98	9.89112e-07
3022.54	-1.69266e-06
3031.09	-4.3533e-07
3039.65	1.98486e-07
3048.21	1.3958e-07
3056.77	-7.61871e-07
3065.32	3.93479e-07
3073.88	-6.07448e-07
3082.44	-3.64958e-08
3091	-6.48193e-07
3099.55	-9.55643e-07
3108.11	-6.80498e-07
3116.67	-7.43303e-08
3125.23	-1.36449e-06
3133.78	-1.88288e-06
3142.34	-3.74155e-07
3150.9	-1.12834e-06
3159.46	-8.2683e-07
3168.02	-5.34224e-07
3176.57	6.71534e-07
3185.13	-4.80324e-07
3193.69	-9.18623e-07
3202.25	-1.25448e-06
3210.8	-2.22234e-07
3219.36	-1.1908e-06
3227.92	7.7555e-07
3236.48	3.68043e-07
3245.03	-1.85215e-06
3253.59	-8.85328e-08
3262.15	-1.80168e-06
3270.71	-1.22293e-07
3279.26	-1.2036e-06
3287.82	3.67635e-07
3296.38	1.13539e-06
3304.94	8.87657e-07
3313.5	1.06787e-06
3322.05	1.8568e-07
3330.61	-1.00733e-06
3339.17	1.16664e-06
3347.73	-2.4249e-07
3356.28	-2.09894e-06
3364.84	-1.04033e-06
3373.4	-3.53899e-08
3381.96	-8.16935e-07
3390.51	-1.40966e-06
3399.07	-1.34179e-06
3407.63	2.36728e-07
3416.19	-7.29799e-07
3424.74	-4.70254e-07
3433.3	8.83175e-07
3441.86	-1.33294e-06
3450.42	4.86378e-07
3458.98	9.87424e-07
3467.53	8.96388e-09
3476.09	3.23223e-07
3484.65	-1.59697e-06
3493.21	-1.58818e-06
3501.76	-1.00611e-06
3510.32	-1.15395e-06
3518.88	-8.29741e-07
3527.44	-1.97747e-06
3535.99	-1.20197e-06
3544.55	-1.47008e-06
3553.11	-2.01425e-06
3561.67	-6.5902e-07
3570.22	-1.40908e-06
3578.78	-1.34365e-06
3587.34	-5.81546e-07
3595.9	-1.46449e-07
3604.46	3.7107e-07
3613.01	-8.45049e-07
3621.57	-1.07799e-06
3630.13	-1.93305e-06
3638.69	-1.1401e-06
3647.24	-3.03293e-06
3655.8	-1.31484e-06
3664.36	-4.10592e-07
3672.92	-2.03527e-06
3681.47	-1.03044e-06
3690.03	-1.97915e-06
3698.59	-2.16798e-06
3707.15	-1.55331e-06
3715.7	4.95109e-07
3724.26	-1.83794e-06
3732.82	-1.21187e-06
3741.38	-2.22723e-06
3749.94	-1.80302e-06
3758.49	7.97843e-07
3767.05	1.77881e-07
3775.61	-1.82828e-07
3784.17	-4.62862e-07
3792.72	-1.52561e-07
3801.28	-1.6696e-05
3809.84	-6.65713e-07
3818.4	-4.71826e-07
3826.95	-9.90509e-07
3835.51	-6.73339e-07
3844.07	-2.22141e-06
3852.63	-1.39371e-06
3861.18	-7.24037e-07
3869.74	-4.61378e-06
3878.3	-2.53049e-06
3886.86	-1.99056e-06
3895.42	-3.78811e-06
3903.97	-5.52844e-06
3912.53	-1.26187e-06
3921.09	-7.99648e-07
3929.65	-2.12624e-06
3938.2	-1.67793e-06
3946.76	-2.43771e-06
3955.32	-1.05267e-06
3963.88	2.34516e-07
3972.43	-6.44177e-07
