Infrared Spectrum: Sulfur hexafluoride
Formula: S F6
CAS: 2551-62-4
State: gas
Melting point: -50.5 C
Boiling point: -63.9 C (sublimes)
Class: IUPAC A
Instrument: IFS66V (Bruker)
Instrument parameters: KBr Beam Splitter; MCT Detector; Multipass cell
Sampling: 1 L/min Flow
Resolution: 0.2410
Temperature: 23 C
Pressure: 101.3 Pa
Origin: NIST, Analytical Chemistry Division, 301-975-3108
cm-1	(micromol/mol)-1m-1 (base 10)
575.049	7.66784e-06
583.607	4.46285e-06
592.164	3.92011e-05
600.722	0.00027871
609.28	0.000202191
617.837	0.000112632
626.395	0.000457937
634.953	0.000123922
643.51	7.75102e-06
652.068	-4.29381e-06
660.625	-2.48486e-07
669.183	2.43916e-06
677.741	8.66586e-07
686.298	-4.73106e-06
694.856	3.51279e-06
703.414	1.49266e-06
711.971	-2.1944e-08
720.529	-1.594e-06
729.087	1.7387e-06
737.644	2.9703e-06
746.202	1.73457e-06
754.76	-6.79159e-07
763.317	-1.50308e-06
771.875	-3.40185e-06
780.432	-9.88006e-07
788.99	-6.89578e-07
797.548	-2.35273e-06
806.105	1.32671e-06
814.663	9.55351e-07
823.221	2.40744e-06
831.778	2.98835e-07
840.336	6.94759e-07
848.894	4.58689e-06
857.451	1.00721e-05
866.009	1.48278e-05
874.567	8.90014e-06
883.124	2.56568e-05
891.682	1.23652e-05
900.239	1.75785e-06
908.797	3.76215e-06
917.355	2.89066e-05
925.912	0.000714824
934.47	0.00080442
943.028	0.0150193
951.585	0.00484692
960.143	3.90195e-05
968.701	2.43497e-05
977.258	5.62084e-05
985.816	0.000138074
994.374	0.000104148
1002.93	1.03635e-05
1011.49	3.86553e-07
1020.05	1.93364e-07
1028.6	1.55797e-06
1037.16	1.5011e-06
1045.72	-4.80441e-07
1054.28	7.06924e-07
1062.83	-1.29516e-06
1071.39	-7.15364e-08
1079.95	4.04539e-07
1088.51	-2.10546e-06
1097.07	6.69381e-09
1105.62	-1.92898e-06
1114.18	2.37252e-07
1122.74	4.43479e-07
1131.3	7.37948e-07
1139.85	6.64375e-07
1148.41	-8.78111e-07
1156.97	-6.25085e-07
1165.53	-2.06635e-08
1174.08	-3.77589e-07
1182.64	-2.9866e-07
1191.2	1.3227e-06
1199.76	6.38007e-07
1208.31	-9.81603e-07
1216.87	1.04581e-06
1225.43	9.26248e-07
1233.99	-1.98078e-07
1242.55	6.40964e-06
1251.1	1.09333e-05
1259.66	8.81359e-06
1268.22	4.78671e-06
1276.78	1.83829e-06
1285.33	1.70576e-06
1293.89	-7.45573e-07
1302.45	-3.84166e-09
1311.01	6.53083e-08
1319.56	-1.18998e-06
1328.12	4.05586e-07
1336.68	1.29511e-07
1345.24	-4.35097e-07
1353.79	8.32401e-06
1362.35	-1.73498e-06
1370.91	2.09318e-06
1379.47	1.6568e-06
1388.03	1.09186e-05
1396.58	1.12951e-06
1405.14	-1.36618e-06
1413.7	-3.3795e-07
1422.26	-1.29045e-06
1430.81	-5.91849e-07
1439.37	9.76888e-07
1447.93	-5.1916e-06
1456.49	-1.09794e-05
1465.04	-5.85388e-06
1473.6	-1.11206e-05
1482.16	1.39697e-07
1490.72	-5.14003e-06
1499.27	3.58788e-07
1507.83	-1.90069e-06
1516.39	-9.7811e-07
1524.95	-1.62921e-06
1533.51	-2.14062e-06
1542.06	-1.50845e-05
1550.62	2.21222e-06
1559.18	6.73077e-06
1567.74	2.18142e-05
1576.29	1.3735e-05
1584.85	4.8941e-05
1593.41	3.44109e-05
1601.97	1.58771e-05
1610.52	5.62035e-06
1619.08	1.38143e-06
1627.64	-1.38928e-06
1636.2	8.97843e-07
1644.75	-8.75433e-07
1653.31	-3.11503e-05
1661.87	-1.13731e-06
1670.43	-1.27334e-06
1678.99	-8.19031e-07
1687.54	-6.49299e-07
1696.1	-1.57432e-05
1704.66	1.72892e-06
1713.22	4.20042e-05
1721.77	4.88274e-05
1730.33	-1.60704e-06
1738.89	-2.40005e-06
1747.45	-2.88532e-07
1756	-1.12485e-06
1764.56	1.33818e-07
1773.12	-1.58684e-06
1781.68	-2.68858e-07
1790.23	-1.90162e-07
1798.79	8.40509e-08
1807.35	-2.81256e-07
1815.91	-1.44761e-07
1824.47	5.35504e-08
1833.02	-6.58961e-07
1841.58	-7.95457e-07
1850.14	-2.17758e-06
1858.7	-2.17153e-06
1867.25	-2.10826e-06
1875.81	-3.84393e-06
1884.37	-7.75445e-06
1892.93	-1.03364e-05
1901.48	-4.51733e-06
1910.04	-1.95942e-06
1918.6	-1.27898e-06
1927.16	-1.44836e-06
1935.71	-1.59493e-06
1944.27	-1.01746e-07
1952.83	-1.18451e-07
1961.39	-1.23137e-06
1969.95	-4.96331e-07
1978.5	-8.74851e-07
1987.06	-3.95342e-07
1995.62	1.32887e-07
2004.18	-4.34224e-08
2012.73	-6.19672e-07
2021.29	-9.7357e-07
2029.85	-1.44057e-06
2038.41	-5.15132e-07
2046.96	5.1164e-07
2055.52	-1.10454e-06
2064.08	-8.56691e-07
2072.64	-1.66239e-06
2081.19	-6.75434e-07
2089.75	-6.66063e-07
2098.31	-1.26321e-06
2106.87	-7.25841e-07
2115.43	1.93049e-06
2123.98	1.30279e-06
2132.54	4.40627e-08
2141.1	-6.89928e-07
2149.66	-2.12805e-07
2158.21	4.18415e-06
2166.77	-2.10302e-07
2175.33	-6.88763e-07
2183.89	-1.805e-07
2192.44	3.63328e-07
2201	-3.34341e-07
2209.56	1.2422e-06
2218.12	8.74909e-07
2226.67	1.12875e-06
2235.23	-6.76773e-07
2243.79	-6.05935e-08
2252.35	-8.54188e-07
2260.9	-5.97029e-07
2269.46	-7.99066e-07
2278.02	-6.36203e-07
2286.58	-3.8696e-07
2295.14	-5.89928e-07
2303.69	-4.20371e-07
2312.25	-9.76073e-07
2320.81	-3.30342e-06
2329.37	-1.5323e-06
2337.92	-5.98537e-06
2346.48	-2.03835e-06
2355.04	-2.61617e-06
2363.6	-4.00918e-06
2372.15	-2.1912e-06
2380.71	-2.47258e-06
2389.27	-1.2117e-06
2397.83	-9.01685e-07
2406.38	-7.19846e-07
2414.94	-6.06924e-07
2423.5	-1.44935e-06
2432.06	-1.13603e-06
2440.62	-1.31274e-06
2449.17	-9.01917e-07
2457.73	-1.87124e-06
2466.29	-7.01394e-07
2474.85	-1.2075e-06
2483.4	-4.84166e-07
2491.96	-4.30557e-07
2500.52	-1.91676e-07
2509.08	-7.16528e-07
2517.63	-1.71047e-06
2526.19	-8.31836e-07
2534.75	-1.12211e-06
2543.31	-9.04013e-07
2551.86	-7.8952e-07
2560.42	-7.03141e-07
2568.98	-1.20518e-06
2577.54	-1.57753e-06
2586.1	-1.61041e-06
2594.65	-1.56385e-06
2603.21	-1.34115e-06
2611.77	-1.55797e-06
2620.33	-1.51478e-06
2628.88	-1.09936e-06
2637.44	-1.76885e-06
2646	-8.07215e-07
2654.56	-9.56632e-07
2663.11	-1.41996e-06
2671.67	-1.77601e-06
2680.23	-2.43195e-06
2688.79	-1.3121e-06
2697.34	-1.78661e-06
2705.9	-1.377e-06
2714.46	-1.68096e-06
2723.02	-1.49435e-06
2731.58	-1.2511e-06
2740.13	-1.6433e-06
2748.69	-1.72182e-06
2757.25	-1.16507e-06
2765.81	-1.05541e-06
2774.36	-1.38044e-06
2782.92	-2.04569e-06
2791.48	-1.54988e-06
2800.04	-2.69376e-06
2808.59	-1.14976e-06
2817.15	-1.2486e-06
2825.71	-1.80058e-06
2834.27	-5.70545e-07
2842.82	-1.64563e-06
2851.38	-1.69254e-06
2859.94	-2.16082e-06
2868.5	-8.28868e-07
2877.06	-9.08029e-07
2885.61	-2.1483e-06
2894.17	-2.44359e-06
2902.73	-7.56866e-07
2911.29	-2.87543e-07
2919.84	-8.53431e-07
2928.4	-1.17427e-06
2936.96	-5.72058e-07
2945.52	4.32303e-07
2954.07	-3.14376e-07
2962.63	1.35308e-06
2971.19	-1.41967e-07
2979.75	5.35504e-09
2988.3	-7.56284e-07
2996.86	-2.08922e-06
3005.42	-7.17576e-07
3013.98	1.01594e-06
3022.54	-1.71187e-06
3031.09	-4.28636e-07
3039.65	1.9965e-07
3048.21	1.4284e-07
3056.77	-7.62279e-07
3065.32	4.13735e-07
3073.88	-6.01395e-07
3082.44	-4.31314e-08
3091	-6.5186e-07
3099.55	-9.47319e-07
3108.11	-6.7654e-07
3116.67	-6.298e-08
3125.23	-1.37793e-06
3133.78	-1.88835e-06
3142.34	-3.53549e-07
3150.9	-1.12299e-06
3159.46	-8.38239e-07
3168.02	-5.41733e-07
3176.57	6.79858e-07
3185.13	-4.85446e-07
3193.69	-9.25084e-07
3202.25	-1.27194e-06
3210.8	-1.96274e-07
3219.36	-1.19121e-06
3227.92	7.78984e-07
3236.48	3.66471e-07
3245.03	-1.86565e-06
3253.59	-9.01626e-08
3262.15	-1.79749e-06
3270.71	-1.25727e-07
3279.26	-1.2181e-06
3287.82	3.68858e-07
3296.38	1.14057e-06
3304.94	8.87308e-07
3313.5	1.07153e-06
3322.05	1.84982e-07
3330.61	-1.01245e-06
3339.17	1.17153e-06
3347.73	-2.30965e-07
3356.28	-2.11652e-06
3364.84	-1.04062e-06
3373.4	-3.60301e-08
3381.96	-8.13443e-07
3390.51	-1.3997e-06
3399.07	-1.34027e-06
3407.63	2.45343e-07
3416.19	-7.40277e-07
3424.74	-4.91383e-07
3433.3	9.07331e-07
3441.86	-1.35122e-06
3450.42	5.00755e-07
3458.98	1.00139e-06
3467.53	1.69964e-08
3476.09	3.37077e-07
3484.65	-1.60279e-06
3493.21	-1.61181e-06
3501.76	-1.01228e-06
3510.32	-1.17305e-06
3518.88	-8.37541e-07
3527.44	-2.00343e-06
3535.99	-1.22945e-06
3544.55	-1.47421e-06
3553.11	-2.02089e-06
3561.67	-6.5349e-07
3570.22	-1.43556e-06
3578.78	-1.35093e-06
3587.34	-5.74096e-07
3595.9	-1.47206e-07
3604.46	3.66006e-07
3613.01	-8.72407e-07
3621.57	-1.09121e-06
3630.13	-1.95261e-06
3638.69	-1.15279e-06
3647.24	-3.00226e-06
3655.8	-1.29051e-06
3664.36	-4.15831e-07
3672.92	-2.04295e-06
3681.47	-1.01589e-06
3690.03	-1.97258e-06
3698.59	-2.17991e-06
3707.15	-1.55587e-06
3715.7	4.9895e-07
3724.26	-1.84173e-06
3732.82	-1.19679e-06
3741.38	-2.24027e-06
3749.94	-1.73247e-06
3758.49	8.08961e-07
3767.05	1.98078e-07
3775.61	-1.82654e-07
3784.17	-4.53141e-07
3792.72	-1.49592e-07
3801.28	-1.67237e-05
3809.84	-6.7427e-07
3818.4	-4.74096e-07
3826.95	-9.57214e-07
3835.51	-6.65131e-07
3844.07	-2.20215e-06
3852.63	-1.35616e-06
3861.18	-7.11872e-07
3869.74	-4.6058e-06
3878.3	-2.54755e-06
3886.86	-1.97822e-06
3895.42	-3.81233e-06
3903.97	-5.50958e-06
3912.53	-1.24936e-06
3921.09	-7.80207e-07
3929.65	-2.11833e-06
3938.2	-1.70261e-06
3946.76	-2.47275e-06
3955.32	-1.03364e-06
3963.88	2.73107e-07
3972.43	-6.29742e-07
