Infrared Spectrum: Sulfur hexafluoride
Formula: S F6
CAS: 2551-62-4
State: gas
Melting point: -50.5 C
Boiling point: -63.9 C (sublimes)
Class: IUPAC A
Instrument: IFS66V (Bruker)
Instrument parameters: KBr Beam Splitter; MCT Detector; Multipass cell
Sampling: 1 L/min Flow
Resolution: 0.9640
Temperature: 23 C
Pressure: 101.3 Pa
Origin: NIST, Analytical Chemistry Division, 301-975-3108
cm-1	(micromol/mol)-1m-1 (base 10)
575.17	-5.37678e-07
583.848	8.67939e-07
592.526	5.24696e-05
601.205	0.000292728
609.883	0.000189963
618.561	0.000171708
627.239	0.000430721
635.917	9.68624e-05
644.595	4.16644e-06
653.274	-6.40673e-07
661.952	1.34098e-06
670.63	-4.97661e-08
679.308	4.03659e-08
687.986	1.98849e-06
696.664	1.32267e-06
705.343	1.72427e-06
714.021	4.17628e-07
722.699	-9.82692e-07
731.377	7.87556e-07
740.055	1.71513e-06
748.734	1.30882e-06
757.412	2.89575e-08
766.09	8.13749e-07
774.768	7.41574e-07
783.446	1.1973e-07
792.124	5.53219e-07
800.803	-4.91957e-07
809.481	6.56273e-07
818.159	-6.88228e-07
826.837	3.78514e-07
835.515	1.84239e-06
844.193	2.15092e-06
852.872	1.02929e-05
861.55	1.1189e-05
870.228	6.6204e-05
878.906	2.37226e-05
887.584	2.49469e-05
896.262	9.11666e-06
904.941	9.48118e-06
913.619	2.2697e-05
922.297	0.000269841
930.975	0.00103665
939.653	0.00506392
948.332	0.0202611
957.01	0.000183206
965.688	5.35683e-05
974.366	5.23892e-05
983.044	0.000144538
991.722	0.00012635
1000.4	2.35795e-05
1009.08	4.72697e-06
1017.76	2.47015e-06
1026.44	1.90275e-06
1035.11	2.04594e-06
1043.79	1.78384e-06
1052.47	1.48638e-06
1061.15	1.0842e-06
1069.83	-5.73737e-07
1078.5	3.12275e-07
1087.18	1.01313e-06
1095.86	2.07621e-07
1104.54	-2.6801e-07
1113.22	2.3329e-07
1121.9	6.35144e-07
1130.57	1.20545e-06
1139.25	4.10527e-07
1147.93	2.7447e-07
1156.61	-3.83403e-07
1165.29	-1.03519e-07
1173.96	1.07157e-07
1182.64	3.12828e-07
1191.32	5.72223e-07
1200	5.1489e-07
1208.68	4.71381e-07
1217.35	5.99434e-07
1226.03	4.54414e-07
1234.71	1.28996e-06
1243.39	5.2597e-06
1252.07	1.20769e-05
1260.75	9.34329e-06
1269.42	4.04671e-06
1278.1	8.7894e-07
1286.78	1.13228e-06
1295.46	-3.51593e-07
1304.14	-1.91963e-07
1312.81	9.28386e-09
1321.49	-4.48215e-07
1330.17	-1.58117e-07
1338.85	-1.31866e-07
1347.53	-1.11849e-06
1356.21	9.59471e-06
1364.88	-2.64372e-07
1373.56	1.72645e-06
1382.24	1.75567e-06
1390.92	-1.25783e-07
1399.6	-6.63839e-08
1408.27	4.74612e-07
1416.95	-1.18563e-06
1425.63	-6.86452e-07
1434.31	-4.27232e-08
1442.99	-1.42605e-08
1451.67	-3.91901e-07
1460.34	1.44875e-07
1469.02	6.14015e-07
1477.7	2.58085e-07
1486.38	-3.96557e-07
1495.06	-4.48885e-07
1503.73	-1.48687e-07
1512.41	-2.19608e-06
1521.09	-8.59135e-06
1529.77	-2.40769e-07
1538.45	-4.37322e-06
1547.13	1.24133e-06
1555.8	4.65153e-06
1564.48	1.54115e-05
1573.16	3.11323e-05
1581.84	4.09422e-05
1590.52	3.3106e-05
1599.19	2.31964e-05
1607.87	7.74035e-06
1616.55	-8.22151e-06
1625.23	1.00824e-06
1633.91	1.48091e-06
1642.59	1.01505e-06
1651.26	-9.92471e-07
1659.94	3.22199e-07
1668.62	-1.78145e-06
1677.3	-8.66367e-07
1685.98	-1.28871e-06
1694.65	-5.51676e-07
1703.33	2.58967e-06
1712.01	3.08469e-05
1720.69	3.52937e-05
1729.37	-1.27253e-06
1738.05	-1.08077e-06
1746.72	-7.2548e-07
1755.4	-4.47924e-07
1764.08	-1.6935e-07
1772.76	-6.9491e-06
1781.44	-2.61578e-07
1790.11	4.10061e-08
1798.79	-1.22e-07
1807.47	-4.41813e-07
1816.15	1.24153e-07
1824.83	-1.06435e-06
1833.51	-2.61229e-07
1842.18	-4.65502e-07
1850.86	-1.10827e-06
1859.54	-2.23779e-06
1868.22	-2.03212e-06
1876.9	-4.21828e-06
1885.57	-7.80094e-06
1894.25	-8.62747e-06
1902.93	-4.85816e-06
1911.61	-1.25713e-06
1920.29	-1.0434e-06
1928.97	-1.13662e-06
1937.64	-9.85864e-07
1946.32	-1.02387e-06
1955	-5.2333e-07
1963.68	-9.48059e-07
1972.36	-8.16863e-07
1981.03	-7.09124e-07
1989.71	-4.72575e-07
1998.39	-4.84943e-07
2007.07	-8.27136e-07
2015.75	-2.45949e-07
2024.43	-3.79649e-07
2033.1	-5.33545e-07
2041.78	-6.75772e-07
2050.46	-2.72753e-07
2059.14	-8.58189e-07
2067.82	-4.39688e-07
2076.49	-9.66016e-07
2085.17	-9.0036e-07
2093.85	-3.38934e-07
2102.53	-4.72109e-07
2111.21	1.1824e-06
2119.89	1.6396e-06
2128.56	-4.84274e-08
2137.24	-1.28461e-07
2145.92	-3.65534e-07
2154.6	1.26837e-06
2163.28	-5.66926e-08
2171.95	-3.17485e-07
2180.63	-1.94001e-07
2189.31	-5.60902e-07
2197.99	-1.78401e-08
2206.67	4.779e-07
2215.35	5.26444e-07
2224.02	3.68793e-07
2232.7	-1.42896e-07
2241.38	-8.89446e-07
2250.06	-1.6321e-07
2258.74	-5.89307e-07
2267.41	-9.22973e-07
2276.09	-8.51932e-07
2284.77	-9.05249e-07
2293.45	-8.10489e-07
2302.13	-1.73826e-06
2310.81	-2.41098e-06
2319.48	-4.6029e-06
2328.16	-5.79802e-06
2336.84	-3.45429e-06
2345.52	-4.44831e-06
2354.2	-7.61727e-06
2362.87	-1.30473e-05
2371.55	-6.17583e-06
2380.23	-1.49979e-06
2388.91	-7.24315e-07
2397.59	-7.20881e-07
2406.26	-6.08718e-07
2414.94	-4.3119e-07
2423.62	-1.02524e-06
2432.3	-1.05891e-06
2440.98	-1.34575e-06
2449.66	-1.17369e-06
2458.33	-1.07204e-06
2467.01	-8.54057e-07
2475.69	-8.84906e-07
2484.37	-9.95032e-07
2493.05	-5.80663e-07
2501.72	-5.03074e-07
2510.4	-6.87529e-07
2519.08	-5.63929e-07
2527.76	-3.2316e-07
2536.44	-1.20355e-06
2545.12	-5.02609e-07
2553.79	-9.50795e-07
2562.47	-7.12209e-07
2571.15	-1.15556e-06
2579.83	-9.67384e-07
2588.51	-1.66789e-06
2597.18	-1.33056e-06
2605.86	-1.54741e-06
2614.54	-1.34872e-06
2623.22	-1.49677e-06
2631.9	-1.76027e-06
2640.58	-1.1739e-06
2649.25	-1.08403e-06
2657.93	-1.61388e-06
2666.61	-1.40629e-06
2675.29	-1.57255e-06
2683.97	-1.13379e-06
2692.64	-1.36912e-06
2701.32	-1.12969e-06
2710	-1.60136e-06
2718.68	-1.6222e-06
2727.36	-1.50119e-06
2736.04	-1.56647e-06
2744.71	-1.52474e-06
2753.39	-1.58693e-06
2762.07	-1.36362e-06
2770.75	-1.01927e-06
2779.43	-1.6653e-06
2788.1	-9.52367e-07
2796.78	-1.22509e-06
2805.46	-1.66018e-06
2814.14	-1.09189e-06
2822.82	-1.68291e-06
2831.5	-8.70733e-07
2840.17	-1.73148e-06
2848.85	-8.35634e-07
2857.53	-2.18991e-06
2866.21	-1.13362e-06
2874.89	-5.7266e-07
2883.56	-1.23205e-06
2892.24	-6.53595e-07
2900.92	-7.31533e-07
2909.6	-1.50297e-06
2918.28	-1.47773e-06
2926.96	-7.54379e-07
2935.63	-1.1292e-06
2944.31	-1.19279e-06
2952.99	-6.89508e-07
2961.67	-2.36607e-06
2970.35	-1.37349e-06
2979.02	-2.09774e-07
2987.7	-9.63047e-07
2996.38	-1.06101e-06
3005.06	-6.62122e-07
3013.74	-3.42513e-07
3022.42	-7.2254e-07
3031.09	-3.79008e-07
3039.77	9.29259e-08
3048.45	1.0611e-07
3057.13	-5.80023e-07
3065.81	-1.17564e-06
3074.48	-7.40613e-07
3083.16	-9.50853e-07
3091.84	-8.98089e-07
3100.52	-8.71577e-07
3109.2	-1.05874e-06
3117.88	-6.36424e-07
3126.55	-1.26755e-06
3135.23	-1.10952e-06
3143.91	6.96435e-08
3152.59	-3.37653e-07
3161.27	-4.87679e-07
3169.94	-2.58085e-07
3178.62	3.71209e-07
3187.3	-1.42808e-07
3195.98	-3.65068e-07
3204.66	-3.14109e-07
3213.34	-1.23603e-06
3222.01	-2.16797e-06
3230.69	-1.06596e-06
3239.37	2.27789e-07
3248.05	-1.8437e-06
3256.73	4.29182e-07
3265.4	-1.62363e-06
3274.08	-1.86347e-07
3282.76	4.1044e-07
3291.44	6.64421e-08
3300.12	-2.6216e-07
3308.8	3.25517e-07
3317.47	2.90215e-07
3326.15	1.32323e-06
3334.83	3.25633e-07
3343.51	4.95624e-07
3352.19	4.07442e-09
3360.86	-2.53749e-07
3369.54	-1.55177e-07
3378.22	-7.02517e-07
3386.9	-1.56199e-06
3395.58	-1.21054e-06
3404.26	-1.2163e-06
3412.93	-1.03583e-06
3421.61	-1.20181e-06
3430.29	-7.26353e-07
3438.97	-9.64473e-08
3447.65	-8.55424e-07
3456.32	1.28926e-07
3465	-5.32847e-07
3473.68	-1.14838e-06
3482.36	6.34242e-07
3491.04	-4.34333e-07
3499.71	-4.12972e-08
3508.39	4.02815e-07
3517.07	-1.12946e-06
3525.75	-1.61216e-06
3534.43	-3.65883e-07
3543.11	-9.69799e-07
3551.78	-1.50841e-06
3560.46	-4.62039e-07
3569.14	-6.62617e-07
3577.82	-3.67251e-07
3586.5	-2.5448e-06
3595.17	-9.47652e-07
3603.85	2.65914e-07
3612.53	-2.31721e-06
3621.21	-3.72344e-07
3629.89	-5.26182e-06
3638.57	-6.98938e-07
3647.24	-3.22092e-06
3655.92	-3.30965e-06
3664.6	-4.02727e-07
3673.28	-1.20501e-06
3681.96	-8.47363e-07
3690.63	-2.41569e-06
3699.31	-8.06881e-07
3707.99	-9.86825e-07
3716.67	-1.28452e-06
3725.35	-1.60526e-06
3734.03	-1.336e-06
3742.7	-2.09512e-06
3751.38	-2.36471e-06
3760.06	-2.32713e-06
3768.74	-5.94632e-07
3777.42	-3.71005e-07
3786.09	-3.48887e-07
3794.77	-1.02879e-06
3803.45	-1.10629e-06
3812.13	-6.88286e-08
3820.81	-5.01066e-06
3829.49	-1.18225e-06
3838.16	-9.57652e-06
3846.84	-1.19846e-06
3855.52	-3.12668e-06
3864.2	-2.69695e-06
3872.88	-2.00243e-06
3881.55	-3.01926e-06
3890.23	-2.75084e-06
3898.91	-3.86689e-06
3907.59	-2.24169e-06
3916.27	-2.92249e-06
3924.95	-2.77637e-06
3933.62	-2.67049e-06
3942.3	-2.62233e-06
3950.98	-1.92598e-06
3959.66	-1.3665e-06
3968.34	-9.06588e-07
