Infrared Spectrum: Sulfur hexafluoride
Formula: S F6
CAS: 2551-62-4
State: gas
Melting point: -50.5 C
Boiling point: -63.9 C (sublimes)
Class: IUPAC A
Instrument: IFS66V (Bruker)
Instrument parameters: KBr Beam Splitter; MCT Detector; Multipass cell
Sampling: 1 L/min Flow
Resolution: 0.4820
Temperature: 23 C
Pressure: 101.3 Pa
Origin: NIST, Analytical Chemistry Division, 301-975-3108
cm-1	(micromol/mol)-1m-1 (base 10)
575.17	-1.28329e-06
583.848	-5.49218e-06
592.526	5.36954e-05
601.205	0.000297293
609.883	0.000178814
618.561	0.000158511
627.239	0.000438258
635.917	9.28625e-05
644.595	1.80942e-06
653.274	-2.17537e-06
661.952	1.11257e-06
670.63	-2.05244e-06
679.308	-2.54947e-08
687.986	2.27455e-06
696.664	1.16041e-06
705.343	1.96553e-06
714.021	-3.42432e-07
722.699	-7.0966e-07
731.377	1.58439e-06
740.055	2.60913e-06
748.733	9.88413e-07
757.412	-1.77357e-07
766.09	1.3614e-06
774.768	4.41093e-07
783.446	4.73223e-08
792.124	6.46389e-07
800.803	-2.01489e-06
809.481	-5.00406e-07
818.159	-1.97101e-06
826.837	-6.01802e-07
835.515	9.73105e-07
844.193	8.20369e-07
852.872	8.94741e-06
861.55	9.47051e-06
870.228	8.16875e-05
878.906	2.24706e-05
887.584	2.15619e-05
896.262	4.74847e-06
904.941	2.96489e-06
913.619	1.03338e-05
922.297	0.000243652
930.975	0.0008376
939.653	0.00486184
948.332	0.0170879
957.01	7.10215e-05
965.688	2.32531e-05
974.366	3.73659e-05
983.044	0.000138843
991.722	0.000115433
1000.4	1.82864e-05
1009.08	1.48486e-06
1017.76	-6.38531e-08
1026.44	-8.94642e-07
1035.11	5.95632e-07
1043.79	5.02617e-07
1052.47	4.82943e-07
1061.15	2.10069e-07
1069.83	-1.49412e-06
1078.5	-4.97786e-07
1087.18	4.34224e-07
1095.86	-2.55529e-08
1104.54	-1.0213e-06
1113.22	3.05587e-08
1121.9	4.0093e-07
1130.57	9.65538e-07
1139.25	-1.0972e-07
1147.93	-1.47089e-07
1156.61	-7.8626e-07
1165.29	-3.86669e-07
1173.96	-6.55469e-07
1182.64	-4.86261e-07
1191.32	6.02559e-07
1200	5.8725e-07
1208.68	6.70836e-07
1217.35	6.65888e-08
1226.03	4.05237e-07
1234.71	1.227e-06
1243.39	4.59341e-06
1252.07	1.2209e-05
1260.75	8.97401e-06
1269.42	4.33578e-06
1278.1	6.11581e-07
1286.78	1.53329e-06
1295.46	-4.47961e-07
1304.14	-2.98253e-07
1312.81	9.55177e-08
1321.49	-1.09185e-06
1330.17	-1.27881e-07
1338.85	-2.00814e-07
1347.53	-1.05296e-06
1356.21	1.03962e-05
1364.88	-2.02793e-07
1373.56	1.10296e-06
1382.24	1.77392e-06
1390.92	-4.64608e-07
1399.6	2.30209e-07
1408.27	9.61289e-07
1416.95	-1.13218e-06
1425.63	-9.98192e-07
1434.31	1.76484e-07
1442.99	-2.45284e-07
1451.67	-5.60533e-07
1460.34	4.89404e-07
1469.02	1.13218e-06
1477.7	3.95633e-07
1486.38	-5.14608e-07
1495.06	-6.298e-08
1503.73	5.36669e-08
1512.41	-3.81361e-06
1521.09	-1.23193e-05
1529.77	-2.97671e-07
1538.45	-2.8692e-06
1547.13	1.04173e-06
1555.8	5.09905e-06
1564.48	1.56575e-05
1573.16	3.1124e-05
1581.84	4.1352e-05
1590.52	3.28189e-05
1599.19	2.32245e-05
1607.87	7.69258e-06
1616.55	-1.32493e-05
1625.23	1.19016e-06
1633.91	1.61041e-06
1642.59	9.5995e-07
1651.26	-5.73921e-07
1659.94	5.08147e-07
1668.62	-1.2596e-06
1677.3	-7.53781e-07
1685.98	-1.07799e-06
1694.65	6.88007e-08
1703.33	2.466e-06
1712.01	3.10594e-05
1720.69	3.47382e-05
1729.37	-1.43614e-06
1738.05	-7.71476e-07
1746.72	-4.2008e-07
1755.4	-5.76308e-07
1764.08	-2.42316e-07
1772.76	-1.20919e-05
1781.44	-1.8795e-07
1790.11	7.69497e-08
1798.79	4.05703e-08
1807.47	-5.47262e-07
1816.15	2.88241e-07
1824.83	-6.90684e-07
1833.51	-3.5419e-07
1842.18	-5.32478e-07
1850.86	-1.55698e-06
1859.54	-2.44877e-06
1868.22	-2.19213e-06
1876.9	-4.33986e-06
1885.57	-7.85934e-06
1894.25	-9.0165e-06
1902.93	-5.05807e-06
1911.61	-1.24313e-06
1920.29	-9.97901e-07
1928.97	-1.17858e-06
1937.64	-1.23137e-06
1946.32	-8.83408e-07
1955	-5.55295e-07
1963.68	-1.23859e-06
1972.36	-7.19089e-07
1981.03	-7.61988e-07
1989.71	-6.76831e-07
1998.39	-8.31021e-07
2007.07	-8.94409e-07
2015.75	-1.31431e-07
2024.43	-5.20487e-07
2033.1	-7.65131e-07
2041.78	-5.79916e-07
2050.46	-2.7171e-07
2059.14	-8.89112e-07
2067.82	-3.7689e-07
2076.49	-8.26889e-07
2085.17	-1.07241e-06
2093.85	-3.36611e-07
2102.53	-9.31254e-07
2111.21	8.03664e-07
2119.89	2.44923e-06
2128.56	-2.45634e-07
2137.24	-1.21769e-07
2145.92	-3.17985e-07
2154.6	2.44918e-06
2163.28	-1.58323e-07
2171.95	-5.63735e-07
2180.63	-2.90337e-07
2189.31	-8.33582e-07
2197.99	-2.12805e-07
2206.67	4.51104e-07
2215.35	6.65888e-07
2224.02	5.24561e-07
2232.7	-2.11524e-07
2241.38	-8.19031e-07
2250.06	-1.10186e-07
2258.74	-4.98834e-07
2267.41	-9.88879e-07
2276.09	-8.71126e-07
2284.77	-9.03431e-07
2293.45	-6.94992e-07
2302.13	-1.62363e-06
2310.8	-2.32554e-06
2319.48	-4.12822e-06
2328.16	-3.40785e-06
2336.84	-2.23777e-06
2345.52	-3.33194e-06
2354.2	-8.6144e-06
2362.87	-2.00137e-05
2371.55	-8.29974e-06
2380.23	-1.23661e-06
2388.91	-6.2718e-07
2397.59	-5.80731e-07
2406.26	-7.35795e-07
2414.94	-3.29277e-07
2423.62	-1.08899e-06
2432.3	-1.24505e-06
2440.98	-1.22124e-06
2449.66	-1.3628e-06
2458.33	-9.27354e-07
2467.01	-2.77124e-07
2475.69	-9.06865e-07
2484.37	-1.23277e-06
2493.05	-5.14899e-07
2501.72	-3.62862e-07
2510.4	-4.07449e-07
2519.08	-3.89987e-07
2527.76	-2.04598e-07
2536.44	-1.17601e-06
2545.12	-3.66064e-07
2553.79	-9.22057e-07
2562.47	-7.24095e-07
2571.15	-1.03579e-06
2579.83	-7.62686e-07
2588.51	-2.00348e-06
2597.18	-1.1589e-06
2605.86	-1.38277e-06
2614.54	-1.26332e-06
2623.22	-1.4032e-06
2631.9	-1.64807e-06
2640.58	-1.14272e-06
2649.25	-6.77879e-07
2657.93	-1.87456e-06
2666.61	-1.48486e-06
2675.29	-1.96373e-06
2683.97	-8.8527e-07
2692.64	-1.34423e-06
2701.32	-1.21175e-06
2710	-1.56891e-06
2718.68	-1.82881e-06
2727.36	-1.39185e-06
2736.04	-1.36839e-06
2744.71	-1.73934e-06
2753.39	-1.81891e-06
2762.07	-1.30954e-06
2770.75	-8.43361e-07
2779.43	-1.47561e-06
2788.1	-7.80672e-07
2796.78	-1.30657e-06
2805.46	-1.81373e-06
2814.14	-1.33899e-06
2822.82	-1.90803e-06
2831.5	-5.67693e-07
2840.17	-1.64679e-06
2848.85	-1.02328e-06
2857.53	-2.49807e-06
2866.21	-1.00739e-06
2874.89	-4.00639e-07
2883.56	-1.40453e-06
2892.24	-1.266e-07
2900.92	-7.26598e-07
2909.6	-2.1199e-06
2918.28	-1.74831e-06
2926.96	-1.02497e-06
2935.63	-1.11152e-06
2944.31	-1.11589e-06
2952.99	-7.14549e-07
2961.67	-2.76821e-06
2970.35	-1.95174e-06
2979.02	-2.14493e-07
2987.7	-1.3305e-06
2996.38	-1.22497e-06
3005.06	-6.28868e-07
3013.74	-5.56226e-07
3022.42	-1.17922e-06
3031.09	-2.77298e-07
3039.77	1.73282e-07
3048.45	2.18975e-07
3057.13	-7.49008e-07
3065.81	-1.50541e-06
3074.48	-3.68974e-07
3083.16	-1.00454e-06
3091.84	-1.01257e-06
3100.52	-7.37308e-07
3109.2	-1.11868e-06
3117.88	-5.43886e-07
3126.55	-1.39761e-06
3135.23	-1.54598e-06
3143.91	1.92491e-07
3152.59	-4.05819e-07
3161.27	-6.51569e-07
3169.94	-1.05704e-07
3178.62	8.47436e-07
3187.3	-1.51338e-08
3195.98	-3.37601e-07
3204.66	-1.68917e-07
3213.34	-1.56734e-06
3222.01	-2.6632e-06
3230.69	-8.53373e-07
3239.37	6.10766e-07
3248.05	-1.53608e-06
3256.73	5.54829e-07
3265.4	-1.79574e-06
3274.08	-1.86262e-09
3282.76	9.18914e-07
3291.44	3.57275e-07
3300.12	-3.71361e-08
3308.8	2.53317e-07
3317.47	6.94992e-07
3326.15	1.2642e-06
3334.83	6.53606e-07
3343.51	4.64434e-07
3352.19	-8.45166e-08
3360.86	-1.06635e-07
3369.54	-1.1653e-07
3378.22	-6.75318e-07
3386.9	-1.71845e-06
3395.58	-1.48701e-06
3404.26	-1.5188e-06
3412.93	-1.20523e-06
3421.61	-1.21053e-06
3430.29	-4.78694e-07
3438.97	-9.86027e-08
3447.65	-1.0298e-06
3456.32	7.02558e-08
3465	-9.09601e-07
3473.68	-1.55087e-06
3482.36	9.84106e-07
3491.04	-6.02675e-07
3499.71	-3.88299e-07
3508.39	1.19819e-06
3517.07	-1.57677e-06
3525.75	-2.0997e-06
3534.43	-3.31256e-07
3543.11	-1.27316e-06
3551.78	-1.66996e-06
3560.46	-1.28987e-07
3569.14	2.15366e-08
3577.82	-4.43246e-07
3586.5	-3.93188e-06
3595.17	-1.549e-06
3603.85	4.28578e-07
3612.53	-3.89783e-06
3621.21	-2.12106e-07
3629.89	-5.02064e-06
3638.57	-7.19031e-07
3647.24	-3.7529e-06
3655.92	-2.68241e-06
3664.6	-4.88357e-07
3673.28	-9.51102e-07
3681.96	-9.50113e-07
3690.63	-2.20313e-06
3699.31	-4.94527e-07
3707.99	-5.37309e-07
3716.67	-1.28271e-06
3725.35	-1.22305e-06
3734.03	-6.89229e-07
3742.7	-1.944e-06
3751.38	-1.50122e-06
3760.06	-3.29894e-06
3768.74	-6.12803e-07
3777.42	-2.55703e-07
3786.09	-1.32712e-07
3794.77	-1.31676e-06
3803.45	-2.87077e-07
3812.13	3.993e-08
3820.81	-7.53402e-06
3829.49	-1.25809e-06
3838.16	-9.93215e-06
3846.84	-2.55994e-07
3855.52	-2.52485e-06
3864.2	-3.26052e-06
3872.88	-2.00267e-06
3881.55	-3.33771e-06
3890.23	-3.27216e-06
3898.91	-3.63532e-06
3907.59	-2.02613e-06
3916.27	-2.8511e-06
3924.95	-3.17106e-06
3933.62	-2.6841e-06
3942.3	-2.6781e-06
3950.98	-2.29079e-06
3959.66	-1.42141e-06
3968.34	-7.21359e-07
