Infrared Spectrum: Sulfur hexafluoride
Formula: S F6
CAS: 2551-62-4
State: gas
Melting point: -50.5 C
Boiling point: -63.9 C (sublimes)
Class: IUPAC A
Instrument: IFS66V (Bruker)
Instrument parameters: KBr Beam Splitter; MCT Detector; Multipass cell
Sampling: 1 L/min Flow
Resolution: 0.1250
Temperature: 23 C
Pressure: 101.3 Pa
Origin: NIST, Analytical Chemistry Division, 301-975-3108
cm-1	(micromol/mol)-1m-1 (base 10)
575.049	1.08855e-05
583.607	8.14793e-06
592.164	4.07492e-05
600.722	0.000277321
609.28	0.000205535
617.837	0.000119196
626.395	0.000445653
634.953	0.000130164
643.51	7.26127e-06
652.068	-3.07088e-06
660.625	-1.00099e-06
669.183	-3.40045e-07
677.741	-5.84864e-07
686.298	-5.06413e-06
694.856	3.32665e-06
703.414	2.7405e-06
711.971	-8.4307e-07
720.529	-8.36493e-07
729.087	2.43183e-06
737.644	1.36309e-06
746.202	2.49964e-06
754.76	8.48367e-07
763.317	-1.5582e-06
771.875	-2.98573e-06
780.432	-4.84049e-07
788.99	-1.56798e-06
797.548	-2.23893e-06
806.105	3.49009e-06
814.663	2.35802e-06
823.221	1.06239e-06
831.778	7.84456e-07
840.336	-4.69905e-07
848.894	5.59282e-06
857.451	1.05764e-05
866.009	1.47779e-05
874.567	1.07626e-05
883.124	2.64997e-05
891.682	1.15409e-05
900.239	2.92525e-06
908.797	5.40691e-06
917.355	3.12559e-05
925.912	0.000717522
934.47	0.000819063
943.028	0.0149829
951.585	0.00488983
960.143	4.70098e-05
968.701	2.66313e-05
977.258	5.77172e-05
985.816	0.000139083
994.374	0.000103881
1002.93	1.06467e-05
1011.49	1.91792e-07
1020.05	-8.30672e-07
1028.6	2.03771e-06
1037.16	1.81699e-06
1045.72	1.9121e-07
1054.28	2.09894e-07
1062.83	-1.93492e-06
1071.39	-2.06169e-07
1079.95	7.30614e-07
1088.51	-3.12566e-06
1097.07	-2.08905e-07
1105.62	-1.6908e-06
1114.18	-5.06983e-08
1122.74	-1.30442e-07
1131.3	1.18777e-06
1139.85	1.52037e-07
1148.41	-3.78811e-07
1156.97	-1.405e-06
1165.53	6.20312e-07
1174.08	-2.44935e-07
1182.64	2.31955e-07
1191.2	8.18565e-07
1199.76	5.53781e-07
1208.31	-1.47293e-06
1216.87	1.23894e-06
1225.43	1.32619e-06
1233.99	-7.18216e-07
1242.55	6.54794e-06
1251.1	1.12369e-05
1259.66	7.97628e-06
1268.22	5.00493e-06
1276.78	2.27164e-06
1285.33	1.50034e-06
1293.89	-1.16362e-06
1302.45	5.61407e-07
1311.01	-6.00114e-08
1319.56	-1.23294e-06
1328.12	1.07246e-06
1336.68	-1.67636e-08
1345.24	1.70488e-07
1353.79	7.61877e-06
1362.35	-1.18032e-06
1370.91	2.41035e-06
1379.47	1.71856e-06
1388.03	1.13668e-05
1396.58	8.09776e-07
1405.14	-1.15215e-06
1413.7	2.08963e-08
1422.26	-1.20983e-06
1430.81	-2.49708e-07
1439.37	8.0378e-07
1447.93	-5.91144e-06
1456.49	-1.30132e-05
1465.04	-4.85988e-06
1473.6	-9.97581e-06
1482.16	1.35913e-07
1490.72	-5.04643e-06
1499.27	4.75318e-07
1507.83	-2.35791e-06
1516.39	-7.87774e-07
1524.95	-1.78957e-06
1533.51	-2.12304e-06
1542.06	-1.40735e-05
1550.62	2.17915e-06
1559.18	6.48857e-06
1567.74	2.14083e-05
1576.29	1.60048e-05
1584.85	4.73275e-05
1593.41	3.44822e-05
1601.97	1.61127e-05
1610.52	5.35958e-06
1619.08	1.41513e-06
1627.64	-1.42369e-06
1636.2	4.40976e-07
1644.75	-7.41266e-07
1653.31	-3.32982e-05
1661.87	-1.17584e-06
1670.43	-1.68888e-06
1678.99	-4.67228e-07
1687.54	-4.20138e-07
1696.1	-1.2818e-05
1704.66	2.88765e-06
1713.22	4.14417e-05
1721.77	4.80453e-05
1730.33	-1.28649e-06
1738.89	-2.8128e-06
1747.45	-3.07217e-07
1756	-2.01641e-06
1764.56	3.82304e-07
1773.12	-1.7802e-06
1781.68	-3.16821e-07
1790.23	-5.11756e-07
1798.79	5.75085e-08
1807.35	-3.13852e-07
1815.91	-6.40859e-07
1824.47	2.13736e-07
1833.02	-9.51102e-07
1841.58	-7.3399e-07
1850.14	-2.28428e-06
1858.7	-1.97694e-06
1867.25	-2.56838e-06
1875.81	-4.1671e-06
1884.37	-7.43071e-06
1892.93	-1.01883e-05
1901.48	-4.6104e-06
1910.04	-2.29039e-06
1918.6	-1.05587e-06
1927.16	-1.12066e-06
1935.71	-1.38096e-06
1944.27	2.35622e-07
1952.83	1.727e-07
1961.39	-1.40395e-06
1969.95	-4.11815e-07
1978.5	-6.36785e-07
1987.06	-4.17461e-07
1995.62	-3.76017e-08
2004.18	-1.83468e-07
2012.73	-8.21941e-07
2021.29	-1.56955e-06
2029.85	-1.65803e-06
2038.41	-2.11466e-07
2046.96	7.0867e-07
2055.52	-1.42281e-06
2064.08	-1.22846e-06
2072.64	-1.60576e-06
2081.19	-1.05087e-06
2089.75	-1.07747e-06
2098.31	-1.31507e-06
2106.87	-6.99182e-07
2115.43	1.30908e-06
2123.98	1.06193e-06
2132.54	-5.6519e-08
2141.1	-1.02863e-06
2149.66	-8.2945e-08
2158.21	3.56093e-06
2166.77	6.14084e-08
2175.33	-8.41266e-07
2183.89	-3.21186e-07
2192.44	6.87425e-07
2201	-4.14899e-07
2209.56	1.0603e-06
2218.12	9.07564e-07
2226.67	7.39811e-07
2235.23	-9.76597e-07
2243.79	-2.20721e-07
2252.35	-7.41557e-07
2260.9	-2.688e-07
2269.46	-1.31391e-06
2278.02	-1.68509e-07
2286.58	9.5052e-08
2295.14	-6.02151e-07
2303.69	-1.14045e-06
2312.25	-1.05157e-06
2320.81	-3.31489e-06
2329.37	-8.62278e-07
2337.92	-5.92431e-06
2346.48	-2.09982e-06
2355.04	-2.38724e-06
2363.6	-5.00743e-06
2372.15	-2.59103e-06
2380.71	-2.87967e-06
2389.27	-1.08795e-06
2397.83	-8.63501e-07
2406.38	-7.02093e-07
2414.94	-4.88066e-07
2423.5	-1.66158e-06
2432.06	-1.22689e-06
2440.62	-1.91e-06
2449.17	-1.02392e-06
2457.73	-1.78172e-06
2466.29	-4.96156e-07
2474.85	-1.74737e-06
2483.4	4.70313e-08
2491.96	-6.74619e-08
2500.52	-9.69729e-08
2509.08	-5.61407e-07
2517.63	-1.466e-06
2526.19	-3.17985e-07
2534.75	-1.39871e-06
2543.31	-9.8655e-07
2551.86	-4.57914e-07
2560.42	-5.0157e-07
2568.98	-1.07532e-06
2577.54	-1.36577e-06
2586.1	-1.53573e-06
2594.65	-2.07566e-06
2603.21	-1.62264e-06
2611.77	-1.75942e-06
2620.33	-1.66565e-06
2628.88	-5.06284e-07
2637.44	-1.80238e-06
2646	-6.98891e-07
2654.56	-9.75375e-07
2663.11	-1.28172e-06
2671.67	-1.03265e-06
2680.23	-2.91151e-06
2688.79	-1.738e-06
2697.34	-1.96687e-06
2705.9	-1.64441e-06
2714.46	-1.67374e-06
2723.02	-9.49007e-07
2731.58	-1.73987e-06
2740.13	-2.33655e-06
2748.69	-1.60325e-06
2757.25	-3.58206e-07
2765.81	-1.55296e-06
2774.36	-9.25782e-07
2782.92	-1.75151e-06
2791.48	-1.32287e-06
2800.04	-2.60034e-06
2808.59	-1.65977e-06
2817.15	-1.00558e-06
2825.71	-2.2334e-06
2834.27	-7.19497e-07
2842.82	-9.76597e-07
2851.38	-2.04679e-06
2859.94	-2.26262e-06
2868.5	-1.75395e-06
2877.06	-5.47902e-07
2885.61	-2.49982e-06
2894.17	-3.3061e-06
2902.73	-7.97611e-07
2911.29	-4.61931e-07
2919.84	-5.24561e-07
2928.4	-9.23105e-07
2936.96	-9.37424e-07
2945.52	5.10708e-07
2954.07	6.34456e-08
2962.63	1.76519e-06
2971.19	-1.18626e-07
2979.75	-5.34282e-07
2988.3	-7.98018e-07
2996.86	-2.5146e-06
3005.42	-1.9121e-07
3013.98	8.73105e-07
3022.54	-2.08596e-06
3031.09	-1.31001e-06
3039.65	-5.52384e-08
3048.21	4.02327e-07
3056.77	-5.04422e-07
3065.32	1.59022e-07
3073.88	-4.84748e-07
3082.44	-2.90628e-07
3091	-1.46408e-06
3099.55	-1.25518e-06
3108.11	-3.06169e-08
3116.67	2.85796e-08
3125.23	-2.07438e-06
3133.78	-2.28532e-06
3142.34	-8.37541e-07
3150.9	-1.53474e-06
3159.46	-5.66179e-07
3168.02	-1.57729e-06
3176.57	2.50872e-07
3185.13	-1.00232e-07
3193.69	-3.08031e-07
3202.25	-9.21184e-07
3210.8	-1.52444e-07
3219.36	-6.87483e-07
3227.92	1.16973e-06
3236.48	7.27588e-07
3245.03	-2.09208e-06
3253.59	-7.30149e-07
3262.15	-2.06146e-06
3270.71	-2.5745e-07
3279.26	-9.23396e-07
3287.82	-7.0023e-08
3296.38	7.24852e-07
3304.94	5.642e-07
3313.5	1.32863e-06
3322.05	4.71069e-07
3330.61	-1.50971e-06
3339.17	9.66935e-07
3347.73	1.07182e-06
3356.28	-1.75302e-06
3364.84	-1.04342e-06
3373.4	1.11501e-06
3381.96	-9.57738e-07
3390.51	-1.67863e-06
3399.07	-2.21431e-06
3407.63	-2.82944e-07
3416.19	-1.37142e-06
3424.74	-5.7916e-08
3433.3	1.58934e-06
3441.86	-8.6612e-07
3450.42	1.19848e-06
3458.98	2.11181e-06
3467.53	-4.23631e-07
3476.09	-7.00347e-07
3484.65	-2.30913e-06
3493.21	-9.37307e-07
3501.76	-6.60242e-07
3510.32	-1.84167e-06
3518.88	-1.18108e-06
3527.44	-2.27747e-06
3535.99	-3.16937e-07
3544.55	-1.82805e-06
3553.11	-1.62008e-06
3561.67	-3.07915e-07
3570.22	-2.22683e-06
3578.78	-7.14025e-07
3587.34	3.68858e-07
3595.9	-3.32944e-07
3604.46	-3.35796e-07
3613.01	-6.56342e-07
3621.57	-6.83525e-07
3630.13	-2.01385e-06
3638.69	-1.04726e-06
3647.24	-2.22974e-06
3655.8	-1.21944e-06
3664.36	-7.50812e-07
3672.92	-2.74772e-06
3681.47	-1.51821e-06
3690.03	-1.73125e-06
3698.59	-2.32322e-06
3707.15	-2.38596e-06
3715.7	6.30324e-07
3724.26	-2.02362e-06
3732.82	-1.76099e-06
3741.38	-1.59062e-06
3749.94	-2.28963e-06
3758.49	1.2965e-06
3767.05	4.50464e-07
3775.61	1.15308e-07
3784.17	1.57974e-07
3792.72	-3.30499e-07
3801.28	-1.54172e-05
3809.84	-9.1676e-07
3818.4	7.57331e-07
3826.95	-3.05703e-07
3835.51	-4.20429e-07
3844.07	-2.26414e-06
3852.63	-1.27363e-06
3861.18	-9.02208e-08
3869.74	-5.01983e-06
3878.3	-1.92968e-06
3886.86	-2.36396e-06
3895.42	-3.89085e-06
3903.97	-4.73246e-06
3912.53	-1.03754e-06
3921.09	-2.61757e-07
3929.65	-2.16402e-06
3938.2	-1.86932e-06
3946.76	-2.25395e-06
3955.32	-1.522e-06
3963.88	3.69789e-07
3972.43	4.5058e-07
