Infrared Spectrum: Sulfur hexafluoride
Formula: S F6
CAS: 2551-62-4
State: gas
Melting point: -50.5 C
Boiling point: -63.9 C (sublimes)
Class: IUPAC A
Instrument: IFS66V (Bruker)
Instrument parameters: KBr Beam Splitter; MCT Detector; Multipass cell
Sampling: 1 L/min Flow
Resolution: 0.2410
Temperature: 23 C
Pressure: 101.3 Pa
Origin: NIST, Analytical Chemistry Division, 301-975-3108
cm-1	(micromol/mol)-1m-1 (base 10)
575.049	8.3502e-06
583.607	1.04484e-05
592.164	4.57874e-05
600.722	0.000279235
609.28	0.000191851
617.837	9.92744e-05
626.395	0.00046141
634.953	0.000122937
643.51	1.08347e-05
652.068	-5.05272e-06
660.625	1.98305e-06
669.183	1.02788e-06
677.741	-1.29447e-06
686.298	-7.29636e-06
694.856	5.85266e-06
703.414	3.39161e-06
711.971	-3.28136e-06
720.529	-4.53165e-06
729.087	3.85639e-06
737.644	1.49266e-06
746.202	2.02846e-06
754.76	-9.43943e-07
763.317	-8.28169e-07
771.875	-4.35121e-06
780.432	-1.45942e-06
788.99	-1.57997e-06
797.548	-2.49737e-06
806.105	3.19382e-06
814.663	1.20279e-06
823.221	3.67758e-06
831.778	-3.53899e-07
840.336	2.64958e-07
848.894	4.09416e-06
857.451	1.08906e-05
866.009	1.28895e-05
874.567	1.15047e-05
883.124	2.53876e-05
891.682	1.32553e-05
900.239	4.25144e-07
908.797	6.7668e-06
917.355	2.45954e-05
925.912	0.000722695
934.47	0.000796417
943.028	0.0150177
951.585	0.00484161
960.143	3.15292e-05
968.701	2.97848e-05
977.258	5.17032e-05
985.816	0.000142302
994.374	0.000101602
1002.93	1.20583e-05
1011.49	-2.29458e-06
1020.05	1.25727e-07
1028.6	4.77356e-07
1037.16	4.093e-06
1045.72	-2.05348e-06
1054.28	1.81408e-06
1062.83	-2.83998e-06
1071.39	7.80381e-07
1079.95	-1.43189e-08
1088.51	-1.85011e-06
1097.07	-1.91617e-06
1105.62	-1.02893e-06
1114.18	-6.77995e-07
1122.74	-2.22584e-07
1131.3	7.29683e-07
1139.85	4.32885e-07
1148.41	-9.51044e-07
1156.97	-7.8335e-07
1165.53	-1.24679e-07
1174.08	5.90801e-07
1182.64	-1.05413e-07
1191.2	1.99016e-06
1199.76	7.03955e-07
1208.31	-1.03899e-06
1216.87	1.26839e-06
1225.43	1.50774e-06
1233.99	-1.2025e-06
1242.55	6.95603e-06
1251.1	1.16831e-05
1259.66	8.23513e-06
1268.22	5.20999e-06
1276.78	2.21303e-06
1285.33	7.80556e-07
1293.89	-7.20137e-07
1302.45	5.63677e-07
1311.01	-3.4575e-08
1319.56	-1.48009e-06
1328.12	7.45864e-07
1336.68	-4.0448e-07
1345.24	1.0078e-06
1353.79	7.97017e-06
1362.35	-8.25608e-07
1370.91	1.13736e-06
1379.47	1.97659e-06
1388.03	1.1077e-05
1396.58	5.01162e-07
1405.14	-1.47299e-06
1413.7	3.73107e-08
1422.26	-1.3057e-06
1430.81	-4.71244e-07
1439.37	1.51507e-06
1447.93	-6.87209e-06
1456.49	-1.35374e-05
1465.04	-5.11942e-06
1473.6	-1.11894e-05
1482.16	-1.7107e-07
1490.72	-5.35056e-06
1499.27	2.9185e-07
1507.83	-2.63125e-06
1516.39	-1.14388e-06
1524.95	-2.14953e-06
1533.51	-2.35989e-06
1542.06	-1.55253e-05
1550.62	2.19644e-06
1559.18	6.55475e-06
1567.74	2.06879e-05
1576.29	1.50326e-05
1584.85	4.74349e-05
1593.41	3.45839e-05
1601.97	1.59045e-05
1610.52	5.71942e-06
1619.08	1.20686e-06
1627.64	-1.00372e-06
1636.2	2.79394e-08
1644.75	-1.04237e-06
1653.31	-3.77155e-05
1661.87	-1.25069e-06
1670.43	-2.23049e-06
1678.99	2.55354e-07
1687.54	-4.90103e-07
1696.1	-9.69275e-06
1704.66	2.32589e-06
1713.22	4.17295e-05
1721.77	4.85147e-05
1730.33	-3.79742e-07
1738.89	-2.9827e-06
1747.45	1.59662e-07
1756	-2.42164e-06
1764.56	1.25518e-06
1773.12	-1.33562e-06
1781.68	-1.3149e-07
1790.23	-7.29276e-07
1798.79	5.0058e-09
1807.35	-7.36144e-07
1815.91	-7.87133e-07
1824.47	-2.78637e-07
1833.02	-8.42197e-07
1841.58	-9.08611e-07
1850.14	-2.18008e-06
1858.7	-1.87194e-06
1867.25	-2.88788e-06
1875.81	-4.54218e-06
1884.37	-7.22407e-06
1892.93	-1.04543e-05
1901.48	-4.62286e-06
1910.04	-2.44644e-06
1918.6	-7.71476e-07
1927.16	-1.05366e-06
1935.71	-1.45774e-06
1944.27	1.78695e-07
1952.83	3.86553e-07
1961.39	-1.23643e-06
1969.95	-2.03724e-08
1978.5	-1.26915e-06
1987.06	-5.40394e-07
1995.62	-8.80672e-08
2004.18	-2.70372e-07
2012.73	-7.28053e-07
2021.29	-2.00628e-06
2029.85	-1.4993e-06
2038.41	-1.38067e-07
2046.96	7.87948e-07
2055.52	-1.40081e-06
2064.08	-1.23911e-06
2072.64	-2.63916e-06
2081.19	-9.93652e-07
2089.75	-1.04394e-06
2098.31	-1.4025e-06
2106.87	-1.08178e-06
2115.43	6.66412e-07
2123.98	8.93303e-07
2132.54	-4.16238e-07
2141.1	-1.71705e-06
2149.66	-1.17636e-07
2158.21	4.2721e-06
2166.77	-4.64608e-07
2175.33	-1.16041e-06
2183.89	-5.30033e-07
2192.44	9.17284e-07
2201	-2.94702e-07
2209.56	1.69045e-06
2218.12	9.41847e-07
2226.67	7.73338e-07
2235.23	-1.11408e-06
2243.79	-1.53434e-07
2252.35	-1.17124e-06
2260.9	-6.53839e-07
2269.46	-1.80977e-06
2278.02	-4.19265e-07
2286.58	-4.75318e-07
2295.14	-6.42547e-07
2303.69	-1.04615e-06
2312.25	-7.85154e-07
2320.81	-4.50388e-06
2329.37	-3.415e-07
2337.92	-5.37379e-06
2346.48	-1.48282e-06
2355.04	-1.94673e-06
2363.6	-6.13147e-06
2372.15	-1.58428e-06
2380.71	-3.24911e-06
2389.27	-1.09778e-06
2397.83	-1.56821e-06
2406.38	-6.97203e-07
2414.94	-1.46117e-06
2423.5	-1.32403e-06
2432.06	-1.54109e-06
2440.62	-1.25052e-06
2449.17	-1.0933e-06
2457.73	-1.61065e-06
2466.29	-4.22001e-07
2474.85	-1.58119e-06
2483.4	-4.30499e-07
2491.96	3.95691e-07
2500.52	-2.2596e-07
2509.08	-8.56749e-07
2517.63	-1.89359e-06
2526.19	-4.38066e-07
2534.75	-1.12724e-06
2543.31	-1.06251e-06
2551.86	-8.71883e-07
2560.42	3.149e-08
2568.98	-1.33381e-06
2577.54	-8.57389e-07
2586.1	-2.30919e-06
2594.65	-1.62962e-06
2603.21	-1.66757e-06
2611.77	-1.59959e-06
2620.33	-1.35797e-06
2628.88	-5.21709e-07
2637.44	-1.63323e-06
2646	-9.23512e-07
2654.56	-6.42663e-07
2663.11	-1.19528e-06
2671.67	-9.29624e-07
2680.23	-2.93544e-06
2688.79	-2.21623e-06
2697.34	-1.4699e-06
2705.9	-1.78253e-06
2714.46	-1.96699e-06
2723.02	-1.81874e-06
2731.58	-1.7245e-06
2740.13	-2.68887e-06
2748.69	-2.16187e-06
2757.25	-2.22875e-07
2765.81	-1.7667e-06
2774.36	-1.37671e-06
2782.92	-1.81437e-06
2791.48	-1.28428e-06
2800.04	-2.0809e-06
2808.59	-1.74708e-06
2817.15	-1.24481e-06
2825.71	-2.66355e-06
2834.27	-7.71767e-07
2842.82	-1.24295e-06
2851.38	-2.04499e-06
2859.94	-1.82147e-06
2868.5	-1.6337e-06
2877.06	-7.86086e-07
2885.61	-3.23282e-06
2894.17	-4.79509e-06
2902.73	-4.65889e-07
2911.29	-3.30499e-07
2919.84	-8.23629e-08
2928.4	-1.25558e-06
2936.96	-1.35721e-06
2945.52	6.57332e-07
2954.07	2.15541e-07
2962.63	1.85628e-06
2971.19	5.46214e-07
2979.75	-6.27937e-07
2988.3	-8.45515e-07
2996.86	-2.88497e-06
3005.42	-1.53666e-07
3013.98	1.511e-06
3022.54	-2.6951e-06
3031.09	-1.26874e-06
3039.65	6.4668e-08
3048.21	4.76657e-07
3056.77	-1.30803e-06
3065.32	5.57972e-07
3073.88	-2.38067e-07
3082.44	5.48426e-07
3091	-1.57898e-06
3099.55	-1.7486e-06
3108.11	6.05353e-08
3116.67	7.23979e-07
3125.23	-1.74889e-06
3133.78	-2.90144e-06
3142.34	-1.37363e-06
3150.9	-2.46716e-06
3159.46	-7.70894e-07
3168.02	-1.96577e-06
3176.57	3.55179e-07
3185.13	-3.39871e-07
3193.69	-1.2167e-06
3202.25	4.50522e-08
3210.8	6.30382e-08
3219.36	-4.07333e-07
3227.92	1.30343e-06
3236.48	1.43189e-06
3245.03	-1.63841e-06
3253.59	-2.51629e-07
3262.15	-2.59231e-06
3270.71	-1.41501e-07
3279.26	-1.93154e-06
3287.82	8.72523e-08
3296.38	1.1869e-06
3304.94	1.51769e-06
3313.5	1.5188e-06
3322.05	5.11756e-07
3330.61	-2.89632e-06
3339.17	1.02951e-06
3347.73	5.53956e-07
3356.28	-2.51652e-06
3364.84	-1.4979e-06
3373.4	2.18439e-06
3381.96	-3.31198e-07
3390.51	-2.07898e-06
3399.07	-3.35354e-06
3407.63	1.13149e-06
3416.19	-4.76133e-07
3424.74	-9.48774e-09
3433.3	8.39403e-07
3441.86	-8.9144e-07
3450.42	1.39353e-06
3458.98	2.005e-06
3467.53	-5.53898e-07
3476.09	-1.50127e-06
3484.65	-1.41612e-06
3493.21	-8.37017e-07
3501.76	-1.72118e-07
3510.32	-1.27566e-06
3518.88	-1.70302e-06
3527.44	-1.78352e-06
3535.99	-6.0675e-07
3544.55	-3.28264e-06
3553.11	-1.21135e-06
3561.67	-4.72874e-07
3570.22	-1.99307e-06
3578.78	-6.2817e-07
3587.34	-1.883e-07
3595.9	4.8079e-08
3604.46	3.16762e-07
3613.01	-5.92955e-07
3621.57	-1.8337e-06
3630.13	-2.68637e-06
3638.69	-1.75744e-06
3647.24	-2.48858e-06
3655.8	-1.93713e-06
3664.36	-3.67461e-07
3672.92	-3.08573e-06
3681.47	-2.17368e-06
3690.03	-1.58067e-06
3698.59	-1.98794e-06
3707.15	-2.62578e-06
3715.7	9.31719e-07
3724.26	-1.65116e-06
3732.82	-2.52834e-06
3741.38	-1.67863e-06
3749.94	-2.74039e-06
3758.49	9.48774e-07
3767.05	1.71536e-07
3775.61	-2.04074e-07
3784.17	1.9057e-07
3792.72	-1.26769e-06
3801.28	-1.59469e-05
3809.84	-4.74853e-07
3818.4	1.09185e-06
3826.95	-4.68683e-07
3835.51	-1.45983e-07
3844.07	-1.79592e-06
3852.63	-9.55817e-07
3861.18	7.54421e-07
3869.74	-5.1203e-06
3878.3	-1.75529e-06
3886.86	-2.63701e-06
3895.42	-4.64096e-06
3903.97	-4.23613e-06
3912.53	-5.89404e-07
3921.09	-2.91501e-07
3929.65	-2.09341e-06
3938.2	-2.2178e-06
3946.76	-1.43597e-06
3955.32	-1.62205e-06
3963.88	6.16005e-07
3972.43	8.98134e-07
