Infrared Spectrum: Sulfur hexafluoride
Formula: S F6
CAS: 2551-62-4
State: gas
Melting point: -50.5 C
Boiling point: -63.9 C (sublimes)
Class: IUPAC A
Instrument: IFS66V (Bruker)
Instrument parameters: KBr Beam Splitter; MCT Detector; Multipass cell
Sampling: 1 L/min Flow
Resolution: 0.9640
Temperature: 23 C
Pressure: 101.3 Pa
Origin: NIST, Analytical Chemistry Division, 301-975-3108
cm-1	(micromol/mol)-1m-1 (base 10)
575.17	-2.10194e-06
583.848	2.97316e-07
592.526	4.91186e-05
601.205	0.000295742
609.883	0.000179905
618.561	0.000156331
627.239	0.000436913
635.917	9.47517e-05
644.595	2.63455e-06
653.274	-1.19447e-06
661.952	9.06238e-07
670.63	-4.64076e-07
679.308	-7.10404e-08
687.986	1.64735e-06
696.664	1.09096e-06
705.343	1.53635e-06
714.021	1.70311e-07
722.699	-1.34118e-06
731.377	2.11608e-07
740.055	1.25524e-06
748.734	1.11459e-06
757.412	-3.08375e-07
766.09	1.5867e-07
774.768	3.24207e-07
783.446	-5.7979e-07
792.124	3.66116e-08
800.803	-8.39854e-07
809.481	-4.27814e-08
818.159	-1.29633e-06
826.837	-3.00372e-07
835.515	7.63925e-07
844.193	1.19826e-06
852.872	9.04018e-06
861.55	9.51517e-06
870.228	6.29258e-05
878.906	2.12615e-05
887.584	2.18601e-05
896.262	4.15116e-06
904.941	2.09219e-06
913.619	9.72011e-06
922.297	0.000245262
930.975	0.00105276
939.653	0.00496684
948.332	0.0215391
957.01	7.48274e-05
965.688	2.39356e-05
974.366	3.82526e-05
983.044	0.000139084
991.722	0.000125268
1000.4	1.90588e-05
1009.08	1.62919e-06
1017.76	1.83873e-07
1026.44	1.95339e-07
1035.11	4.96468e-07
1043.79	4.40183e-07
1052.47	4.78977e-07
1061.15	1.69583e-07
1069.83	-1.38815e-06
1078.5	-3.79212e-07
1087.18	3.9679e-07
1095.86	-4.01447e-07
1104.54	-7.12907e-07
1113.22	-3.11111e-07
1121.9	2.5404e-07
1130.57	8.06182e-07
1139.25	1.71097e-07
1147.93	-4.93587e-08
1156.61	-7.18087e-07
1165.29	-4.09508e-07
1173.96	-1.00929e-07
1182.64	1.27093e-07
1191.32	3.04243e-07
1200	3.04679e-07
1208.68	1.9793e-07
1217.35	5.36368e-07
1226.03	2.42661e-07
1234.71	9.55073e-07
1243.39	5.24858e-06
1252.07	1.19725e-05
1260.75	9.35629e-06
1269.42	3.78435e-06
1278.1	8.1599e-07
1286.78	9.636e-07
1295.46	-5.07003e-07
1304.14	-2.90099e-07
1312.81	-1.1647e-07
1321.49	-4.72691e-07
1330.17	-2.94988e-07
1338.85	-2.06951e-07
1347.53	-1.39578e-06
1356.21	9.90014e-06
1364.88	-4.44898e-07
1373.56	1.8052e-06
1382.24	1.64368e-06
1390.92	-1.86812e-07
1399.6	-1.51743e-07
1408.27	3.60761e-07
1416.95	-1.32026e-06
1425.63	-6.35726e-07
1434.31	-7.9393e-08
1442.99	-2.55233e-08
1451.67	-3.48159e-07
1460.34	2.66583e-08
1469.02	5.02783e-07
1477.7	3.41989e-07
1486.38	-5.373e-07
1495.06	-5.02754e-07
1503.73	-8.77746e-08
1512.41	-1.88846e-06
1521.09	-7.9927e-06
1529.77	-1.52034e-07
1538.45	-5.53574e-06
1547.13	1.19398e-06
1555.8	4.89431e-06
1564.48	1.53596e-05
1573.16	3.14417e-05
1581.84	4.12181e-05
1590.52	3.28629e-05
1599.19	2.32465e-05
1607.87	7.58672e-06
1616.55	-7.55299e-06
1625.23	9.71371e-07
1633.91	1.48105e-06
1642.59	1.0682e-06
1651.26	-1.09183e-06
1659.94	3.07968e-07
1668.62	-2.37667e-06
1677.3	-8.28271e-07
1685.98	-1.51318e-06
1694.65	-5.64278e-07
1703.33	2.3292e-06
1712.01	3.11333e-05
1720.69	3.4855e-05
1729.37	-1.6759e-06
1738.05	-1.15737e-06
1746.72	-7.87265e-07
1755.4	-3.71907e-07
1764.08	-1.32768e-07
1772.76	-6.07807e-06
1781.44	-3.82268e-07
1790.11	-8.81821e-08
1798.79	-3.11606e-07
1807.47	-5.19372e-07
1816.15	7.54932e-08
1824.83	-1.10522e-06
1833.51	-2.61025e-07
1842.18	-4.63291e-07
1850.86	-1.09619e-06
1859.54	-2.31331e-06
1868.22	-2.04358e-06
1876.9	-4.22322e-06
1885.57	-7.86343e-06
1894.25	-8.77572e-06
1902.93	-4.83337e-06
1911.61	-1.25655e-06
1920.29	-1.03784e-06
1928.97	-1.17666e-06
1937.64	-1.00245e-06
1946.32	-1.1335e-06
1955	-5.32847e-07
1963.68	-9.48845e-07
1972.36	-8.88369e-07
1981.03	-6.84124e-07
1989.71	-4.51155e-07
1998.39	-4.33169e-07
2007.07	-9.0228e-07
2015.75	-2.89866e-07
2024.43	-3.62187e-07
2033.1	-4.77784e-07
2041.78	-8.02894e-07
2050.46	-3.09248e-07
2059.14	-8.90697e-07
2067.82	-4.84652e-07
2076.49	-1.02824e-06
2085.17	-8.82869e-07
2093.85	-3.31687e-07
2102.53	-2.04507e-07
2111.21	1.19689e-06
2119.89	1.45631e-06
2128.56	1.11814e-07
2137.24	-1.9336e-07
2145.92	-3.63264e-07
2154.6	1.00708e-06
2163.28	-1.34951e-07
2171.95	-4.53716e-08
2180.63	1.42896e-08
2189.31	-4.3445e-07
2197.99	-1.00755e-07
2206.67	3.95568e-07
2215.35	4.86078e-07
2224.02	3.25546e-07
2232.7	-2.30991e-07
2241.38	-9.21692e-07
2250.06	-1.92196e-07
2258.74	-6.22251e-07
2267.41	-9.16483e-07
2276.09	-8.73468e-07
2284.77	-8.86215e-07
2293.45	-7.48995e-07
2302.13	-1.79036e-06
2310.81	-2.2852e-06
2319.48	-4.30847e-06
2328.16	-6.21317e-06
2336.84	-5.31063e-06
2345.52	-4.65267e-06
2354.2	-6.92081e-06
2362.87	-1.10841e-05
2371.55	-5.55114e-06
2380.23	-1.47442e-06
2388.91	-7.14391e-07
2397.59	-7.87964e-07
2406.26	-6.09359e-07
2414.94	-4.70537e-07
2423.62	-9.95148e-07
2432.3	-1.02827e-06
2440.98	-1.37186e-06
2449.66	-1.16086e-06
2458.33	-1.18615e-06
2467.01	-9.636e-07
2475.69	-8.90988e-07
2484.37	-9.45818e-07
2493.05	-6.08835e-07
2501.72	-5.38144e-07
2510.4	-8.34849e-07
2519.08	-5.37911e-07
2527.76	-3.60179e-07
2536.44	-1.23339e-06
2545.12	-5.37998e-07
2553.79	-1.02617e-06
2562.47	-7.6439e-07
2571.15	-1.19226e-06
2579.83	-9.05685e-07
2588.51	-1.60165e-06
2597.18	-1.38004e-06
2605.86	-1.60026e-06
2614.54	-1.38207e-06
2623.22	-1.57782e-06
2631.9	-1.71452e-06
2640.58	-1.19017e-06
2649.25	-1.18877e-06
2657.93	-1.67403e-06
2666.61	-1.35995e-06
2675.29	-1.64138e-06
2683.97	-1.20201e-06
2692.64	-1.42157e-06
2701.32	-1.10143e-06
2710	-1.60154e-06
2718.68	-1.61917e-06
2727.36	-1.5979e-06
2736.04	-1.66265e-06
2744.71	-1.54918e-06
2753.39	-1.56813e-06
2762.07	-1.37608e-06
2770.75	-1.06834e-06
2779.43	-1.73826e-06
2788.1	-9.62145e-07
2796.78	-1.15216e-06
2805.46	-1.56868e-06
2814.14	-1.01421e-06
2822.82	-1.70404e-06
2831.5	-8.93986e-07
2840.17	-1.84138e-06
2848.85	-7.77428e-07
2857.53	-2.26663e-06
2866.21	-1.23501e-06
2874.89	-5.90151e-07
2883.56	-1.17434e-06
2892.24	-7.60607e-07
2900.92	-7.47074e-07
2909.6	-1.51953e-06
2918.28	-1.36557e-06
2926.96	-7.16661e-07
2935.63	-1.20239e-06
2944.31	-1.12565e-06
2952.99	-6.84735e-07
2961.67	-2.21331e-06
2970.35	-1.25891e-06
2979.02	-2.0893e-07
2987.7	-8.5167e-07
2996.38	-1.06866e-06
3005.06	-7.29554e-07
3013.74	-2.9883e-07
3022.42	-6.61569e-07
3031.09	-3.621e-07
3039.77	1.96736e-07
3048.45	4.27523e-08
3057.13	-5.76181e-07
3065.81	-1.1535e-06
3074.48	-7.9102e-07
3083.16	-9.32577e-07
3091.84	-7.63575e-07
3100.52	-9.23264e-07
3109.2	-1.04235e-06
3117.88	-7.33308e-07
3126.55	-1.29488e-06
3135.23	-1.06223e-06
3143.91	7.94803e-08
3152.59	-3.34946e-07
3161.27	-4.30783e-07
3169.94	-3.45016e-07
3178.62	2.78196e-07
3187.3	-1.15335e-07
3195.98	-3.18154e-07
3204.66	-2.56776e-07
3213.34	-1.13778e-06
3222.01	-2.17501e-06
3230.69	-1.21109e-06
3239.37	2.36229e-07
3248.05	-2.03133e-06
3256.73	4.01825e-07
3265.4	-1.72051e-06
3274.08	-1.5282e-07
3282.76	3.38031e-07
3291.44	6.93233e-08
3300.12	-2.88905e-07
3308.8	3.57734e-07
3317.47	1.52354e-07
3326.15	1.32113e-06
3334.83	2.61927e-07
3343.51	3.89951e-07
3352.19	4.9737e-08
3360.86	-2.76391e-07
3369.54	-2.47492e-07
3378.22	-7.73441e-07
3386.9	-1.46961e-06
3395.58	-1.24942e-06
3404.26	-1.26464e-06
3412.93	-8.86099e-07
3421.61	-1.23007e-06
3430.29	-7.15817e-07
3438.97	-1.2427e-07
3447.65	-8.30367e-07
3456.32	1.62133e-07
3465	-5.47195e-07
3473.68	-1.2051e-06
3482.36	5.86862e-07
3491.04	-3.19056e-07
3499.71	-7.22627e-08
3508.39	1.55759e-07
3517.07	-9.26319e-07
3525.75	-1.49616e-06
3534.43	-3.6987e-07
3543.11	-8.95383e-07
3551.78	-1.52412e-06
3560.46	-5.50338e-07
3569.14	-8.41222e-07
3577.82	-3.69317e-07
3586.5	-2.42585e-06
3595.17	-7.92999e-07
3603.85	2.20135e-07
3612.53	-1.93165e-06
3621.21	-2.04594e-07
3629.89	-4.94053e-06
3638.57	-6.37443e-07
3647.24	-3.12083e-06
3655.92	-3.44644e-06
3664.6	-2.88905e-07
3673.28	-1.13481e-06
3681.96	-8.64912e-07
3690.63	-2.70576e-06
3699.31	-9.28822e-07
3707.99	-9.04754e-07
3716.67	-1.17128e-06
3725.35	-1.43309e-06
3734.03	-1.48594e-06
3742.7	-1.81079e-06
3751.38	-3.45368e-06
3760.06	-2.1478e-06
3768.74	-6.86336e-07
3777.42	-5.33312e-07
3786.09	-3.04825e-07
3794.77	-9.92354e-07
3803.45	-1.18324e-06
3812.13	8.04407e-08
3820.81	-4.96785e-06
3829.49	-1.07777e-06
3838.16	-9.3762e-06
3846.84	-1.32876e-06
3855.52	-3.0685e-06
3864.2	-2.89662e-06
3872.88	-1.8878e-06
3881.55	-2.86935e-06
3890.23	-2.74479e-06
3898.91	-4.0204e-06
3907.59	-2.1978e-06
3916.27	-3.05864e-06
3924.95	-2.69927e-06
3933.62	-2.69057e-06
3942.3	-2.71653e-06
3950.98	-1.92484e-06
3959.66	-1.32683e-06
3968.34	-1.00801e-06
