Infrared Spectrum: Sulfur hexafluoride
Formula: S F6
CAS: 2551-62-4
State: gas
Melting point: -50.5 C
Boiling point: -63.9 C (sublimes)
Class: IUPAC A
Instrument: IFS66V (Bruker)
Instrument parameters: KBr Beam Splitter; MCT Detector; Multipass cell
Sampling: 1 L/min Flow
Resolution: 1.9290
Temperature: 23 C
Pressure: 101.3 Pa
Origin: NIST, Analytical Chemistry Division, 301-975-3108
cm-1	(micromol/mol)-1m-1 (base 10)
575.652	-6.64683e-07
584.33	-8.533e-07
593.008	5.94513e-05
601.687	0.000303705
610.365	0.000183498
619.043	0.000199049
627.721	0.000415562
636.399	8.69884e-05
645.077	-8.03999e-07
653.756	2.53272e-06
662.434	-8.33976e-07
671.112	1.89295e-06
679.79	-1.25745e-06
688.468	2.08834e-06
697.146	5.22661e-07
705.825	2.40859e-06
714.503	-9.02833e-07
723.181	5.18324e-07
731.859	-9.01145e-07
740.537	9.05627e-07
749.216	1.77674e-07
757.894	4.66696e-07
766.572	-1.4507e-06
775.25	8.21345e-07
783.928	-1.93258e-06
792.606	8.15524e-07
801.285	-1.64409e-06
809.963	7.1541e-07
818.641	-7.02576e-07
827.319	5.38231e-07
835.997	-4.17424e-07
844.675	3.17904e-06
853.354	7.36568e-06
862.032	1.03644e-05
870.71	3.50612e-05
879.388	2.34239e-05
888.066	1.91387e-05
896.744	5.02111e-06
905.423	4.16959e-07
914.101	1.3411e-05
922.779	0.000295195
931.457	0.000963289
940.135	0.0061444
948.814	0.0181818
957.492	7.20849e-05
966.17	2.142e-05
974.848	4.26274e-05
983.526	0.000141946
992.204	0.000114996
1000.88	1.66533e-05
1009.56	2.01582e-06
1018.24	-5.49174e-08
1026.92	8.94597e-07
1035.6	2.89982e-07
1044.27	4.79385e-07
1052.95	1.68157e-07
1061.63	4.1335e-07
1070.31	-6.781e-07
1078.99	2.39838e-07
1087.66	-1.26307e-07
1096.34	-2.63149e-07
1105.02	-8.79289e-07
1113.7	-1.91236e-07
1122.38	9.72622e-08
1131.06	8.03767e-07
1139.73	6.27228e-07
1148.41	-2.38994e-07
1157.09	-3.01274e-07
1165.77	-5.91664e-07
1174.45	-2.72346e-07
1183.12	8.23615e-09
1191.8	3.4682e-07
1200.48	1.58146e-07
1209.16	4.32936e-07
1217.84	4.31306e-07
1226.52	3.81337e-07
1235.19	6.82989e-07
1243.87	5.58821e-06
1252.55	1.28063e-05
1261.23	9.67893e-06
1269.91	2.9548e-06
1278.58	1.39037e-06
1287.26	4.86078e-07
1295.94	-3.77437e-07
1304.62	-4.83197e-07
1313.3	1.18449e-08
1321.98	-1.81224e-07
1330.65	1.32099e-07
1339.33	-3.96383e-07
1348.01	-1.49246e-06
1356.69	7.87469e-06
1365.37	1.40946e-07
1374.04	1.8573e-06
1382.72	1.97202e-06
1391.4	9.07141e-08
1400.08	7.27459e-07
1408.76	-8.09063e-09
1417.44	-1.37107e-06
1426.11	-5.56769e-07
1434.79	-1.96533e-07
1443.47	-2.1772e-07
1452.15	6.53362e-08
1460.83	-5.26328e-07
1469.5	2.04594e-07
1478.18	8.00624e-08
1486.86	-8.91716e-07
1495.54	-3.09321e-06
1504.22	-7.57376e-07
1512.89	-1.245e-06
1521.57	-5.72878e-06
1530.25	-4.48448e-07
1538.93	-7.61302e-06
1547.61	1.13732e-06
1556.29	4.82566e-06
1564.96	1.64948e-05
1573.64	3.24036e-05
1582.32	4.1648e-05
1591	3.32293e-05
1599.68	2.17596e-05
1608.35	7.10684e-06
1617.03	-4.72353e-06
1625.71	1.09433e-06
1634.39	-8.74923e-07
1643.07	1.00755e-06
1651.75	-6.11271e-06
1660.42	2.12772e-07
1669.1	-3.65158e-06
1677.78	-5.36805e-07
1686.46	-1.5277e-06
1695.14	-5.01861e-06
1703.81	1.95499e-06
1712.49	3.50844e-05
1721.17	3.80082e-05
1729.85	-1.70872e-06
1738.53	-1.92883e-06
1747.21	-7.77749e-07
1755.88	-1.19447e-06
1764.56	6.28625e-09
1773.24	-3.57309e-06
1781.92	5.67509e-09
1790.6	-8.24517e-07
1799.27	-5.95011e-07
1807.95	-5.85669e-07
1816.63	2.4624e-07
1825.31	-1.13333e-06
1833.99	-4.51097e-09
1842.67	-9.76784e-07
1851.34	-8.17998e-07
1860.02	-2.30359e-06
1868.7	-2.38522e-06
1877.38	-4.44371e-06
1886.06	-7.71483e-06
1894.73	-9.3193e-06
1903.41	-3.54568e-06
1912.09	-1.40905e-06
1920.77	-8.21985e-07
1929.45	-1.34572e-06
1938.13	-6.33951e-07
1946.8	-1.2876e-06
1955.48	-2.09338e-07
1964.16	-1.02428e-06
1972.84	-4.57092e-07
1981.52	-7.56824e-07
1990.19	-1.51423e-07
1998.87	-3.68502e-07
2007.55	-6.44748e-07
2016.23	-5.51822e-07
2024.91	-1.70835e-07
2033.59	-6.43467e-07
2042.26	-7.24112e-07
2050.94	-6.98705e-07
2059.62	-4.83052e-07
2068.3	-6.70591e-07
2076.98	-6.46319e-07
2085.65	-6.75772e-07
2094.33	1.94612e-07
2103.01	2.09425e-07
2111.69	8.53271e-07
2120.37	2.30292e-07
2129.05	9.48758e-09
2137.72	-6.47687e-07
2146.4	2.40012e-07
2155.08	2.47201e-07
2163.76	1.60823e-07
2172.44	7.57435e-07
2181.11	1.37366e-08
2189.79	5.91373e-08
2198.47	1.11261e-07
2207.15	-6.89741e-08
2215.83	5.64045e-07
2224.51	2.67573e-07
2233.18	5.13086e-08
2241.86	-7.35724e-07
2250.54	-1.90916e-07
2259.22	-7.60869e-07
2267.9	-6.28072e-07
2276.57	-9.54869e-07
2285.25	-6.28334e-07
2293.93	-8.70413e-07
2302.61	-1.1292e-06
2311.29	-2.15484e-06
2319.97	-3.3341e-06
2328.64	-7.01318e-06
2337.32	-7.56466e-06
2346	-4.83008e-06
2354.68	-6.53339e-06
2363.36	-1.01756e-05
2372.03	-5.04742e-06
2380.71	-1.53207e-06
2389.39	-7.57085e-07
2398.07	-1.1367e-06
2406.75	-5.96553e-07
2415.43	-7.18582e-07
2424.1	-8.23091e-07
2432.78	-1.13502e-06
2441.46	-1.13054e-06
2450.14	-1.43027e-06
2458.82	-7.82027e-07
2467.49	-1.20088e-06
2476.17	-6.95271e-07
2484.85	-1.10999e-06
2493.53	-3.96761e-07
2502.21	-7.01295e-07
2510.89	-7.21842e-07
2519.56	-6.08078e-07
2528.24	-2.98422e-07
2536.92	-1.26304e-06
2545.6	-6.07118e-07
2554.28	-1.22681e-06
2562.95	-7.70618e-07
2571.63	-1.28513e-06
2580.31	-8.62875e-07
2588.99	-1.73314e-06
2597.67	-1.20839e-06
2606.35	-1.8378e-06
2615.02	-1.26569e-06
2623.7	-1.77755e-06
2632.38	-1.48032e-06
2641.06	-1.56327e-06
2649.74	-1.28536e-06
2658.41	-1.75494e-06
2667.09	-1.14625e-06
2675.77	-1.82482e-06
2684.45	-1.13091e-06
2693.13	-1.54223e-06
2701.8	-2.43417e-07
2710.48	-1.36868e-06
2719.16	-1.29005e-06
2727.84	-1.67537e-06
2736.52	-1.53975e-06
2745.2	-1.63582e-06
2753.87	-1.17693e-06
2762.55	-1.37192e-06
2771.23	-9.95759e-07
2779.91	-1.9715e-06
2788.59	-8.76611e-07
2797.26	-1.13024e-06
2805.94	-1.26895e-06
2814.62	-1.32384e-06
2823.3	-1.53687e-06
2831.98	-1.3461e-06
2840.66	-2.06122e-06
2849.33	-1.14186e-06
2858.01	-2.3253e-06
2866.69	-1.3991e-06
2875.37	-4.17948e-07
2884.05	-1.2344e-06
2892.72	-7.23763e-07
2901.4	-9.1398e-07
2910.08	-1.07285e-06
2918.76	-1.45596e-06
2927.44	-3.86924e-07
2936.12	-1.28565e-06
2944.79	-7.24752e-07
2953.47	-9.3764e-07
2962.15	-1.01462e-06
2970.83	-1.0028e-06
2979.51	-4.42948e-08
2988.18	-1.10044e-06
2996.86	-5.36718e-07
3005.54	-1.00446e-06
3014.22	-2.57969e-07
3022.9	-9.23525e-07
3031.58	-3.23247e-07
3040.25	-1.31167e-07
3048.93	-2.94522e-08
3057.61	-7.68115e-07
3066.29	-1.06168e-06
3074.97	-1.03668e-06
3083.64	-8.11159e-07
3092.32	-9.49718e-07
3101	-9.77744e-07
3109.68	-1.18161e-06
3118.36	-1.00111e-06
3127.04	-1.23731e-06
3135.71	-5.46089e-07
3144.39	-7.13897e-08
3153.07	-3.08957e-07
3161.75	-5.60669e-07
3170.43	-3.42222e-07
3179.1	-5.69546e-08
3187.78	-1.81894e-08
3196.46	-8.73934e-07
3205.14	-3.38322e-07
3213.82	-9.1171e-07
3222.5	-1.59918e-06
3231.17	-1.4945e-06
3239.85	2.99033e-07
3248.53	-2.10036e-06
3257.21	9.06093e-07
3265.89	-1.54787e-06
3274.56	-9.55743e-08
3283.24	2.99703e-07
3291.92	2.52236e-07
3300.6	-3.76971e-07
3309.28	5.54179e-07
3317.96	-1.70253e-07
3326.63	1.30026e-06
3335.31	1.16208e-07
3343.99	5.10321e-07
3352.67	-3.82384e-07
3361.35	-4.58227e-07
3370.02	-6.45563e-07
3378.7	-8.40029e-07
3387.38	-1.49092e-06
3396.06	-1.0631e-06
3404.74	-1.37026e-06
3413.42	-6.56127e-07
3422.09	-1.30038e-06
3430.77	-4.85642e-07
3439.45	-5.13581e-07
3448.13	-4.32674e-07
3456.81	-3.49178e-07
3465.48	1.72232e-07
3474.16	-9.2143e-07
3482.84	3.46384e-07
3491.52	-4.16668e-07
3500.2	-2.40478e-07
3508.88	-6.87675e-07
3517.55	-4.763e-07
3526.23	-1.55049e-06
3534.91	-2.27062e-07
3543.59	-8.89388e-07
3552.27	-1.23769e-06
3560.94	-7.98266e-07
3569.62	-5.46962e-07
3578.3	-6.14015e-07
3586.98	-1.45436e-06
3595.66	-8.55395e-07
3604.34	5.39279e-07
3613.01	-1.1216e-06
3621.69	-6.48415e-08
3630.37	-2.58091e-06
3639.05	-2.92427e-07
3647.73	-2.41665e-06
3656.4	-2.78181e-06
3665.08	-6.31448e-07
3673.76	-1.80468e-06
3682.44	-1.07952e-06
3691.12	-2.45108e-06
3699.8	-7.38489e-07
3708.47	-1.73233e-06
3717.15	-1.37014e-06
3725.83	-1.73535e-06
3734.51	-2.95491e-06
3743.19	-3.47897e-06
3751.86	-7.32482e-06
3760.54	-1.10533e-06
3769.22	-1.89804e-06
3777.9	-4.39572e-07
3786.58	-7.29117e-07
3795.26	-1.48632e-06
3803.93	-1.88564e-06
3812.61	5.93701e-09
3821.29	-4.76413e-06
3829.97	-8.11799e-07
3838.65	-5.62445e-06
3847.32	-1.39264e-06
3856	-2.88178e-06
3864.68	-3.85757e-06
3873.36	-2.77931e-06
3882.04	-2.39966e-06
3890.71	-3.90193e-06
3899.39	-3.98129e-06
3908.07	-2.28755e-06
3916.75	-3.37298e-06
3925.43	-2.65606e-06
3934.11	-2.41933e-06
3942.78	-2.63167e-06
3951.46	-1.75171e-06
3960.14	-1.64199e-06
3968.82	-1.20894e-06
