Infrared Spectrum: Sulfur hexafluoride
Formula: S F6
CAS: 2551-62-4
State: gas
Melting point: -50.5 C
Boiling point: -63.9 C (sublimes)
Class: IUPAC A
Instrument: IFS66V (Bruker)
Instrument parameters: KBr Beam Splitter; MCT Detector; Multipass cell
Sampling: 1 L/min Flow
Resolution: 0.9640
Temperature: 23 C
Pressure: 101.3 Pa
Origin: NIST, Analytical Chemistry Division, 301-975-3108
cm-1	(micromol/mol)-1m-1 (base 10)
575.17	1.3185e-05
583.848	1.42328e-05
592.526	7.93101e-05
601.205	0.000337047
609.883	0.000282467
618.561	2.41944e-05
627.239	0.000402356
635.917	7.40099e-05
644.595	-1.00032e-05
653.274	-1.14289e-05
661.952	-6.48321e-06
670.63	-6.71918e-06
679.308	-4.16902e-06
687.986	6.14724e-07
696.664	2.45051e-07
705.343	1.20308e-06
714.021	-1.18189e-06
722.699	-1.09866e-06
731.377	3.23835e-06
740.055	3.5561e-06
748.734	2.12799e-06
757.412	2.17362e-06
766.09	4.67065e-06
774.768	3.73741e-06
783.446	4.77914e-06
792.124	5.3466e-06
800.803	3.44358e-06
809.481	5.6498e-06
818.159	4.62676e-06
826.837	7.00987e-06
835.515	9.48716e-06
844.193	9.41917e-06
852.872	1.92606e-05
861.55	2.15662e-05
870.228	9.71907e-05
878.906	3.83349e-05
887.584	3.99454e-05
896.262	2.66405e-05
904.941	3.0044e-05
913.619	4.59548e-05
922.297	0.000295378
930.975	0.000836702
939.653	0.00501053
948.332	0.016126
957.01	-2.51225e-05
965.688	-3.26172e-05
974.366	-2.69894e-06
983.044	0.000108161
991.722	8.86643e-05
1000.4	-3.07141e-06
1009.08	-1.75374e-05
1017.76	-1.7109e-05
1026.44	-1.58091e-05
1035.11	-1.2858e-05
1043.79	-1.19573e-05
1052.47	-1.11876e-05
1061.15	-1.06661e-05
1069.83	-1.16077e-05
1078.5	-9.86382e-06
1087.18	-8.62401e-06
1095.86	-8.52261e-06
1104.54	-9.2385e-06
1113.22	-7.46557e-06
1121.9	-6.94124e-06
1130.57	-5.86075e-06
1139.25	-7.05609e-06
1147.93	-6.39741e-06
1156.61	-6.80248e-06
1165.29	-5.89672e-06
1173.96	-6.17966e-06
1182.64	-5.82617e-06
1191.32	-4.49603e-06
1200	-4.68648e-06
1208.68	-4.25557e-06
1217.35	-4.81564e-06
1226.03	-4.25551e-06
1234.71	-2.9316e-06
1243.39	4.19265e-07
1252.07	8.19677e-06
1260.75	4.15837e-06
1269.42	2.6327e-07
1278.1	-3.65127e-06
1286.78	-2.6621e-06
1295.46	-4.42426e-06
1304.14	-3.84789e-06
1312.81	-3.4802e-06
1321.49	-4.51657e-06
1330.17	-3.63456e-06
1338.85	-3.47368e-06
1347.53	-3.49783e-06
1356.21	7.07349e-06
1364.88	-3.15622e-06
1373.56	-2.13375e-06
1382.24	-1.30628e-06
1390.92	-3.73747e-06
1399.6	-2.78422e-06
1408.27	-2.07921e-06
1416.95	-3.45051e-06
1425.63	-3.96529e-06
1434.31	-2.53346e-06
1442.99	-2.84172e-06
1451.67	-3.32932e-06
1460.34	-1.84493e-06
1469.02	-1.39231e-06
1477.7	-2.39632e-06
1486.38	-3.06955e-06
1495.06	-3.6228e-06
1503.73	-2.03649e-06
1512.41	-6.15958e-06
1521.09	-1.49969e-05
1529.77	-2.39848e-06
1538.45	-1.6025e-06
1547.13	-1.14883e-06
1555.8	4.13945e-06
1564.48	1.27371e-05
1573.16	2.82093e-05
1581.84	4.00158e-05
1590.52	2.79516e-05
1599.19	2.02825e-05
1607.87	5.07012e-06
1616.55	-1.70903e-05
1625.23	1.27473e-08
1633.91	3.32653e-07
1642.59	-1.42165e-06
1651.26	-5.07594e-06
1659.94	-6.78519e-07
1668.62	-1.89627e-06
1677.3	-2.65494e-06
1685.98	-5.19544e-06
1694.65	-3.90569e-06
1703.33	1.1571e-06
1712.01	2.91998e-05
1720.69	3.56321e-05
1729.37	-2.74952e-06
1738.05	-1.4068e-06
1746.72	-1.78882e-06
1755.4	-2.03294e-06
1764.08	-1.94627e-06
1772.76	-1.37093e-05
1781.44	-1.25285e-06
1790.11	-8.80264e-07
1798.79	-1.19295e-06
1807.47	-1.98719e-06
1816.15	-1.28346e-06
1824.83	-2.39842e-06
1833.51	-1.72753e-06
1842.18	-1.97159e-06
1850.86	-2.57741e-06
1859.54	-3.66943e-06
1868.22	-3.62158e-06
1876.9	-5.4618e-06
1885.57	-9.30689e-06
1894.25	-1.01897e-05
1902.93	-6.4278e-06
1911.61	-2.38404e-06
1920.29	-2.27624e-06
1928.97	-2.4128e-06
1937.64	-2.30191e-06
1946.32	-1.84871e-06
1955	-1.70314e-06
1963.68	-2.25378e-06
1972.36	-1.70587e-06
1981.03	-1.94091e-06
1989.71	-1.67304e-06
1998.39	-1.92089e-06
2007.07	-1.73597e-06
2015.75	-1.09342e-06
2024.43	-1.75686e-06
2033.1	-1.89342e-06
2041.78	-1.2004e-06
2050.46	-1.20081e-06
2059.14	-1.76973e-06
2067.82	-1.13661e-06
2076.49	-1.53812e-06
2085.17	-1.84691e-06
2093.85	-8.14723e-07
2102.53	-2.36844e-06
2111.21	4.91849e-07
2119.89	2.06955e-06
2128.56	-1.20087e-06
2137.24	-1.03969e-06
2145.92	-1.2915e-06
2154.6	1.69394e-06
2163.28	-5.46331e-07
2171.95	-2.05389e-06
2180.63	-1.70634e-06
2189.31	-2.15215e-06
2197.99	-8.29915e-07
2206.67	-3.149e-08
2215.35	1.59545e-07
2224.02	-2.09254e-07
2232.7	-5.57856e-07
2241.38	-1.67508e-06
2250.06	-7.64374e-07
2258.74	-9.53023e-07
2267.41	-1.56687e-06
2276.09	-1.37211e-06
2284.77	-1.37351e-06
2293.45	-1.39284e-06
2302.13	-1.87566e-06
2310.81	-2.79702e-06
2319.48	-4.75621e-06
2328.16	-5.42821e-06
2336.84	1.02782e-06
2345.52	-4.89003e-06
2354.2	-1.03882e-05
2362.87	-2.24155e-05
2371.55	-1.06751e-05
2380.23	-1.63742e-06
2388.91	-1.10436e-06
2397.59	-9.05934e-07
2406.26	-1.20762e-06
2414.94	-7.12803e-07
2423.62	-1.56402e-06
2432.3	-1.86129e-06
2440.98	-1.86239e-06
2449.66	-1.70791e-06
2458.33	-1.0472e-06
2467.01	-6.43129e-07
2475.69	-1.19284e-06
2484.37	-1.71542e-06
2493.05	-8.28169e-07
2501.72	-5.32943e-07
2510.4	-4.7363e-07
2519.08	-6.86028e-07
2527.76	-6.12454e-07
2536.44	-1.5018e-06
2545.12	-9.76772e-07
2553.79	-1.07404e-06
2562.47	-9.43477e-07
2571.15	-1.3479e-06
2579.83	-1.25942e-06
2588.51	-2.10639e-06
2597.18	-1.26169e-06
2605.86	-1.53422e-06
2614.54	-1.42968e-06
2623.22	-1.51641e-06
2631.9	-2.06158e-06
2640.58	-1.42188e-06
2649.25	-6.64782e-07
2657.93	-1.81891e-06
2666.61	-2.02886e-06
2675.29	-1.88492e-06
2683.97	-1.0642e-06
2692.64	-1.36216e-06
2701.32	-1.34033e-06
2710	-1.66641e-06
2718.68	-1.77636e-06
2727.36	-1.16874e-06
2736.04	-1.53154e-06
2744.71	-1.87886e-06
2753.39	-1.76815e-06
2762.07	-1.48684e-06
2770.75	-6.65772e-07
2779.43	-1.41781e-06
2788.1	-8.97319e-07
2796.78	-1.53358e-06
2805.46	-2.06693e-06
2814.14	-1.3646e-06
2822.82	-1.88934e-06
2831.5	-5.87774e-07
2840.17	-1.69778e-06
2848.85	-1.016e-06
2857.53	-2.58748e-06
2866.21	-8.4534e-07
2874.89	-4.30732e-07
2883.56	-1.52514e-06
2892.24	-1.2823e-07
2900.92	-6.08263e-07
2909.6	-1.94254e-06
2918.28	-2.03137e-06
2926.96	-8.27238e-07
2935.63	-8.07331e-07
2944.31	-1.2667e-06
2952.99	-4.7462e-07
2961.67	-3.15371e-06
2970.35	-2.16518e-06
2979.02	-9.17924e-08
2987.7	-1.37339e-06
2996.38	-8.93361e-07
3005.06	-3.05703e-07
3013.74	8.99298e-08
3022.42	-6.52966e-07
3031.09	2.03084e-07
3039.77	8.59135e-08
3048.45	3.71186e-07
3057.13	-7.28286e-07
3065.81	-1.26309e-06
3074.48	-3.954e-07
3083.16	-1.20849e-06
3091.84	-1.17281e-06
3100.52	-2.50174e-07
3109.2	-1.1362e-06
3117.88	-2.02095e-07
3126.55	-8.99182e-07
3135.23	-1.30599e-06
3143.91	1.01379e-06
3152.59	2.15482e-07
3161.27	-3.82362e-07
3169.94	6.28403e-07
3178.62	1.43352e-06
3187.3	5.58031e-07
3195.98	-1.16996e-08
3204.66	5.86144e-08
3213.34	-1.25704e-06
3222.01	-2.05209e-06
3230.69	-4.63677e-07
3239.37	1.11769e-06
3248.05	-9.47959e-07
3256.73	1.37398e-06
3265.4	-8.43245e-07
3274.08	6.09951e-07
3282.76	1.60186e-06
3291.44	3.71593e-07
3300.12	6.30964e-08
3308.8	5.57565e-07
3317.47	1.20582e-06
3326.15	2.05989e-06
3334.83	1.32945e-06
3343.51	1.45925e-06
3352.19	6.69904e-07
3360.86	5.99881e-07
3369.54	6.53024e-07
3378.22	2.28346e-07
3386.9	-1.30925e-06
3395.58	-4.48834e-07
3404.26	-5.84515e-07
3412.93	-1.2869e-06
3421.61	-7.22465e-07
3430.29	6.37367e-08
3438.97	9.17808e-07
3447.65	-4.99474e-07
3456.32	4.87367e-07
3465	-1.40453e-07
3473.68	-8.8562e-07
3482.36	1.65087e-06
3491.04	-5.16704e-07
3499.71	8.7002e-07
3508.39	2.21815e-06
3517.07	-1.17118e-06
3525.75	-1.50529e-06
3534.43	7.92721e-07
3543.11	-4.35388e-07
3551.78	-7.77762e-07
3560.46	7.87075e-07
3569.14	8.37657e-07
3577.82	3.75726e-07
3586.5	-3.29294e-06
3595.17	-9.30672e-07
3603.85	1.78992e-06
3612.53	-3.31867e-06
3621.21	6.52326e-07
3629.89	-5.23589e-06
3638.57	1.61466e-07
3647.24	-3.24574e-06
3655.92	-1.80453e-06
3664.6	9.15072e-07
3673.28	2.28038e-06
3681.96	8.39461e-07
3690.63	-1.10547e-06
3699.31	4.92373e-07
3707.99	2.61524e-07
3716.67	2.23515e-08
3725.35	-6.7101e-07
3734.03	1.36146e-06
3742.7	-6.44526e-07
3751.38	1.10145e-06
3760.06	-2.78014e-06
3768.74	8.78926e-09
3777.42	1.24121e-06
3786.09	1.27753e-06
3794.77	6.98717e-07
3803.45	6.73688e-07
3812.13	8.23222e-07
3820.81	-6.0005e-06
3829.49	5.92547e-08
3838.16	-1.04412e-05
3846.84	5.8434e-07
3855.52	-1.53492e-06
3864.2	-1.77921e-06
3872.88	1.44179e-07
3881.55	-2.10337e-06
3890.23	-1.75715e-06
3898.91	-1.79295e-06
3907.59	-5.4377e-07
3916.27	-1.53824e-06
3924.95	-1.57287e-06
3933.62	-1.25937e-06
3942.3	-9.82301e-07
3950.98	-9.45573e-07
3959.66	3.23107e-07
3968.34	1.52083e-06
