Infrared Spectrum: Sulfur hexafluoride
Formula: S F6
CAS: 2551-62-4
State: gas
Melting point: -50.5 C
Boiling point: -63.9 C (sublimes)
Class: IUPAC A
Instrument: IFS66V (Bruker)
Instrument parameters: KBr Beam Splitter; MCT Detector; Multipass cell
Sampling: 1 L/min Flow
Resolution: 0.1250
Temperature: 23 C
Pressure: 101.3 Pa
Origin: NIST, Analytical Chemistry Division, 301-975-3108
cm-1	(micromol/mol)-1m-1 (base 10)
575.049	9.74804e-06
583.607	7.32803e-06
592.164	4.04546e-05
600.722	0.0002782
609.28	0.000203213
617.837	0.000115014
626.395	0.000451619
634.953	0.000127552
643.51	7.76802e-06
652.068	-3.9685e-06
660.625	-8.28751e-07
669.183	1.37927e-06
677.741	-4.1554e-07
686.298	-5.50464e-06
694.856	4.02117e-06
703.414	2.34749e-06
711.971	-9.87482e-07
720.529	-1.78515e-06
729.087	2.3334e-06
737.644	2.15284e-06
746.202	2.13014e-06
754.76	1.58265e-07
763.317	-1.44621e-06
771.875	-3.27199e-06
780.432	-8.62861e-07
788.99	-1.38568e-06
797.548	-2.20564e-06
806.105	2.5405e-06
814.663	1.94353e-06
823.221	2.00808e-06
831.778	5.44818e-07
840.336	-1.53317e-07
848.894	4.88002e-06
857.451	1.03469e-05
866.009	1.4436e-05
874.567	9.7729e-06
883.124	2.61918e-05
891.682	1.15151e-05
900.239	2.02589e-06
908.797	4.02181e-06
917.355	2.87669e-05
925.912	0.000715167
934.47	0.000804222
943.028	0.0150061
951.585	0.00482697
960.143	3.99319e-05
968.701	2.39373e-05
977.258	5.63238e-05
985.816	0.000138385
994.374	0.000104097
1002.93	1.01532e-05
1011.49	1.69906e-07
1020.05	-7.59776e-07
1028.6	1.87188e-06
1037.16	1.72258e-06
1045.72	-3.40162e-07
1054.28	4.07507e-07
1062.83	-1.788e-06
1071.39	-2.66879e-07
1079.95	6.39928e-07
1088.51	-2.91809e-06
1097.07	-1.04831e-07
1105.62	-1.92584e-06
1114.18	1.78463e-07
1122.74	-6.20487e-08
1131.3	1.05721e-06
1139.85	2.33876e-07
1148.41	-6.98018e-07
1156.97	-1.02759e-06
1165.53	3.93014e-07
1174.08	-2.98835e-07
1182.64	7.75899e-08
1191.2	1.20256e-06
1199.76	6.05993e-07
1208.31	-1.25238e-06
1216.87	1.27665e-06
1225.43	1.17991e-06
1233.99	-5.08846e-07
1242.55	6.66971e-06
1251.1	1.12427e-05
1259.66	8.32814e-06
1268.22	4.98915e-06
1276.78	2.12787e-06
1285.33	1.4408e-06
1293.89	-1.0415e-06
1302.45	3.57566e-07
1311.01	-3.18392e-08
1319.56	-1.34924e-06
1328.12	7.51685e-07
1336.68	5.96622e-08
1345.24	1.24214e-07
1353.79	7.96796e-06
1362.35	-1.24289e-06
1370.91	2.18119e-06
1379.47	1.81222e-06
1388.03	1.11962e-05
1396.58	9.26714e-07
1405.14	-1.2355e-06
1413.7	-9.79042e-08
1422.26	-1.3135e-06
1430.81	-4.07216e-07
1439.37	9.30206e-07
1447.93	-6.00033e-06
1456.49	-1.2653e-05
1465.04	-5.3934e-06
1473.6	-1.09944e-05
1482.16	8.13734e-08
1490.72	-5.30755e-06
1499.27	4.53258e-07
1507.83	-2.16827e-06
1516.39	-8.06225e-07
1524.95	-1.73905e-06
1533.51	-2.06978e-06
1542.06	-1.51885e-05
1550.62	2.19068e-06
1559.18	6.67337e-06
1567.74	2.14685e-05
1576.29	1.42348e-05
1584.85	4.8181e-05
1593.41	3.43984e-05
1601.97	1.60069e-05
1610.52	5.46954e-06
1619.08	1.40733e-06
1627.64	-1.41746e-06
1636.2	7.48775e-07
1644.75	-8.79682e-07
1653.31	-3.42519e-05
1661.87	-1.19348e-06
1670.43	-1.50529e-06
1678.99	-5.26366e-07
1687.54	-4.67693e-07
1696.1	-1.3617e-05
1704.66	2.43381e-06
1713.22	4.17807e-05
1721.77	4.87892e-05
1730.33	-1.32229e-06
1738.89	-2.66728e-06
1747.45	-2.14435e-07
1756	-1.72747e-06
1764.56	3.89754e-07
1773.12	-1.56472e-06
1781.68	-2.68975e-07
1790.23	-3.83759e-07
1798.79	5.50056e-08
1807.35	-3.25319e-07
1815.91	-4.69148e-07
1824.47	1.20838e-07
1833.02	-7.99473e-07
1841.58	-7.24328e-07
1850.14	-2.33072e-06
1858.7	-2.03224e-06
1867.25	-2.50022e-06
1875.81	-4.0948e-06
1884.37	-7.5885e-06
1892.93	-1.04076e-05
1901.48	-4.58491e-06
1910.04	-2.15046e-06
1918.6	-1.08166e-06
1927.16	-1.20122e-06
1935.71	-1.57875e-06
1944.27	1.19441e-07
1952.83	4.06867e-08
1961.39	-1.31885e-06
1969.95	-4.29568e-07
1978.5	-8.43478e-07
1987.06	-4.33933e-07
1995.62	1.25494e-07
2004.18	-1.70547e-07
2012.73	-7.93827e-07
2021.29	-1.41111e-06
2029.85	-1.58824e-06
2038.41	-3.33526e-07
2046.96	7.56924e-07
2055.52	-1.31816e-06
2064.08	-1.09883e-06
2072.64	-1.80704e-06
2081.19	-8.92546e-07
2089.75	-9.28926e-07
2098.31	-1.30605e-06
2106.87	-8.35736e-07
2115.43	1.433e-06
2123.98	1.05448e-06
2132.54	-3.13736e-08
2141.1	-9.83e-07
2149.66	-1.51396e-07
2158.21	4.07699e-06
2166.77	-4.97088e-08
2175.33	-9.00986e-07
2183.89	-2.90977e-07
2192.44	6.22116e-07
2201	-4.49067e-07
2209.56	1.26094e-06
2218.12	9.58495e-07
2226.67	1.0195e-06
2235.23	-8.9371e-07
2243.79	-1.50523e-07
2252.35	-8.53489e-07
2260.9	-4.85737e-07
2269.46	-1.17695e-06
2278.02	-3.27996e-07
2286.58	-1.15657e-07
2295.14	-5.18159e-07
2303.69	-8.59077e-07
2312.25	-9.80031e-07
2320.81	-3.29556e-06
2329.37	-9.87249e-07
2337.92	-5.38281e-06
2346.48	-1.90343e-06
2355.04	-2.32485e-06
2363.6	-4.4898e-06
2372.15	-2.28049e-06
2380.71	-2.83253e-06
2389.27	-1.16624e-06
2397.83	-9.24385e-07
2406.38	-7.12919e-07
2414.94	-6.68857e-07
2423.5	-1.58306e-06
2432.06	-1.20232e-06
2440.62	-1.56606e-06
2449.17	-9.59601e-07
2457.73	-1.81716e-06
2466.29	-4.49242e-07
2474.85	-1.57764e-06
2483.4	-1.97438e-07
2491.96	-1.61815e-07
2500.52	-7.7881e-08
2509.08	-6.64549e-07
2517.63	-1.53899e-06
2526.19	-5.60475e-07
2534.75	-1.26379e-06
2543.31	-1.02054e-06
2551.86	-5.77996e-07
2560.42	-5.03083e-07
2568.98	-1.09726e-06
2577.54	-1.41705e-06
2586.1	-1.61879e-06
2594.65	-1.81868e-06
2603.21	-1.46199e-06
2611.77	-1.69662e-06
2620.33	-1.57287e-06
2628.88	-7.21418e-07
2637.44	-1.77159e-06
2646	-7.85038e-07
2654.56	-8.49182e-07
2663.11	-1.32607e-06
2671.67	-1.25983e-06
2680.23	-2.79487e-06
2688.79	-1.69365e-06
2697.34	-1.77211e-06
2705.9	-1.55436e-06
2714.46	-1.67735e-06
2723.02	-1.30582e-06
2731.58	-1.57776e-06
2740.13	-2.16303e-06
2748.69	-1.74068e-06
2757.25	-6.31255e-07
2765.81	-1.39179e-06
2774.36	-1.14656e-06
2782.92	-1.85837e-06
2791.48	-1.41711e-06
2800.04	-2.61315e-06
2808.59	-1.34243e-06
2817.15	-1.12927e-06
2825.71	-2.09714e-06
2834.27	-7.22582e-07
2842.82	-1.25937e-06
2851.38	-1.92124e-06
2859.94	-2.15191e-06
2868.5	-1.43399e-06
2877.06	-6.93478e-07
2885.61	-2.56373e-06
2894.17	-3.24952e-06
2902.73	-6.54421e-07
2911.29	-4.31547e-07
2919.84	-5.72873e-07
2928.4	-1.13335e-06
2936.96	-8.73862e-07
2945.52	6.0058e-07
2954.07	-1.54831e-08
2962.63	1.75046e-06
2971.19	6.33874e-08
2979.75	-3.32653e-07
2988.3	-7.59077e-07
2996.86	-2.58043e-06
3005.42	-3.43596e-07
3013.98	1.09889e-06
3022.54	-2.08765e-06
3031.09	-9.06865e-07
3039.65	7.83466e-08
3048.21	3.20488e-07
3056.77	-7.12279e-07
3065.32	3.08322e-07
3073.88	-3.86145e-07
3082.44	-8.75433e-08
3091	-1.16932e-06
3099.55	-1.12229e-06
3108.11	-2.67927e-07
3116.67	2.20313e-07
3125.23	-1.76286e-06
3133.78	-2.31955e-06
3142.34	-6.99357e-07
3150.9	-1.50453e-06
3159.46	-7.37832e-07
3168.02	-1.2692e-06
3176.57	5.03491e-07
3185.13	-3.94876e-07
3193.69	-6.25085e-07
3202.25	-9.16469e-07
3210.8	3.37019e-08
3219.36	-9.02092e-07
3227.92	1.20046e-06
3236.48	6.73106e-07
3245.03	-2.03585e-06
3253.59	-4.15482e-07
3262.15	-1.98381e-06
3270.71	-2.41559e-07
3279.26	-1.11973e-06
3287.82	1.28987e-07
3296.38	9.59135e-07
3304.94	8.78984e-07
3313.5	1.35995e-06
3322.05	3.09312e-07
3330.61	-1.52712e-06
3339.17	1.03777e-06
3347.73	5.27123e-07
3356.28	-2.10698e-06
3364.84	-1.14953e-06
3373.4	9.00812e-07
3381.96	-8.10241e-07
3390.51	-1.52933e-06
3399.07	-2.04633e-06
3407.63	2.82944e-07
3416.19	-9.85037e-07
3424.74	-4.2398e-07
3433.3	1.31757e-06
3441.86	-1.22386e-06
3450.42	9.74094e-07
3458.98	1.74633e-06
3467.53	-2.07683e-07
3476.09	-3.4703e-07
3484.65	-1.92811e-06
3493.21	-1.27136e-06
3501.76	-7.26074e-07
3510.32	-1.55762e-06
3518.88	-1.03731e-06
3527.44	-2.21693e-06
3535.99	-7.96272e-07
3544.55	-2.04563e-06
3553.11	-1.72584e-06
3561.67	-5.04596e-07
3570.22	-2.00389e-06
3578.78	-9.67924e-07
3587.34	-2.97438e-08
3595.9	-2.29103e-07
3604.46	-1.461e-08
3613.01	-8.50986e-07
3621.57	-1.08189e-06
3630.13	-2.13864e-06
3638.69	-1.24633e-06
3647.24	-2.41134e-06
3655.8	-1.1958e-06
3664.36	-6.09951e-07
3672.92	-2.63014e-06
3681.47	-1.40395e-06
3690.03	-1.75122e-06
3698.59	-2.31559e-06
3707.15	-2.13742e-06
3715.7	7.04014e-07
3724.26	-1.84941e-06
3732.82	-1.64446e-06
3741.38	-2.03375e-06
3749.94	-1.77304e-06
3758.49	1.07712e-06
3767.05	4.26017e-07
3775.61	-2.15366e-08
3784.17	-4.15598e-08
3792.72	-3.99824e-07
3801.28	-1.62172e-05
3809.84	-7.57622e-07
3818.4	2.85156e-07
3826.95	-3.75843e-07
3835.51	-2.88823e-07
3844.07	-2.23998e-06
3852.63	-9.20602e-07
3861.18	-1.30675e-07
3869.74	-4.82187e-06
3878.3	-2.26705e-06
3886.86	-2.18317e-06
3895.42	-4.20924e-06
3903.97	-4.91477e-06
3912.53	-9.53081e-07
3921.09	-2.76483e-07
3929.65	-2.28247e-06
3938.2	-1.88608e-06
3946.76	-2.43363e-06
3955.32	-1.33981e-06
3963.88	4.84224e-07
3972.43	1.7433e-07
