Infrared Spectrum: Sulfur hexafluoride
Formula: S F6
CAS: 2551-62-4
State: gas
Melting point: -50.5 C
Boiling point: -63.9 C (sublimes)
Class: IUPAC A
Instrument: IFS66V (Bruker)
Instrument parameters: KBr Beam Splitter; MCT Detector; Multipass cell
Sampling: 1 L/min Flow
Resolution: 0.1250
Temperature: 23 C
Pressure: 101.3 Pa
Origin: NIST, Analytical Chemistry Division, 301-975-3108
cm-1	(micromol/mol)-1m-1 (base 10)
575.049	1.21003e-05
583.607	8.69112e-06
592.164	4.06344e-05
600.722	0.000277516
609.28	0.000203858
617.837	0.000116183
626.395	0.000446949
634.953	0.000130249
643.51	7.39968e-06
652.068	-3.66413e-06
660.625	-8.35911e-07
669.183	1.04889e-07
677.741	-7.60765e-07
686.298	-5.61797e-06
694.856	3.78654e-06
703.414	2.82409e-06
711.971	-1.19284e-06
720.529	-1.24086e-06
729.087	2.48113e-06
737.644	1.4947e-06
746.202	2.46629e-06
754.76	7.14491e-07
763.317	-1.5738e-06
771.875	-3.14335e-06
780.432	-5.73048e-07
788.99	-1.78562e-06
797.548	-2.36128e-06
806.105	3.46099e-06
814.663	2.41239e-06
823.221	1.34284e-06
831.778	6.87832e-07
840.336	-7.22e-07
848.894	5.37856e-06
857.451	1.04295e-05
866.009	1.42225e-05
874.567	1.04864e-05
883.124	2.63358e-05
891.682	1.09585e-05
900.239	2.11513e-06
908.797	4.22513e-06
917.355	2.86793e-05
925.912	0.000715538
934.47	0.000803714
943.028	0.0150028
951.585	0.00482073
960.143	3.97912e-05
968.701	2.39564e-05
977.258	5.61518e-05
985.816	0.000138775
994.374	0.00010374
1002.93	1.00699e-05
1011.49	-2.4738e-07
1020.05	-1.15954e-06
1028.6	1.88055e-06
1037.16	1.73422e-06
1045.72	-9.56341e-08
1054.28	1.44179e-07
1062.83	-2.21233e-06
1071.39	-3.35913e-07
1079.95	7.56807e-07
1088.51	-3.47275e-06
1097.07	-2.29976e-07
1105.62	-1.80372e-06
1114.18	-9.6158e-08
1122.74	-1.95925e-07
1131.3	1.17671e-06
1139.85	1.16356e-07
1148.41	-5.52152e-07
1156.97	-1.41752e-06
1165.53	6.1682e-07
1174.08	-2.50989e-07
1182.64	2.8795e-07
1191.2	9.62686e-07
1199.76	5.53432e-07
1208.31	-1.62124e-06
1216.87	1.28189e-06
1225.43	1.35884e-06
1233.99	-8.16644e-07
1242.55	6.75853e-06
1251.1	1.13283e-05
1259.66	7.89543e-06
1268.22	5.0345e-06
1276.78	2.31606e-06
1285.33	1.42985e-06
1293.89	-1.18323e-06
1302.45	5.74503e-07
1311.01	-9.23163e-08
1319.56	-1.37974e-06
1328.12	1.09359e-06
1336.68	-3.55063e-08
1345.24	3.41966e-07
1353.79	7.7399e-06
1362.35	-1.03271e-06
1370.91	2.39528e-06
1379.47	1.74924e-06
1388.03	1.16261e-05
1396.58	7.87308e-07
1405.14	-1.1706e-06
1413.7	3.71361e-08
1422.26	-1.27089e-06
1430.81	-2.90511e-07
1439.37	9.11929e-07
1447.93	-6.33263e-06
1456.49	-1.36178e-05
1465.04	-5.05848e-06
1473.6	-1.06913e-05
1482.16	7.2817e-08
1490.72	-5.36546e-06
1499.27	6.02675e-07
1507.83	-2.33288e-06
1516.39	-7.05469e-07
1524.95	-1.80255e-06
1533.51	-1.99889e-06
1542.06	-1.50125e-05
1550.62	2.22159e-06
1559.18	6.73874e-06
1567.74	2.12592e-05
1576.29	1.48164e-05
1584.85	4.77365e-05
1593.41	3.45084e-05
1601.97	1.60782e-05
1610.52	5.33816e-06
1619.08	1.45285e-06
1627.64	-1.50017e-06
1636.2	6.33409e-07
1644.75	-8.18041e-07
1653.31	-3.55504e-05
1661.87	-1.21757e-06
1670.43	-1.69371e-06
1678.99	-3.91326e-07
1687.54	-3.77938e-07
1696.1	-1.28449e-05
1704.66	2.89725e-06
1713.22	4.15725e-05
1721.77	4.88019e-05
1730.33	-1.1915e-06
1738.89	-2.8614e-06
1747.45	-2.29219e-07
1756	-2.08992e-06
1764.56	4.54655e-07
1773.12	-1.561e-06
1781.68	-3.1845e-07
1790.23	-5.1618e-07
1798.79	5.19206e-08
1807.35	-3.38124e-07
1815.91	-6.89346e-07
1824.47	2.12863e-07
1833.02	-9.60474e-07
1841.58	-7.4406e-07
1850.14	-2.41384e-06
1858.7	-1.95482e-06
1867.25	-2.64603e-06
1875.81	-4.2292e-06
1884.37	-7.47942e-06
1892.93	-1.03873e-05
1901.48	-4.59509e-06
1910.04	-2.29784e-06
1918.6	-9.64781e-07
1927.16	-1.13707e-06
1935.71	-1.45849e-06
1944.27	2.766e-07
1952.83	1.46914e-07
1961.39	-1.44027e-06
1969.95	-4.0774e-07
1978.5	-7.23571e-07
1987.06	-4.07391e-07
1995.62	-4.07449e-09
2004.18	-2.1036e-07
2012.73	-8.71883e-07
2021.29	-1.71292e-06
2029.85	-1.69778e-06
2038.41	-2.07974e-07
2046.96	8.14898e-07
2055.52	-1.44871e-06
2064.08	-1.26821e-06
2072.64	-1.7284e-06
2081.19	-1.04831e-06
2089.75	-1.09901e-06
2098.31	-1.36513e-06
2106.87	-8.01045e-07
2115.43	1.19837e-06
2123.98	9.69729e-07
2132.54	-6.59485e-08
2141.1	-1.0837e-06
2149.66	-8.18972e-08
2158.21	3.83724e-06
2166.77	4.24911e-08
2175.33	-9.78576e-07
2183.89	-3.52793e-07
2192.44	7.20253e-07
2201	-4.55179e-07
2209.56	1.17025e-06
2218.12	9.97959e-07
2226.67	7.9406e-07
2235.23	-1.05395e-06
2243.79	-2.04539e-07
2252.35	-7.85911e-07
2260.9	-3.02793e-07
2269.46	-1.35832e-06
2278.02	-1.51862e-07
2286.58	1.45226e-07
2295.14	-5.66296e-07
2303.69	-1.15331e-06
2312.25	-1.01664e-06
2320.81	-3.21809e-06
2329.37	-5.93653e-07
2337.92	-5.32868e-06
2346.48	-1.87077e-06
2355.04	-2.13899e-06
2363.6	-4.75091e-06
2372.15	-2.36955e-06
2380.71	-3.04102e-06
2389.27	-1.11426e-06
2397.83	-9.07156e-07
2406.38	-7.09718e-07
2414.94	-5.56226e-07
2423.5	-1.72817e-06
2432.06	-1.22089e-06
2440.62	-1.88532e-06
2449.17	-1.02462e-06
2457.73	-1.80069e-06
2466.29	-4.02385e-07
2474.85	-1.82031e-06
2483.4	5.15714e-08
2491.96	1.33876e-08
2500.52	-4.12106e-08
2509.08	-5.50987e-07
2517.63	-1.50523e-06
2526.19	-3.47612e-07
2534.75	-1.36891e-06
2543.31	-1.00174e-06
2551.86	-4.8079e-07
2560.42	-4.15423e-07
2568.98	-1.03085e-06
2577.54	-1.36356e-06
2586.1	-1.5837e-06
2594.65	-2.0706e-06
2603.21	-1.59516e-06
2611.77	-1.7834e-06
2620.33	-1.65616e-06
2628.88	-4.65947e-07
2637.44	-1.81839e-06
2646	-7.62221e-07
2654.56	-8.78227e-07
2663.11	-1.27491e-06
2671.67	-9.49007e-07
2680.23	-3.03264e-06
2688.79	-1.83847e-06
2697.34	-1.9022e-06
2705.9	-1.65698e-06
2714.46	-1.66565e-06
2723.02	-9.99531e-07
2731.58	-1.81198e-06
2740.13	-2.50494e-06
2748.69	-1.68765e-06
2757.25	-2.96506e-07
2765.81	-1.58893e-06
2774.36	-9.56166e-07
2782.92	-1.77479e-06
2791.48	-1.30977e-06
2800.04	-2.60686e-06
2808.59	-1.59563e-06
2817.15	-1.02252e-06
2825.71	-2.28806e-06
2834.27	-7.23397e-07
2842.82	-9.00812e-07
2851.38	-2.08637e-06
2859.94	-2.23433e-06
2868.5	-1.83177e-06
2877.06	-5.58438e-07
2885.61	-2.68713e-06
2894.17	-3.57991e-06
2902.73	-7.04421e-07
2911.29	-4.90976e-07
2919.84	-4.17752e-07
2928.4	-9.86958e-07
2936.96	-9.8236e-07
2945.52	5.85155e-07
2954.07	1.37252e-07
2962.63	1.84551e-06
2971.19	-4.58671e-08
2979.75	-5.46098e-07
2988.3	-8.24328e-07
2996.86	-2.73358e-06
3005.42	-8.00928e-08
3013.98	1.08748e-06
3022.54	-2.2809e-06
3031.09	-1.30913e-06
3039.65	-7.08379e-08
3048.21	4.38241e-07
3056.77	-5.66121e-07
3065.32	3.23689e-07
3073.88	-3.6263e-07
3082.44	-2.0908e-07
3091	-1.49324e-06
3099.55	-1.30261e-06
3108.11	5.33176e-08
3116.67	1.71769e-07
3125.23	-2.11419e-06
3133.78	-2.44848e-06
3142.34	-8.9243e-07
3150.9	-1.66734e-06
3159.46	-6.08089e-07
3168.02	-1.70261e-06
3176.57	3.29335e-07
3185.13	-1.65191e-07
3193.69	-3.99649e-07
3202.25	-8.47145e-07
3210.8	3.6845e-08
3219.36	-6.33118e-07
3227.92	1.31327e-06
3236.48	8.62861e-07
3245.03	-2.12182e-06
3253.59	-6.90451e-07
3262.15	-2.11617e-06
3270.71	-2.47613e-07
3279.26	-1.016e-06
3287.82	-8.96388e-08
3296.38	7.80789e-07
3304.94	6.54771e-07
3313.5	1.45436e-06
3322.05	4.71011e-07
3330.61	-1.71396e-06
3339.17	1.01944e-06
3347.73	1.1511e-06
3356.28	-1.91449e-06
3364.84	-1.10716e-06
3373.4	1.35162e-06
3381.96	-8.45573e-07
3390.51	-1.68771e-06
3399.07	-2.3518e-06
3407.63	-7.44468e-08
3416.19	-1.34883e-06
3424.74	-8.53315e-08
3433.3	1.7107e-06
3441.86	-9.40101e-07
3450.42	1.3348e-06
3458.98	2.24033e-06
3467.53	-3.78869e-07
3476.09	-7.6775e-07
3484.65	-2.34138e-06
3493.21	-1.06845e-06
3501.76	-5.77413e-07
3510.32	-1.90966e-06
3518.88	-1.22828e-06
3527.44	-2.38951e-06
3535.99	-4.11174e-07
3544.55	-2.08986e-06
3553.11	-1.60465e-06
3561.67	-2.81838e-07
3570.22	-2.38492e-06
3578.78	-7.28228e-07
3587.34	4.47321e-07
3595.9	-2.85855e-07
3604.46	-3.30499e-07
3613.01	-7.09718e-07
3621.57	-8.82011e-07
3630.13	-2.04248e-06
3638.69	-1.15157e-06
3647.24	-2.16402e-06
3655.8	-1.09097e-06
3664.36	-7.60707e-07
3672.92	-2.90657e-06
3681.47	-1.51536e-06
3690.03	-1.61635e-06
3698.59	-2.37915e-06
3707.15	-2.51216e-06
3715.7	7.50521e-07
3724.26	-2.04557e-06
3732.82	-1.7089e-06
3741.38	-1.65023e-06
3749.94	-1.97712e-06
3758.49	1.38067e-06
3767.05	5.27588e-07
3775.61	9.674e-08
3784.17	2.86844e-07
3792.72	-4.19323e-07
3801.28	-1.60019e-05
3809.84	-8.99182e-07
3818.4	8.78111e-07
3826.95	-1.29743e-07
3835.51	-2.14609e-07
3844.07	-2.20069e-06
3852.63	-8.31312e-07
3861.18	9.53431e-08
3869.74	-4.85342e-06
3878.3	-1.94685e-06
3886.86	-2.31705e-06
3895.42	-4.13328e-06
3903.97	-4.66931e-06
3912.53	-8.93361e-07
3921.09	-8.88239e-08
3929.65	-2.17677e-06
3938.2	-1.99068e-06
3946.76	-2.32083e-06
3955.32	-1.5146e-06
3963.88	5.63327e-07
3972.43	6.41208e-07
