Infrared Spectrum: AMINOGUANIDINE BICARBONATE
Formula: C H6 N4  * H2 C O3
CAS: 2582-30-1
State: SOLID (ARNEEL C MULL)
Class: COBLENTZ
Instrument: PERKIN-ELMER
Sampling: TRANSMISSION
Resolution: 4
MICROMETERS	TRANSMITTANCE
2.018	0.66
2.05471	0.673
2.09141	0.681
2.12812	0.689
2.16483	0.702
2.20153	0.712
2.23824	0.725
2.27495	0.733
2.31165	0.75
2.34836	0.774
2.38507	0.785
2.42177	0.796
2.45848	0.81
2.49519	0.822
2.53189	0.834
2.5686	0.836
2.60531	0.849
2.64202	0.863
2.67872	0.869
2.71543	0.88
2.75214	0.879
2.78884	0.839
2.82555	0.748
2.86226	0.566
2.89896	0.396
2.93567	0.272
2.97238	0.199
3.00908	0.174
3.04579	0.209
3.0825	0.192
3.1192	0.191
3.15591	0.188
3.19262	0.169
3.22932	0.18
3.26603	0.186
3.30274	0.185
3.33944	0.192
3.37615	0.22
3.41286	0.231
3.44956	0.248
3.48627	0.264
3.52298	0.332
3.55968	0.439
3.59639	0.482
3.6331	0.516
3.66981	0.562
3.70651	0.581
3.74322	0.601
3.77993	0.633
3.81663	0.652
3.85334	0.672
3.89005	0.696
3.92675	0.709
3.96346	0.722
4.00017	0.73
4.03687	0.742
4.07358	0.747
4.11029	0.759
4.14699	0.773
4.1837	0.784
4.22041	0.784
4.25711	0.779
4.29382	0.784
4.33053	0.797
4.36723	0.814
4.40394	0.816
4.44065	0.811
4.47735	0.814
4.51406	0.81
4.55077	0.819
4.58747	0.826
4.62418	0.836
4.66089	0.846
4.6976	0.852
4.7343	0.86
4.77101	0.868
4.80772	0.874
4.84442	0.88
4.88113	0.886
4.91784	0.892
4.95454	0.894
4.99125	0.898
5.02796	0.905
5.06466	0.911
5.10137	0.917
5.13808	0.923
5.17478	0.926
5.21149	0.931
5.2482	0.931
5.2849	0.931
5.32161	0.929
5.35832	0.924
5.39502	0.914
5.43173	0.908
5.46844	0.897
5.50514	0.883
5.54185	0.866
5.57856	0.849
5.61526	0.828
5.65197	0.796
5.68868	0.764
5.72538	0.709
5.76209	0.632
5.7988	0.506
5.83551	0.381
5.87221	0.263
5.90892	0.199
5.94563	0.185
5.98233	0.228
6.01904	0.367
6.05575	0.356
6.09245	0.192
6.12916	0.134
6.16587	0.159
6.20257	0.163
6.23928	0.162
6.27599	0.225
6.31269	0.318
6.3494	0.375
6.38611	0.415
6.42281	0.447
6.45952	0.482
6.49623	0.503
6.53293	0.519
6.56964	0.514
6.60635	0.439
6.64305	0.373
6.67976	0.272
6.71647	0.28
6.75317	0.341
6.78988	0.347
6.82659	0.333
6.8633	0.32
6.9	0.329
6.93671	0.379
6.97342	0.404
7.01012	0.428
7.04683	0.45
7.08354	0.476
7.12024	0.48
7.15695	0.476
7.19366	0.459
7.23036	0.393
7.26707	0.341
7.30378	0.261
7.34048	0.192
7.37719	0.154
7.4139	0.145
7.4506	0.159
7.48731	0.211
7.52402	0.261
7.56072	0.321
7.59743	0.355
7.63414	0.399
7.67084	0.421
7.70755	0.45
7.74426	0.467
7.78096	0.482
7.81767	0.5
7.85438	0.503
7.89109	0.503
7.92779	0.474
7.9645	0.46
8.00121	0.491
8.03791	0.517
8.07462	0.539
8.11133	0.552
8.14803	0.565
8.18474	0.577
8.22145	0.583
8.25815	0.584
8.29486	0.592
8.33157	0.597
8.36827	0.607
8.40498	0.611
8.44169	0.611
8.47839	0.617
8.5151	0.623
8.55181	0.626
8.58851	0.632
8.62522	0.632
8.66193	0.638
8.69863	0.644
8.73534	0.644
8.77205	0.644
8.80875	0.635
8.84546	0.62
8.88217	0.592
8.91888	0.552
8.95558	0.514
8.99229	0.506
9.029	0.522
9.0657	0.575
9.10241	0.604
9.13912	0.638
9.17582	0.661
9.21253	0.676
9.24924	0.692
9.28594	0.702
9.32265	0.716
9.35936	0.722
9.39606	0.679
9.43277	0.647
9.46948	0.718
9.50618	0.738
9.54289	0.741
9.5796	0.744
9.6163	0.751
9.65301	0.756
9.68972	0.756
9.72642	0.745
9.76313	0.715
9.79984	0.635
9.83654	0.586
9.87325	0.624
9.90996	0.684
9.94666	0.716
9.98337	0.724
10.0201	0.722
10.0568	0.699
10.0935	0.683
10.1302	0.678
10.1669	0.701
10.2036	0.728
10.2403	0.744
10.277	0.759
10.3137	0.768
10.3504	0.777
10.3871	0.777
10.4239	0.784
10.4606	0.785
10.4973	0.784
10.534	0.784
10.5707	0.785
10.6074	0.788
10.6441	0.791
10.6808	0.79
10.7175	0.794
10.7542	0.796
10.7909	0.796
10.8276	0.794
10.8643	0.797
10.901	0.797
10.9377	0.799
10.9745	0.799
11.0112	0.796
11.0479	0.799
11.0846	0.797
11.1213	0.79
11.158	0.79
11.1947	0.788
11.2314	0.785
11.2681	0.785
11.3048	0.785
11.3415	0.784
11.3782	0.779
11.4149	0.777
11.4516	0.774
11.4883	0.767
11.5251	0.765
11.5618	0.758
11.5985	0.754
11.6352	0.742
11.6719	0.736
11.7086	0.725
11.7453	0.721
11.782	0.709
11.8187	0.693
11.8554	0.686
11.8921	0.663
11.9288	0.646
11.9655	0.626
12.0022	0.601
12.039	0.571
12.0757	0.535
12.1124	0.514
12.1491	0.5
12.1858	0.488
12.2225	0.491
12.2592	0.493
12.2959	0.493
12.3326	0.491
12.3693	0.485
12.406	0.48
12.4427	0.477
12.4794	0.477
12.5161	0.473
12.5528	0.47
12.5896	0.47
12.6263	0.471
12.663	0.468
12.6997	0.467
12.7364	0.464
12.7731	0.454
12.8098	0.436
12.8465	0.419
12.8832	0.41
12.9199	0.398
12.9566	0.388
12.9933	0.379
13.03	0.373
13.0667	0.37
13.1034	0.364
13.1402	0.366
13.1769	0.367
13.2136	0.366
13.2503	0.367
13.287	0.366
13.3237	0.362
13.3604	0.355
13.3971	0.358
13.4338	0.369
13.4705	0.392
13.5072	0.425
13.5439	0.467
13.5806	0.493
13.6173	0.531
13.654	0.548
13.6908	0.566
13.7275	0.571
13.7642	0.565
13.8009	0.562
13.8376	0.555
13.8743	0.554
13.911	0.548
13.9477	0.548
13.9844	0.54
14.0211	0.534
14.0578	0.52
14.0945	0.505
14.1312	0.482
14.1679	0.465
14.2047	0.445
14.2414	0.419
14.2781	0.392
14.3148	0.378
14.3515	0.356
14.3882	0.356
14.4249	0.35
14.4616	0.358
14.4983	0.364
14.535	0.375
14.5717	0.39
14.6084	0.398
14.6451	0.41
14.6818	0.416
14.7185	0.427
14.7553	0.433
14.792	0.437
14.8287	0.445
14.8654	0.456
14.9021	0.462
14.9388	0.465
14.9755	0.464
15.0122	0.47
15.0489	0.468
15.0856	0.47
15.1223	0.47
15.159	0.477
15.1957	0.477
15.2324	0.476
15.2691	0.477
15.3059	0.48
15.3426	0.48
15.3793	0.48
15.416	0.479
15.4527	0.477
