Infrared Spectrum: BENZOSELENADIAZOLE, 5,6-DIMETHYL-2,1,3-
Formula: C8 H8 N2 Se
CAS: 2626-34-8
State: SOLID (SPLIT MULL), FLUOROLUBE FOR 3800-1330 CM^-^1, NUJOL FOR 1330-400 CM^-^1, VS SCREEN
Melting point: 145 C
Class: COBLENTZ III
Instrument: BECKMAN IR-9 (GRATING)
Instrument parameters: ORDER CHANGES: 670, 1200, 2000 CM^-^1
Sampling: TRANSMISSION
Resolution: 2
Origin: DOW CHEMICAL COMPANY
1/CM	TRANSMITTANCE
401	0.4223
410	0.34
419	0.4982
428	0.6346
437	0.6871
446	0.7239
455	0.756
464	0.7839
473	0.8075
482	0.8256
491	0.8341
500	0.6078
509	0.8364
518	0.7761
527	0.8542
536	0.86
545	0.8621
554	0.8612
563	0.8606
572	0.8577
581	0.8345
590	0.8662
599	0.8678
608	0.8678
617	0.8664
626	0.8616
635	0.8701
644	0.8716
653	0.8704
662	0.8705
671	0.868
680	0.8706
689	0.8655
698	0.8413
707	0.7701
716	0.4604
725	0.729
734	0.7592
743	0.7101
752	0.1056
761	0.4032
770	0.8225
779	0.8303
788	0.8416
797	0.8477
806	0.8425
815	0.8366
824	0.8332
833	0.7465
842	0.2366
851	0.7142
860	0.7796
869	0.8
878	0.8048
887	0.8024
896	0.7996
905	0.8035
914	0.7987
923	0.7925
932	0.7856
941	0.7804
950	0.7808
959	0.7776
968	0.7714
977	0.7636
986	0.7548
995	0.7358
1004	0.5026
1013	0.6431
1022	0.6294
1031	0.718
1040	0.7208
1049	0.7356
1058	0.7358
1067	0.7278
1076	0.7201
1085	0.7138
1094	0.7094
1103	0.706
1112	0.7042
1121	0.7022
1130	0.701
1139	0.7018
1148	0.6978
1157	0.6862
1166	0.6694
1175	0.648
1184	0.6989
1193	0.7007
1202	0.6965
1211	0.6911
1220	0.6885
1229	0.6745
1238	0.6793
1247	0.6667
1256	0.664
1265	0.6546
1274	0.6314
1283	0.5239
1292	0.5221
1301	0.599
1310	0.6712
1319	0.6615
1328	0.6607
1337	0.6911
1346	0.6558
1355	0.5558
1364	0.7908
1373	0.6789
1382	0.6344
1391	0.8111
1400	0.7967
1409	0.7614
1418	0.7235
1427	0.6432
1436	0.5646
1445	0.3914
1454	0.4806
1463	0.857
1472	0.8543
1481	0.7325
1490	0.6226
1499	0.776
1508	0.7746
1517	0.8964
1526	0.8841
1535	0.877
1544	0.8705
1553	0.8627
1562	0.8545
1571	0.8463
1580	0.8381
1589	0.8289
1598	0.8089
1607	0.7892
1616	0.8045
1625	0.7919
1634	0.789
1643	0.7925
1652	0.7857
1661	0.778
1670	0.7704
1679	0.7741
1688	0.7621
1697	0.7225
1706	0.7064
1715	0.7665
1724	0.7635
1733	0.7669
1742	0.7637
1751	0.759
1760	0.7551
1769	0.7508
1778	0.7468
1787	0.7428
1796	0.7388
1805	0.7345
1814	0.7308
1823	0.7274
1832	0.7221
1841	0.715
1850	0.7082
1859	0.7012
1868	0.6939
1877	0.685
1886	0.6788
1895	0.6755
1904	0.6743
1913	0.6721
1922	0.6684
1931	0.6624
1940	0.6581
1949	0.6518
1958	0.6446
1967	0.6412
1976	0.6393
1985	0.6353
1994	0.6289
2003	0.6155
2012	0.61
2021	0.6055
2030	0.6016
2039	0.5972
2048	0.5926
2057	0.5879
2066	0.5836
2075	0.5792
2084	0.5749
2093	0.571
2102	0.5674
2111	0.5641
2120	0.5599
2129	0.5557
2138	0.5512
2147	0.5467
2156	0.5422
2165	0.5377
2174	0.5331
2183	0.528
2192	0.523
2201	0.5179
2210	0.5139
2219	0.51
2228	0.5043
2237	0.4977
2246	0.492
2255	0.4865
2264	0.4812
2273	0.4767
2282	0.4705
2291	0.4646
2300	0.4605
2309	0.4573
2318	0.4565
2327	0.4564
2336	0.4562
2345	0.4552
2354	0.4542
2363	0.4534
2372	0.4527
2381	0.4427
2390	0.4314
2399	0.4239
2408	0.4234
2417	0.4239
2426	0.4241
2435	0.422
2444	0.4188
2453	0.4154
2462	0.4122
2471	0.409
2480	0.4057
2489	0.4028
2498	0.4004
2507	0.3984
2516	0.3966
2525	0.3939
2534	0.3908
2543	0.3872
2552	0.384
2561	0.3812
2570	0.3784
2579	0.3756
2588	0.3729
2597	0.37
2606	0.367
2615	0.3639
2624	0.3609
2633	0.3577
2642	0.3546
2651	0.3512
2660	0.3476
2669	0.3442
2678	0.3412
2687	0.3384
2696	0.3357
2705	0.3332
2714	0.3306
2723	0.3279
2732	0.325
2741	0.3222
2750	0.3196
2759	0.3175
2768	0.3155
2777	0.3128
2786	0.3096
2795	0.3063
2804	0.3031
2813	0.2999
2822	0.2952
2831	0.2885
2840	0.2791
2849	0.2717
2858	0.2716
2867	0.273
2876	0.2735
2885	0.2706
2894	0.2647
2903	0.2527
2912	0.2312
2921	0.2388
2930	0.2529
2939	0.2456
2948	0.2158
2957	0.2133
2966	0.1641
2975	0.2074
2984	0.2529
2993	0.2574
3002	0.2549
3011	0.2244
3020	0.2049
3029	0.2469
3038	0.238
3047	0.242
3056	0.2531
3065	0.2498
3074	0.2458
3083	0.2418
3092	0.2397
3101	0.2395
3110	0.2398
3119	0.2396
3128	0.2392
3137	0.2374
3146	0.2353
3155	0.2332
3164	0.2312
3173	0.2293
3182	0.2274
3191	0.225
3200	0.2223
3209	0.2196
3218	0.217
3227	0.2144
3236	0.2118
3245	0.2091
3254	0.2065
3263	0.2039
3272	0.2016
3281	0.1994
3290	0.1975
3299	0.1954
3308	0.1934
3317	0.1918
3326	0.1904
3335	0.1889
3344	0.1875
3353	0.186
3362	0.1848
3371	0.1836
3380	0.1826
3389	0.1815
3398	0.1804
3407	0.1793
3416	0.1783
3425	0.1774
3434	0.1766
3443	0.1759
3452	0.1752
3461	0.1744
3470	0.1736
3479	0.1729
3488	0.172
3497	0.1709
3506	0.1698
3515	0.1686
3524	0.1676
3533	0.1665
3542	0.1654
3551	0.1644
3560	0.1634
3569	0.1622
3578	0.1607
3587	0.1592
3596	0.1578
3605	0.1563
3614	0.1551
3623	0.1542
3632	0.1535
3641	0.1527
3650	0.1519
3659	0.1508
3668	0.1498
3677	0.1487
3686	0.1477
3695	0.1468
3704	0.1459
3713	0.145
3722	0.1438
3731	0.1425
3740	0.1414
3749	0.1395
3758	0.1377
3767	0.1362
3776	0.1349
3785	0.1335
3794	0.1323
