Infrared Spectrum: BENZENE, (3-CHLOROPROPENYL)-
Formula: C9 H9 Cl
CAS: 2687-12-9
State: LIQUID (NEAT)
Class: COBLENTZ III
Instrument: PERKIN-ELMER 521 (GRATING)
Instrument parameters: FILTERS AT 3150, 2500, 2000, 1150, 700, 410 AND GRATING CHANGES AT 2000, 630 CM^-^1
Sampling: TRANSMISSION
Path length: CAPILLARY, KBr PLATES
Resolution: 4
Origin: STANDARD OIL OF OHIO
1/CM	TRANSMITTANCE
407.018	0.731
416.041	0.761
425.063	0.772
434.086	0.775
443.108	0.797
452.131	0.821
461.154	0.853
470.176	0.873
479.199	0.867
488.221	0.812
497.244	0.64
506.267	0.5905
515.289	0.853
524.312	0.882
533.334	0.906
542.357	0.913
551.379	0.913
560.402	0.91
569.425	0.896
578.447	0.903
587.47	0.885
596.492	0.7121
605.515	0.8249
614.538	0.843
623.56	0.846
632.583	0.812
641.605	0.764
650.628	0.656
659.651	0.501
668.673	0.358
677.696	0.369
686.718	0.2622
695.741	0.3339
704.764	0.6689
713.786	0.712
722.809	0.599
731.831	0.506
740.854	0.164
749.877	0.181
758.899	0.634
767.922	0.749
776.944	0.777
785.967	0.842
794.99	0.843
804.012	0.807
813.035	0.838
822.057	0.857
831.08	0.799
840.102	0.747
849.125	0.825
858.148	0.876
867.17	0.887
876.193	0.89
885.215	0.887
894.238	0.865
903.261	0.84
912.283	0.795
921.306	0.841
930.328	0.845
939.351	0.812
948.374	0.6669
957.396	0.1942
966.419	0.2989
975.441	0.652
984.464	0.714
993.487	0.791
1002.51	0.815
1011.53	0.83
1020.55	0.74
1029.58	0.7691
1038.6	0.828
1047.62	0.83
1056.64	0.77
1065.67	0.706
1074.69	0.7
1083.71	0.754
1092.74	0.816
1101.76	0.799
1110.78	0.777
1119.8	0.821
1128.83	0.842
1137.85	0.817
1146.87	0.712
1155.89	0.64
1164.92	0.776
1173.94	0.772
1182.96	0.846
1191.98	0.846
1201.01	0.826
1210.03	0.843
1219.05	0.841
1228.07	0.79
1237.1	0.6311
1246.12	0.245
1255.14	0.665
1264.16	0.799
1273.19	0.803
1282.21	0.695
1291.23	0.736
1300.25	0.589
1309.28	0.7551
1318.3	0.786
1327.32	0.822
1336.35	0.826
1345.37	0.876
1354.39	0.88
1363.41	0.876
1372.44	0.861
1381.46	0.863
1390.48	0.875
1399.5	0.87
1408.53	0.877
1417.55	0.856
1426.57	0.8
1435.59	0.528
1444.62	0.626
1453.64	0.751
1462.66	0.865
1471.68	0.852
1480.71	0.7249
1489.73	0.6249
1498.75	0.6459
1507.77	0.87
1516.8	0.886
1525.82	0.885
1534.84	0.883
1543.86	0.893
1552.89	0.896
1561.91	0.887
1570.93	0.846
1579.96	0.851
1588.98	0.846
1598	0.796
1607.02	0.872
1616.05	0.882
1625.07	0.881
1634.09	0.873
1643.11	0.8219
1652.14	0.6991
1661.16	0.853
1670.18	0.88
1679.2	0.888
1688.23	0.891
1697.25	0.891
1706.27	0.888
1715.29	0.882
1724.32	0.883
1733.34	0.881
1742.36	0.872
1751.38	0.863
1760.41	0.873
1769.43	0.877
1778.45	0.878
1787.47	0.88
1796.5	0.857
1805.52	0.843
1814.54	0.851
1823.57	0.871
1832.59	0.888
1841.61	0.893
1850.63	0.896
1859.66	0.891
1868.68	0.872
1877.7	0.85
1886.72	0.861
1895.75	0.868
1904.77	0.882
1913.79	0.892
1922.81	0.89
1931.84	0.882
1940.86	0.866
1949.88	0.841
1958.9	0.835
1967.93	0.868
1976.95	0.881
1985.97	0.891
1994.99	0.895
2004.02	0.897
2013.04	0.897
2022.06	0.896
2031.08	0.898
2040.11	0.9
2049.13	0.899
2058.15	0.898
2067.18	0.901
2076.2	0.901
2085.22	0.9
2094.24	0.9
2103.27	0.9
2112.29	0.901
2121.31	0.9
2130.33	0.9
2139.36	0.9
2148.38	0.901
2157.4	0.901
2166.42	0.901
2175.45	0.9015
2184.47	0.9
2193.49	0.901
2202.51	0.8999
2211.54	0.8965
2220.56	0.896
2229.58	0.896
2238.6	0.895
2247.63	0.896
2256.65	0.8971
2265.67	0.898
2274.69	0.898
2283.72	0.898
2292.74	0.8969
2301.76	0.8924
2310.79	0.891
2319.81	0.8914
2328.83	0.891
2337.85	0.891
2346.88	0.893
2355.9	0.893
2364.92	0.896
2373.94	0.898
2382.97	0.9009
2391.99	0.9
2401.01	0.898
2410.03	0.901
2419.06	0.902
2428.08	0.901
2437.1	0.901
2446.12	0.901
2455.15	0.902
2464.17	0.8987
2473.19	0.902
2482.21	0.9
2491.24	0.9
2500.26	0.898
2509.28	0.8983
2518.3	0.9
2527.33	0.9009
2536.35	0.9014
2545.37	0.901
2554.4	0.902
2563.42	0.9019
2572.44	0.9006
2581.46	0.9009
2590.49	0.9
2599.51	0.901
2608.53	0.901
2617.55	0.8997
2626.58	0.9013
2635.6	0.903
2644.62	0.902
2653.64	0.902
2662.67	0.902
2671.69	0.8978
2680.71	0.892
2689.73	0.8983
2698.76	0.9
2707.78	0.901
2716.8	0.901
2725.82	0.9
2734.85	0.9
2743.87	0.9
2752.89	0.9
2761.91	0.898
2770.94	0.8953
2779.96	0.8962
2788.98	0.8963
2798.01	0.8928
2807.03	0.891
2816.05	0.8896
2825.07	0.8813
2834.1	0.8716
2843.12	0.8564
2852.14	0.842
2861.16	0.8506
2870.19	0.8702
2879.21	0.871
2888.23	0.867
2897.25	0.866
2906.28	0.8603
2915.3	0.8419
2924.32	0.7888
2933.34	0.7753
2942.37	0.7292
2951.39	0.6767
2960.41	0.7443
2969.43	0.7805
2978.46	0.7783
2987.48	0.7693
2996.5	0.7535
3005.52	0.7332
3014.55	0.6857
3023.57	0.5508
3032.59	0.5695
3041.62	0.6514
3050.64	0.6768
3059.66	0.629
3068.68	0.7305
3077.71	0.6894
3086.73	0.767
3095.75	0.823
3104.77	0.8392
3113.8	0.8696
3122.82	0.8766
3131.84	0.88
3140.86	0.88
3149.89	0.88
3158.91	0.8836
3167.93	0.886
3176.95	0.888
3185.98	0.89
3195	0.89
3204.02	0.89
3213.04	0.8903
3222.07	0.892
3231.09	0.892
3240.11	0.8922
3249.13	0.892
3258.16	0.893
3267.18	0.893
3276.2	0.893
3285.23	0.891
3294.25	0.891
3303.27	0.893
3312.29	0.8947
3321.32	0.892
3330.34	0.892
3339.36	0.893
3348.38	0.893
3357.41	0.895
3366.43	0.892
3375.45	0.892
3384.47	0.892
3393.5	0.893
3402.52	0.8927
3411.54	0.895
3420.56	0.895
3429.59	0.893
3438.61	0.893
3447.63	0.892
3456.65	0.893
3465.68	0.895
3474.7	0.895
3483.72	0.895
3492.74	0.895
3501.77	0.895
3510.79	0.895
3519.81	0.895
3528.84	0.895
3537.86	0.893
3546.88	0.893
3555.9	0.893
3564.93	0.893
3573.95	0.895
3582.97	0.891
3591.99	0.893
3601.02	0.8921
3610.04	0.8876
3619.06	0.8909
3628.08	0.8904
3637.11	0.8861
3646.13	0.8837
3655.15	0.89
3664.17	0.8856
3673.2	0.8896
3682.22	0.885
3691.24	0.891
3700.26	0.8903
3709.29	0.8908
3718.31	0.8916
3727.33	0.89
3736.35	0.885
3745.38	0.883
3754.4	0.892
3763.42	0.893
3772.45	0.8924
3781.47	0.893
3790.49	0.892
3799.51	0.8901
3808.54	0.888
3817.56	0.887
3826.58	0.8855
3835.6	0.883
3844.63	0.8815
3853.65	0.8849
3862.67	0.881
3871.69	0.882
3880.72	0.881
3889.74	0.885
3898.76	0.8814
3907.78	0.885
3916.81	0.882
3925.83	0.885
3934.85	0.8855
3943.87	0.882
3952.9	0.881
3961.92	0.881
3970.94	0.88
3979.96	0.881
3988.99	0.8825
