Infrared Spectrum: BENZONITRILE, 3,5-BIS(TRIFLUOROMETHYL)-
Formula: C9 H3 F6 N
CAS: 27126-93-8
State: SOLUTION (10% CCl4 FOR 3800-460 CM^-^1)
Class: COBLENTZ
Instrument: DOW KBr FOREPRISM-GRATING
Instrument parameters: BLAZED AT 3.5, 12.0, 20.0 MICRON AND CHANGED AT 5.0, 7.5, 14.9 MICRON
Sampling: TRANSMISSION
Path length: 0.011 CM
Resolution: 2
Origin: DOW CHEMICAL COMPANY
1/CM	TRANSMITTANCE
460	0.6419
469	0.6446
478	0.6536
487	0.6925
496	0.7344
505	0.7608
514	0.7669
523	0.7644
532	0.7368
541	0.6483
550	0.7443
559	0.7676
568	0.7737
577	0.7776
586	0.7928
595	0.8024
604	0.8042
613	0.7958
622	0.7475
631	0.466
640	0.7815
649	0.7971
658	0.7915
667	0.7751
676	0.7635
685	0.0051
694	0.502
703	0.2844
712	0.5797
721	0.3396
730	0.1752
739	0.0001
748	0.0001
757	0.0001
766	0.0001
775	0
784	0
793	0
802	0
811	0.0105
820	0.1122
829	0.3656
838	0.558
847	0.4574
856	0.4535
865	0.7272
874	0.7554
883	0.7305
892	0.0872
901	0.4488
910	0.361
919	0.7586
928	0.7418
937	0.8089
946	0.8158
955	0.808
964	0.7657
973	0.6889
982	0.6704
991	0.6965
1000	0.6551
1009	0.6238
1018	0.6942
1027	0.8178
1036	0.8358
1045	0.834
1054	0.8221
1063	0.7907
1072	0.7875
1081	0.7905
1090	0.7825
1099	0.7345
1108	0.436
1117	0.4738
1126	0.5458
1135	0.2689
1144	0
1153	0.0001
1162	0.009
1171	0.0407
1180	0.0001
1189	0
1198	0.0148
1207	0.3564
1216	0.4537
1225	0.4635
1234	0.5244
1243	0.536
1252	0.4823
1261	0.3877
1270	0.2322
1279	0.0001
1288	0.0448
1297	0.4248
1306	0.6298
1315	0.6905
1324	0.6417
1333	0.7624
1342	0.6937
1351	0.7174
1360	0.5393
1369	0.2253
1378	0
1387	0.3377
1396	0.7358
1405	0.7822
1414	0.7858
1423	0.8346
1432	0.8394
1441	0.8245
1450	0.7482
1459	0.6842
1468	0.6858
1477	0.7946
1486	0.8008
1495	0.8038
1504	0.7565
1513	0.7019
1522	0.649
1531	0.6126
1540	0.5399
1549	0.464
1558	0.4533
1567	0.5254
1576	0.5885
1585	0.6216
1594	0.6556
1603	0.7312
1612	0.7607
1621	0.4637
1630	0.7507
1639	0.8375
1648	0.8525
1657	0.8586
1666	0.8775
1675	0.8783
1684	0.8723
1693	0.8765
1702	0.8754
1711	0.8734
1720	0.8825
1729	0.8815
1738	0.8791
1747	0.878
1756	0.879
1765	0.8821
1774	0.8766
1783	0.8709
1792	0.8747
1801	0.8704
1810	0.8563
1819	0.8212
1828	0.7442
1837	0.8386
1846	0.8075
1855	0.8317
1864	0.8608
1873	0.8611
1882	0.8706
1891	0.8756
1900	0.8713
1909	0.8716
1918	0.8836
1927	0.8849
1936	0.8814
1945	0.8771
1954	0.8735
1963	0.8798
1972	0.8778
1981	0.8733
1990	0.8697
1999	0.8636
2008	0.8564
2017	0.8757
2026	0.8799
2035	0.8787
2044	0.8768
2053	0.8788
2062	0.8845
2071	0.886
2080	0.8853
2089	0.8902
2098	0.8942
2107	0.8962
2116	0.8962
2125	0.8956
2134	0.8943
2143	0.8977
2152	0.9004
2161	0.8995
2170	0.8971
2179	0.8947
2188	0.8983
2197	0.9001
2206	0.8987
2215	0.8951
2224	0.8891
2233	0.8787
2242	0.8645
2251	0.7203
2260	0.8462
2269	0.8513
2278	0.8462
2287	0.8401
2296	0.8397
2305	0.8511
2314	0.8662
2323	0.871
2332	0.8751
2341	0.8766
2350	0.8775
2359	0.8781
2368	0.8787
2377	0.879
2386	0.8797
2395	0.8846
2404	0.8944
2413	0.893
2422	0.89
2431	0.8851
2440	0.8903
2449	0.895
2458	0.8911
2467	0.8885
2476	0.893
2485	0.8984
2494	0.8991
2503	0.8986
2512	0.8975
2521	0.8957
2530	0.8933
2539	0.8909
2548	0.8871
2557	0.8806
2566	0.8828
2575	0.8909
2584	0.8975
2593	0.8987
2602	0.8993
2611	0.8975
2620	0.8941
2629	0.8902
2638	0.8855
2647	0.8812
2656	0.8812
2665	0.8943
2674	0.8975
2683	0.8982
2692	0.8982
2701	0.8974
2710	0.8964
2719	0.8953
2728	0.8942
2737	0.8935
2746	0.8925
2755	0.8908
2764	0.8891
2773	0.8877
2782	0.8866
2791	0.8883
2800	0.8895
2809	0.889
2818	0.8886
2827	0.8881
2836	0.8877
2845	0.8874
2854	0.8871
2863	0.8864
2872	0.8847
2881	0.8825
2890	0.879
2899	0.8756
2908	0.8718
2917	0.8662
2926	0.8624
2935	0.8697
2944	0.878
2953	0.8799
2962	0.8807
2971	0.88
2980	0.8781
2989	0.8751
2998	0.8725
3007	0.8831
3016	0.8865
3025	0.8859
3034	0.8821
3043	0.8725
3052	0.8432
3061	0.8076
3070	0.8025
3079	0.7988
3088	0.7493
3097	0.6634
3106	0.8145
3115	0.8524
3124	0.8681
3133	0.8741
3142	0.8796
3151	0.8833
3160	0.8866
3169	0.8888
3178	0.8901
3187	0.8911
3196	0.8918
3205	0.8918
3214	0.8918
3223	0.8917
3232	0.8917
3241	0.8917
3250	0.8917
3259	0.8915
3268	0.8913
3277	0.8911
3286	0.8909
3295	0.8904
3304	0.89
3313	0.8896
3322	0.8889
3331	0.8882
3340	0.8874
3349	0.8866
3358	0.8859
3367	0.8851
3376	0.8842
3385	0.8834
3394	0.8817
3403	0.8795
3412	0.8777
3421	0.8765
3430	0.8765
3439	0.8775
3448	0.8814
3457	0.8838
3466	0.8842
3475	0.8843
3484	0.8843
3493	0.8843
3502	0.8844
3511	0.8845
3520	0.8848
3529	0.8851
3538	0.8854
3547	0.8858
3556	0.8865
3565	0.8871
3574	0.8874
3583	0.8875
3592	0.8878
3601	0.8875
3610	0.8871
3619	0.8867
3628	0.8864
3637	0.8862
3646	0.8865
3655	0.8884
3664	0.8906
3673	0.8842
3682	0.8777
3691	0.8797
3700	0.8836
3709	0.8852
3718	0.8855
3727	0.8853
3736	0.8843
3745	0.8832
3754	0.882
3763	0.8813
3772	0.8818
3781	0.8824
3790	0.8828
3799	0.8831
