Infrared Spectrum: Cyclooctane
Formula: C8 H16
CAS: 292-64-8
State: SOLUTION (10% CCl4 FOR 4000-1330, 10% CS2 FOR 1330-450 CM^-^1) VS SOLVENT
Class: COBLENTZ III
Instrument: CARY 90 (GRATING)
Instrument parameters: ORDER CHANGES: 3000, 2000, 1200 CM^-^1
Path length: 0.010 CM, AND 0.010 CM
Resolution: 2
Origin: WESTERN REGIONAL RES. USDA
1/CM	TRANSMITTANCE
451	0.8824
460	0.8953
469	0.913
478	0.9259
487	0.9313
496	0.9523
505	0.975
514	0.9681
523	0.9695
532	0.9875
541	1.0003
550	1.0014
559	1.0054
568	1.0118
577	1.0193
586	1.0274
595	1.0339
604	1.0399
613	1.0422
622	1.0418
631	1.0378
640	1.0333
649	1.0285
658	1.0234
667	1.0181
676	1.0129
685	1.0081
694	0.9922
703	0.9776
712	0.9952
721	0.9927
730	0.9905
739	0.9957
748	0.9903
757	0.9471
766	0.6778
775	0.9479
784	0.9866
793	0.8837
802	1.004
811	1.0255
820	1.0315
829	1.0318
838	1.029
847	0.9964
856	0.8835
865	0.9806
874	0.9574
883	1.0032
892	1.0122
901	1.0154
910	1.0148
919	1.0109
928	1.004
937	0.9917
946	0.9654
955	0.8786
964	0.9542
973	0.9783
982	0.9603
991	0.9908
1000	0.9931
1009	0.9903
1018	0.9835
1027	0.9614
1036	0.8673
1045	0.763
1054	0.9388
1063	0.9685
1072	0.9677
1081	0.9594
1090	0.9469
1099	0.9555
1108	0.9542
1117	0.953
1126	0.943
1135	0.9
1144	0.9458
1153	0.9579
1162	0.9524
1171	0.9466
1180	0.9509
1189	0.9557
1198	0.9679
1207	0.9877
1216	0.9612
1225	0.9429
1234	0.9131
1243	0.9302
1252	0.8956
1261	0.8592
1270	0.928
1279	0.9165
1288	0.814
1297	0.891
1306	0.9433
1315	0.9409
1324	0.9339
1333	0.9167
1342	0.8956
1351	0.9007
1360	0.8048
1369	0.9146
1378	0.9303
1387	0.9335
1396	0.9377
1405	0.9339
1414	0.9219
1423	0.8988
1432	0.8449
1441	0.4878
1450	0.4025
1459	0.6594
1468	0.4832
1477	0.3743
1486	0.8476
1495	0.9105
1504	0.9236
1513	0.9263
1522	0.9257
1531	0.9204
1540	0.9087
1549	0.9013
1558	0.9133
1567	0.9175
1576	0.916
1585	0.9186
1594	0.9311
1603	0.9354
1612	0.9372
1621	0.9383
1630	0.9391
1639	0.941
1648	0.9433
1657	0.9449
1666	0.9464
1675	0.9477
1684	0.9489
1693	0.9472
1702	0.9442
1711	0.9406
1720	0.927
1729	0.9157
1738	0.9172
1747	0.9295
1756	0.9341
1765	0.9341
1774	0.9356
1783	0.9403
1792	0.9458
1801	0.9519
1810	0.9543
1819	0.9557
1828	0.9587
1837	0.9616
1846	0.9643
1855	0.9665
1864	0.969
1873	0.9672
1882	0.9628
1891	0.9625
1900	0.9626
1909	0.9629
1918	0.9632
1927	0.9637
1936	0.9641
1945	0.9642
1954	0.9635
1963	0.9629
1972	0.9623
1981	0.9617
1990	0.9629
1999	0.966
2008	0.9767
2017	0.9862
2026	0.986
2035	0.9858
2044	0.9855
2053	0.9852
2062	0.9846
2071	0.9839
2080	0.9833
2089	0.9826
2098	0.9821
2107	0.9814
2116	0.9807
2125	0.98
2134	0.9793
2143	0.9789
2152	0.9795
2161	0.9801
2170	0.9806
2179	0.9808
2188	0.981
2197	0.9812
2206	0.9806
2215	0.979
2224	0.9774
2233	0.9759
2242	0.9754
2251	0.975
2260	0.9747
2269	0.9742
2278	0.9737
2287	0.973
2296	0.9724
2305	0.9717
2314	0.971
2323	0.9702
2332	0.9693
2341	0.9684
2350	0.9674
2359	0.9663
2368	0.9652
2377	0.9642
2386	0.9632
2395	0.9622
2404	0.962
2413	0.9622
2422	0.9626
2431	0.9628
2440	0.9631
2449	0.9633
2458	0.9627
2467	0.962
2476	0.9615
2485	0.9608
2494	0.9602
2503	0.9595
2512	0.9588
2521	0.958
2530	0.9572
2539	0.9564
2548	0.9555
2557	0.953
2566	0.9506
2575	0.9481
2584	0.9457
2593	0.9432
2602	0.9412
2611	0.9396
2620	0.938
2629	0.9364
2638	0.9349
2647	0.9265
2656	0.9137
2665	0.9007
2674	0.8856
2683	0.8704
2692	0.8338
2701	0.8298
2710	0.835
2719	0.873
2728	0.909
2737	0.9157
2746	0.9286
2755	0.9312
2764	0.9302
2773	0.9264
2782	0.9165
2791	0.8875
2800	0.8558
2809	0.8299
2818	0.8065
2827	0.7471
2836	0.52
2845	0.2583
2854	0.0995
2863	0.1817
2872	0.2631
2881	0.2961
2890	0.1218
2899	0.0414
2908	0.0134
2917	0.0077
2926	0.0044
2935	0.017
2944	0.0794
2953	0.2023
2962	0.3195
2971	0.5276
2980	0.7129
2989	0.7779
2998	0.8225
3007	0.8636
3016	0.887
3025	0.903
3034	0.9105
3043	0.9167
3052	0.9232
3061	0.9298
3070	0.9349
3079	0.9389
3088	0.9402
3097	0.9409
3106	0.9416
3115	0.9424
3124	0.9432
3133	0.944
3142	0.9455
3151	0.947
3160	0.9479
3169	0.9478
3178	0.9477
3187	0.9478
3196	0.9479
3205	0.9481
3214	0.9482
3223	0.9483
3232	0.9485
3241	0.9486
3250	0.9485
3259	0.9484
3268	0.9487
3277	0.9499
3286	0.9512
3295	0.9524
3304	0.9526
3313	0.9527
3322	0.9528
3331	0.9529
3340	0.9524
3349	0.9516
3358	0.9497
3367	0.946
3376	0.9438
3385	0.943
3394	0.9423
3403	0.9426
3412	0.9431
3421	0.9435
3430	0.9441
3439	0.9447
3448	0.9453
3457	0.9456
3466	0.946
3475	0.9463
3484	0.9466
3493	0.9469
3502	0.9472
3511	0.9471
3520	0.9467
3529	0.9463
3538	0.9459
3547	0.9455
3556	0.9453
3565	0.9458
3574	0.9464
3583	0.9468
3592	0.9474
3601	0.9478
3610	0.9484
3619	0.9489
3628	0.949
3637	0.9486
3646	0.9484
3655	0.9488
3664	0.9493
3673	0.9497
3682	0.9497
3691	0.9498
3700	0.9498
3709	0.9499
3718	0.9502
3727	0.9505
3736	0.9509
3745	0.9517
3754	0.9527
3763	0.9529
3772	0.9532
3781	0.9534
3790	0.9537
3799	0.9538
3808	0.9536
3817	0.9534
3826	0.9531
3835	0.9523
3844	0.9517
3853	0.9509
3862	0.9501
3871	0.9488
3880	0.9475
3889	0.9462
3898	0.944
3907	0.9414
3916	0.9395
3925	0.9385
3934	0.938
3943	0.9384
3952	0.9378
3961	0.9372
3970	0.936
3979	0.9348
3988	0.9336
3997	0.9325
