Infrared Spectrum: CYCLODODECANE
Formula: C12 H24
CAS: 294-62-2
State: SOLID (PELLET)
Melting point: 56-57 C
Class: COBLENTZ
Instrument: Not specified, most likely a prism, grating, or hybrid spectrometer.
Sampling: TRANSMISSION
Resolution: 4
Origin: TENNESSEE EASTMAN COMPANY, RESEARCH LABORATORIES
MICROMETERS	TRANSMITTANCE
2.013	0.548
2.05274	0.553
2.09247	0.565
2.13221	0.578
2.17195	0.592
2.21169	0.6
2.25142	0.6
2.29116	0.597
2.3309	0.598
2.37063	0.613
2.41037	0.626
2.45011	0.628
2.48985	0.638
2.52958	0.653
2.56932	0.663
2.60906	0.668
2.6488	0.678
2.68853	0.679
2.72827	0.679
2.76801	0.661
2.80774	0.641
2.84748	0.623
2.88722	0.606
2.92696	0.601
2.96669	0.638
3.00643	0.666
3.04617	0.684
3.0859	0.694
3.12564	0.699
3.16538	0.718
3.20512	0.724
3.24485	0.731
3.28459	0.724
3.32433	0.65
3.36406	0.127
3.4038	0.016
3.44354	0.106
3.48328	0.063
3.52301	0.58
3.56275	0.696
3.60249	0.742
3.64222	0.752
3.68196	0.759
3.7217	0.759
3.76144	0.719
3.80117	0.734
3.84091	0.774
3.88065	0.799
3.92039	0.805
3.96012	0.809
3.99986	0.807
4.0396	0.822
4.07933	0.839
4.11907	0.84
4.15881	0.84
4.19855	0.84
4.23828	0.85
4.27802	0.849
4.31776	0.849
4.35749	0.845
4.39723	0.849
4.43697	0.85
4.47671	0.849
4.51644	0.855
4.55618	0.864
4.59592	0.862
4.63565	0.865
4.67539	0.865
4.71513	0.868
4.75487	0.868
4.7946	0.87
4.83434	0.868
4.87408	0.87
4.91381	0.872
4.95355	0.873
4.99329	0.887
5.03303	0.883
5.07276	0.883
5.1125	0.888
5.15224	0.89
5.19198	0.892
5.23171	0.892
5.27145	0.89
5.31119	0.892
5.35092	0.892
5.39066	0.895
5.4304	0.9
5.47014	0.9
5.50987	0.897
5.54961	0.9
5.58935	0.9
5.62908	0.9
5.66882	0.9
5.70856	0.9
5.7483	0.9
5.78803	0.887
5.82777	0.89
5.86751	0.893
5.90724	0.887
5.94698	0.882
5.98672	0.875
6.02646	0.868
6.06619	0.849
6.10593	0.844
6.14567	0.839
6.18541	0.842
6.22514	0.859
6.26488	0.872
6.30462	0.89
6.34435	0.89
6.38409	0.893
6.42383	0.882
6.46357	0.885
6.5033	0.878
6.54304	0.88
6.58278	0.873
6.62251	0.852
6.66225	0.832
6.70199	0.747
6.74173	0.388
6.78146	0.416
6.8212	0.678
6.86094	0.53
6.90067	0.371
6.94041	0.643
6.98015	0.814
7.01989	0.85
7.05962	0.873
7.09936	0.875
7.1391	0.878
7.17883	0.887
7.21857	0.882
7.25831	0.883
7.29805	0.87
7.33778	0.827
7.37752	0.827
7.41726	0.709
7.457	0.694
7.49673	0.844
7.53647	0.862
7.57621	0.868
7.61594	0.797
7.65568	0.835
7.69542	0.877
7.73516	0.867
7.77489	0.883
7.81463	0.892
7.85437	0.893
7.8941	0.87
7.93384	0.878
7.97358	0.842
8.01332	0.646
8.05305	0.789
8.09279	0.875
8.13253	0.888
8.17226	0.91
8.212	0.913
8.25174	0.912
8.29148	0.917
8.33121	0.92
8.37095	0.92
8.41069	0.92
8.45043	0.923
8.49016	0.922
8.5299	0.918
8.56964	0.918
8.60937	0.92
8.64911	0.92
8.68885	0.92
8.72859	0.922
8.76832	0.922
8.80806	0.922
8.8478	0.922
8.88753	0.923
8.92727	0.922
8.96701	0.922
9.00675	0.92
9.04648	0.922
9.08622	0.92
9.12596	0.918
9.16569	0.913
9.20543	0.912
9.24517	0.91
9.28491	0.9
9.32464	0.907
9.36438	0.91
9.40412	0.91
9.44385	0.907
9.48359	0.883
9.52333	0.854
9.56307	0.742
9.6028	0.845
9.64254	0.882
9.68228	0.898
9.72202	0.902
9.76175	0.903
9.80149	0.905
9.84123	0.908
9.88096	0.912
9.9207	0.913
9.96044	0.915
10.0002	0.915
10.0399	0.917
10.0796	0.917
10.1194	0.918
10.1591	0.918
10.1989	0.915
10.2386	0.903
10.2783	0.887
10.3181	0.782
10.3578	0.684
10.3975	0.837
10.4373	0.895
10.477	0.915
10.5168	0.922
10.5565	0.925
10.5962	0.927
10.636	0.928
10.6757	0.928
10.7154	0.928
10.7552	0.927
10.7949	0.933
10.8347	0.935
10.8744	0.936
10.9141	0.938
10.9539	0.94
10.9936	0.943
11.0333	0.946
11.0731	0.946
11.1128	0.948
11.1526	0.948
11.1923	0.948
11.232	0.95
11.2718	0.953
11.3115	0.955
11.3512	0.953
11.391	0.953
11.4307	0.955
11.4705	0.955
11.5102	0.955
11.5499	0.955
11.5897	0.955
11.6294	0.953
11.6691	0.953
11.7089	0.955
11.7486	0.955
11.7883	0.955
11.8281	0.953
11.8678	0.953
11.9076	0.953
11.9473	0.953
11.987	0.95
12.0268	0.936
12.0665	0.91
12.1062	0.844
12.146	0.791
12.1857	0.842
12.2255	0.902
12.2652	0.93
12.3049	0.94
12.3447	0.948
12.3844	0.951
12.4241	0.951
12.4639	0.951
12.5036	0.951
12.5434	0.951
12.5831	0.951
12.6228	0.923
12.6626	0.905
12.7023	0.89
12.742	0.907
12.7818	0.925
12.8215	0.932
12.8613	0.933
12.901	0.933
12.9407	0.933
12.9805	0.935
13.0202	0.933
13.0599	0.932
13.0997	0.932
13.1394	0.932
13.1792	0.932
13.2189	0.932
13.2586	0.93
13.2984	0.923
13.3381	0.92
13.3778	0.918
13.4176	0.913
13.4573	0.903
13.497	0.903
13.5368	0.9
13.5765	0.885
13.6163	0.857
13.656	0.835
13.6957	0.789
13.7355	0.691
13.7752	0.545
13.8149	0.353
13.8547	0.208
13.8944	0.215
13.9342	0.384
13.9739	0.567
14.0136	0.679
14.0534	0.741
14.0931	0.787
14.1328	0.812
14.1726	0.832
14.2123	0.842
14.2521	0.849
14.2918	0.855
14.3315	0.864
14.3713	0.872
14.411	0.88
14.4507	0.885
14.4905	0.888
14.5302	0.892
14.57	0.893
14.6097	0.895
14.6494	0.897
14.6892	0.898
14.7289	0.9
14.7686	0.903
14.8084	0.907
14.8481	0.908
14.8879	0.913
14.9276	0.913
14.9673	0.913
15.0071	0.903
15.0468	0.895
15.0865	0.893
15.1263	0.895
15.166	0.895
15.2057	0.895
15.2455	0.892
15.2852	0.883
15.325	0.882
15.3647	0.868
15.4044	0.855
15.4442	0.849
15.4839	0.842
15.5236	0.837
15.5634	0.832
15.6031	0.83
15.6429	0.827
15.6826	0.824
15.7223	0.817
15.7621	0.81
15.8018	0.807
15.8415	0.802
15.8813	0.797
15.921	0.792
15.9608	0.791
