Infrared Spectrum: 1,1-Ethanediol, 2,2,2-trichloro-,
Formula: C2 H3 Cl3 O2
CAS: 302-17-0
State: SOLID (NUJOL MULL)
Melting point: 57 C
Boiling point: 98 C
Class: COBLENTZ III
Instrument: PERKIN-ELMER 21 (GRATING)
Resolution: 2
Origin: THE SQUIBB INSTITUTE FOR MEDICAL RESEARCH
1/CM	TRANSMITTANCE
663	0.3169
672	0.311
681	0.3022
690	0.2797
699	0.2833
708	0.3316
717	0.4263
726	0.501
735	0.5864
744	0.6411
753	0.6661
762	0.6675
771	0.6468
780	0.6019
789	0.4988
798	0.2627
807	0.056
816	0.0297
825	0.0305
834	0.0319
843	0.0601
852	0.4045
861	0.7441
870	0.8222
879	0.8645
888	0.8781
897	0.8839
906	0.8788
915	0.867
924	0.8478
933	0.8168
942	0.7639
951	0.6842
960	0.4933
969	0.1436
978	0.2682
987	0.5958
996	0.7759
1005	0.7585
1014	0.7131
1023	0.6551
1032	0.5962
1041	0.4837
1050	0.3803
1059	0.2198
1068	0.0549
1077	0.0276
1086	0.0275
1095	0.0312
1104	0.0271
1113	0.1725
1122	0.4313
1131	0.5695
1140	0.6564
1149	0.709
1158	0.7482
1167	0.7681
1176	0.786
1185	0.7909
1194	0.7881
1203	0.7758
1212	0.7565
1221	0.7404
1230	0.7239
1239	0.7063
1248	0.6884
1257	0.6647
1266	0.6265
1275	0.5614
1284	0.3592
1293	0.1059
1302	0.0661
1311	0.2602
1320	0.6463
1329	0.7502
1338	0.7889
1347	0.7891
1356	0.7787
1365	0.7188
1374	0.5144
1383	0.2751
1392	0.2635
1401	0.1913
1410	0.1359
1419	0.1016
1428	0.1185
1437	0.5427
1446	0.5765
1455	0.583
1464	0.604
1473	0.7563
1482	0.8532
1491	0.9152
1500	0.9331
1509	0.9377
1518	0.9484
1527	0.9562
1536	0.959
1545	0.9605
1554	0.96
1563	0.9582
1572	0.9558
1581	0.9519
1590	0.9478
1599	0.943
1608	0.9387
1617	0.9371
1626	0.9387
1635	0.9411
1644	0.9431
1653	0.9452
1662	0.9528
1671	0.9636
1680	0.9728
1689	0.98
1698	0.9853
1707	0.9889
1716	0.9914
1725	0.9925
1734	0.9919
1743	0.9889
1752	0.9804
1761	0.9346
1770	0.8712
1779	0.989
1788	1.0028
1797	1.0016
1806	1.0059
1815	0.9995
1824	0.999
1833	0.9987
1842	0.9989
1851	0.9988
1860	0.9983
1869	0.9963
1878	0.9932
1887	0.9877
1896	0.9834
1905	0.9812
1914	0.9806
1923	0.9829
1932	0.9856
1941	0.9886
1950	0.9922
1959	0.9975
1968	0.9975
1977	0.9954
1986	0.9917
1995	0.9877
2004	0.9836
2013	0.9799
2022	0.9764
2031	0.9745
2040	0.9736
2049	0.9732
2058	0.9742
2067	0.9766
2076	0.9792
2085	0.976
2094	0.9702
2103	0.9641
2112	0.9594
2121	0.95
2130	0.9403
2139	0.94
2148	0.9413
2157	0.9431
2166	0.946
2175	0.9501
2184	0.9556
2193	0.9676
2202	0.9698
2211	0.9692
2220	0.9677
2229	0.9655
2238	0.9631
2247	0.9606
2256	0.9578
2265	0.955
2274	0.9512
2283	0.9474
2292	0.9424
2301	0.9366
2310	0.9343
2319	0.9332
2328	0.9326
2337	0.9322
2346	0.932
2355	0.9318
2364	0.9316
2373	0.9316
2382	0.933
2391	0.9348
2400	0.9358
2409	0.9336
2418	0.9304
2427	0.9254
2436	0.9196
2445	0.9126
2454	0.9049
2463	0.8965
2472	0.89
2481	0.8845
2490	0.8819
2499	0.8799
2508	0.8789
2517	0.8783
2526	0.8789
2535	0.8743
2544	0.8654
2553	0.8615
2562	0.8603
2571	0.86
2580	0.8597
2589	0.8596
2598	0.8594
2607	0.8593
2616	0.8588
2625	0.8582
2634	0.8541
2643	0.8456
2652	0.8372
2661	0.8347
2670	0.8349
2679	0.8361
2688	0.8386
2697	0.8413
2706	0.8434
2715	0.8454
2724	0.8466
2733	0.846
2742	0.8427
2751	0.8346
2760	0.8203
2769	0.8015
2778	0.7726
2787	0.7295
2796	0.6865
2805	0.6437
2814	0.6012
2823	0.5581
2832	0.5379
2841	0.5369
2850	0.5392
2859	0.5492
2868	0.5638
2877	0.5714
2886	0.5773
2895	0.5819
2904	0.585
2913	0.5872
2922	0.5891
2931	0.5902
2940	0.5923
2949	0.5966
2958	0.6049
2967	0.6188
2976	0.6314
2985	0.642
2994	0.6474
3003	0.6476
3012	0.6476
3021	0.6459
3030	0.6428
3039	0.6354
3048	0.6265
3057	0.6169
3066	0.606
3075	0.5933
3084	0.5806
3093	0.5688
3102	0.5567
3111	0.5435
3120	0.5199
3129	0.4927
3138	0.4657
3147	0.4389
3156	0.4122
3165	0.3857
3174	0.3594
3183	0.3355
3192	0.2977
3201	0.2621
3210	0.2362
3219	0.2097
3228	0.1669
3237	0.1349
3246	0.1128
3255	0.0876
3264	0.0642
3273	0.0541
3282	0.0462
3291	0.0384
3300	0.0354
3309	0.0347
3318	0.0352
3327	0.0383
3336	0.045
3345	0.0557
3354	0.0645
3363	0.0728
3372	0.0792
3381	0.0843
3390	0.0882
3399	0.0918
3408	0.0946
3417	0.0972
3426	0.0999
3435	0.1046
3444	0.1389
3453	0.2025
3462	0.2658
3471	0.3287
3480	0.3914
3489	0.4537
3498	0.5415
3507	0.6616
3516	0.6915
3525	0.7093
3534	0.729
3543	0.7477
3552	0.7582
3561	0.7683
3570	0.7796
3579	0.7936
3588	0.8186
3597	0.8309
3606	0.8366
3615	0.8397
3624	0.8416
3633	0.8426
3642	0.8441
3651	0.8465
3660	0.849
3669	0.8504
3678	0.8508
3687	0.8507
3696	0.8506
3705	0.8505
3714	0.8504
3723	0.8502
3732	0.85
3741	0.8497
3750	0.8493
3759	0.8487
3768	0.8477
3777	0.8467
3786	0.8456
3795	0.8446
3804	0.8438
3813	0.8421
3822	0.8393
3831	0.8367
3840	0.834
3849	0.8316
3858	0.8292
3867	0.8267
3876	0.8242
3885	0.8219
3894	0.8194
3903	0.8172
3912	0.8157
3921	0.8143
3930	0.8129
3939	0.8115
3948	0.8102
3957	0.8088
3966	0.8075
3975	0.8064
3984	0.8054
3993	0.8044
