Infrared Spectrum: 4-(DIETHOXYMETHYLSILYL)BUTYLAMINE
Formula: C9 H23 N O2 Si
CAS: 3037-72-7
State: SOLUTION (10% CCl4 FOR 3800-400 CM^-^1)
Class: COBLENTZ III
Instrument: DOW KBr FOREPRISM-GRATING
Instrument parameters: BLAZED AT 3.5, 12.0, 20.0 MICRON AND CHANGED AT 5.0, 7.5, 14.9 MICRON
Sampling: TRANSMISSION
Path length: 0.011 CM
Resolution: 2
Origin: DOW CHEMICAL COMPANY
1/CM	TRANSMITTANCE
408.811	0.63
417.622	0.608
426.432	0.605
435.243	0.605
444.053	0.614
452.864	0.677
461.675	0.711
470.485	0.711
479.296	0.739
488.106	0.795
496.917	0.836
505.727	0.87
514.538	0.89
523.349	0.894
532.159	0.879
540.97	0.899
549.78	0.914
558.591	0.92
567.402	0.923
576.212	0.932
585.023	0.943
593.833	0.945
602.644	0.936
611.455	0.918
620.265	0.892
629.076	0.851
637.886	0.92
646.697	0.914
655.508	0.895
664.318	0.851
673.129	0.85
681.939	0.84
690.75	0.795
699.56	0.71
708.371	0.605
717.182	0.443
725.992	0.221
734.803	0.034
743.613	0.004
752.424	0.004
761.235	0.002
770.045	0.001
778.856	0.001
787.666	0.001
796.477	0.002
805.288	0.006
814.098	0.012
822.909	0.045
831.719	0.107
840.53	0.245
849.341	0.355
858.151	0.468
866.962	0.578
875.772	0.608
884.583	0.64
893.393	0.684
902.204	0.684
911.015	0.657
919.825	0.57
928.636	0.412
937.446	0.211
946.257	0.131
955.068	0.162
963.878	0.399
972.689	0.478
981.499	0.494
990.31	0.509
999.121	0.49
1007.93	0.468
1016.74	0.479
1025.55	0.471
1034.36	0.417
1043.17	0.322
1051.98	0.214
1060.79	0.14
1069.61	0.016
1078.42	0.016
1087.23	0.031
1096.04	0.059
1104.85	0.013
1113.66	0.034
1122.47	0.103
1131.28	0.262
1140.09	0.417
1148.9	0.45
1157.71	0.347
1166.52	0.1931
1175.33	0.4491
1184.14	0.614
1192.95	0.627
1201.76	0.574
1210.57	0.578
1219.39	0.62
1228.2	0.655
1237.01	0.62
1245.82	0.4779
1254.63	0.1848
1263.44	0.3642
1272.25	0.646
1281.06	0.7
1289.87	0.649
1298.68	0.681
1307.49	0.76
1316.3	0.796
1325.11	0.8
1333.92	0.778
1342.73	0.758
1351.54	0.752
1360.35	0.6969
1369.17	0.653
1377.98	0.579
1386.79	0.344
1395.6	0.5081
1404.41	0.616
1413.22	0.6451
1422.03	0.732
1430.84	0.706
1439.65	0.578
1448.46	0.609
1457.27	0.601
1466.08	0.708
1474.89	0.708
1483.7	0.715
1492.51	0.759
1501.32	0.728
1510.13	0.682
1518.95	0.64
1527.76	0.594
1536.57	0.515
1545.38	0.449
1554.19	0.475
1563	0.557
1571.81	0.582
1580.62	0.587
1589.43	0.63
1598.24	0.706
1607.05	0.75
1615.86	0.777
1624.67	0.802
1633.48	0.842
1642.29	0.865
1651.1	0.881
1659.91	0.888
1668.73	0.885
1677.54	0.901
1686.35	0.913
1695.16	0.925
1703.97	0.929
1712.78	0.932
1721.59	0.935
1730.4	0.935
1739.21	0.935
1748.02	0.935
1756.83	0.935
1765.64	0.935
1774.45	0.934
1783.26	0.929
1792.07	0.925
1800.88	0.924
1809.69	0.921
1818.51	0.921
1827.32	0.918
1836.13	0.92
1844.94	0.923
1853.75	0.924
1862.56	0.924
1871.37	0.924
1880.18	0.923
1888.99	0.924
1897.8	0.924
1906.61	0.927
1915.42	0.929
1924.23	0.934
1933.04	0.939
1941.85	0.943
1950.66	0.943
1959.47	0.94
1968.29	0.938
1977.1	0.939
1985.91	0.939
1994.72	0.939
2003.53	0.939
2012.34	0.94
2021.15	0.942
2029.96	0.943
2038.77	0.9451
2047.58	0.947
2056.39	0.947
2065.2	0.949
2074.01	0.95
2082.82	0.951
2091.63	0.951
2100.44	0.951
2109.25	0.951
2118.07	0.951
2126.88	0.953
2135.69	0.9525
2144.5	0.951
2153.31	0.951
2162.12	0.9497
2170.93	0.947
2179.74	0.94
2188.55	0.94
2197.36	0.9437
2206.17	0.9477
2214.98	0.95
2223.79	0.9504
2232.6	0.953
2241.41	0.9521
2250.22	0.9481
2259.04	0.94
2267.85	0.943
2276.66	0.939
2285.47	0.9345
2294.28	0.934
2303.09	0.9371
2311.9	0.942
2320.71	0.9426
2329.52	0.9552
2338.33	0.96
2347.14	0.9616
2355.95	0.964
2364.76	0.964
2373.57	0.964
2382.38	0.964
2391.19	0.956
2400	0.954
2408.82	0.953
2417.63	0.9493
2426.44	0.9462
2435.25	0.9422
2444.06	0.9392
2452.87	0.939
2461.68	0.939
2470.49	0.939
2479.3	0.9381
2488.11	0.9351
2496.92	0.935
2505.73	0.934
2514.54	0.9322
2523.35	0.932
2532.16	0.932
2540.97	0.9291
2549.78	0.928
2558.6	0.925
2567.41	0.921
2576.22	0.918
2585.03	0.914
2593.84	0.9119
2602.65	0.9069
2611.46	0.903
2620.27	0.8938
2629.08	0.885
2637.89	0.888
2646.7	0.888
2655.51	0.888
2664.32	0.8866
2673.13	0.8786
2681.94	0.8734
2690.75	0.872
2699.56	0.866
2708.38	0.8577
2717.19	0.8269
2726	0.806
2734.81	0.7444
2743.62	0.784
2752.43	0.7773
2761.24	0.766
2770.05	0.7732
2778.86	0.782
2787.67	0.7724
2796.48	0.7254
2805.29	0.6913
2814.1	0.6597
2822.91	0.6204
2831.72	0.5274
2840.53	0.4336
2849.34	0.3239
2858.16	0.247
2866.97	0.2014
2875.78	0.1477
2884.59	0.1456
2893.4	0.164
2902.21	0.1558
2911.02	0.1373
2919.83	0.1058
2928.64	0.051
2937.45	0.0948
2946.26	0.1478
2955.07	0.2742
2963.88	0.2129
2972.69	0.1337
2981.5	0.0909
2990.31	0.1542
2999.12	0.4506
3007.94	0.6626
3016.75	0.7145
3025.56	0.7617
3034.37	0.794
3043.18	0.8056
3051.99	0.8196
3060.8	0.8319
3069.61	0.8348
3078.42	0.836
3087.23	0.8399
3096.04	0.842
3104.85	0.843
3113.66	0.843
3122.47	0.843
3131.28	0.843
3140.09	0.84
3148.9	0.837
3157.72	0.835
3166.53	0.832
3175.34	0.8278
3184.15	0.8219
3192.96	0.8149
3201.77	0.8109
3210.58	0.8057
3219.39	0.8016
3228.2	0.7958
3237.01	0.791
3245.82	0.787
3254.63	0.7818
3263.44	0.7777
3272.25	0.7755
3281.06	0.7724
3289.87	0.77
3298.68	0.7703
3307.5	0.773
3316.31	0.776
3325.12	0.78
3333.93	0.7844
3342.74	0.7914
3351.55	0.795
3360.36	0.795
3369.17	0.793
3377.98	0.7861
3386.79	0.784
3395.6	0.797
3404.41	0.813
3413.22	0.8315
3422.03	0.8381
3430.84	0.8451
3439.65	0.85
3448.46	0.853
3457.28	0.8586
3466.09	0.861
3474.9	0.866
3483.71	0.8696
3492.52	0.8743
3501.33	0.8807
3510.14	0.8907
3518.95	0.8954
3527.76	0.9085
3536.57	0.914
3545.38	0.9273
3554.19	0.9355
3563	0.9416
3571.81	0.946
3580.62	0.95
3589.43	0.9538
3598.24	0.954
3607.06	0.954
3615.87	0.9491
3624.68	0.9323
3633.49	0.923
3642.3	0.9385
3651.11	0.954
3659.92	0.957
3668.73	0.956
3677.54	0.947
3686.35	0.95
3695.16	0.9541
3703.97	0.9621
3712.78	0.9669
3721.59	0.9681
3730.4	0.9721
3739.21	0.9751
3748.02	0.9781
3756.84	0.979
3765.65	0.979
3774.46	0.9792
3783.27	0.982
3792.08	0.982
3800.89	0.982
3809.7	0.982
