Infrared Spectrum: 1,3-DIMETHYL-1,3-DIPHENYLDISILOXANEDIOL
Formula: C14 H18 O3 Si2
CAS: 3089-06-3
State: SOLID (SPLIT MULL)
Melting point: 111 C
Class: COBLENTZ III
Instrument: PERKIN-ELMER 521 (GRATING)
Instrument parameters: FILTERS AT 3150, 2500, 2000, 1150, 700, 410. GRATING CHANGES: 2000, 630 CM^-^1
Sampling: TRANSMISSION
Resolution: 2
Origin: DOW CORNING CORP.
1/CM	TRANSMITTANCE
252.958	0.798
262.148	0.803
271.338	0.805
280.528	0.806
289.718	0.805
298.909	0.799
308.099	0.801
317.289	0.795
326.479	0.798
335.669	0.804
344.859	0.806
354.049	0.794
363.239	0.811
372.43	0.788
381.62	0.713
390.81	0.752
400	0.782
409.19	0.6
418.38	0.541
427.57	0.384
436.76	0.595
445.951	0.722
455.141	0.617
464.331	0.803
473.521	0.671
482.711	0.21
491.901	0.713
501.091	0.85
510.281	0.871
519.472	0.874
528.662	0.877
537.852	0.879
547.042	0.877
556.232	0.874
565.422	0.87
574.612	0.867
583.802	0.856
592.993	0.848
602.183	0.838
611.373	0.794
620.563	0.779
629.753	0.777
638.943	0.77
648.133	0.765
657.323	0.743
666.514	0.688
675.704	0.495
684.894	0.623
694.084	0.351
703.274	0.277
712.464	0.381
721.654	0.107
730.844	0.16
740.035	0.256
749.225	0.193
758.415	0.343
767.605	0.285
776.795	0.159
785.985	0.1
795.175	0.346
804.365	0.439
813.556	0.399
822.746	0.547
831.936	0.465
841.126	0.321
850.316	0.149
859.506	0.209
868.696	0.073
877.886	0.145
887.077	0.098
896.267	0.122
905.457	0.212
914.647	0.342
923.837	0.514
933.027	0.632
942.217	0.656
951.407	0.647
960.598	0.631
969.788	0.602
978.978	0.596
988.168	0.524
997.358	0.267
1006.55	0.458
1015.74	0.364
1024.93	0.175
1034.12	0.261
1043.31	0.088
1052.5	0.073
1061.69	0.061
1070.88	0.073
1080.07	0.061
1089.26	0.062
1098.45	0.174
1107.64	0.21
1116.83	0.107
1126.02	0.069
1135.21	0.302
1144.4	0.46
1153.59	0.504
1162.78	0.564
1171.97	0.596
1181.16	0.608
1190.35	0.608
1199.54	0.621
1208.73	0.631
1217.92	0.65
1227.11	0.652
1236.3	0.638
1245.49	0.534
1254.68	0.245
1263.87	0.333
1273.06	0.575
1282.25	0.602
1291.44	0.592
1300.63	0.571
1309.82	0.694
1319.01	0.707
1328.2	0.752
1337.39	0.782
1346.58	0.784
1355.77	0.782
1364.96	0.777
1374.15	0.755
1383.34	0.774
1392.53	0.765
1401.72	0.656
1410.91	0.652
1420.1	0.679
1429.29	0.16
1438.48	0.838
1447.67	0.843
1456.86	0.849
1466.05	0.855
1475.24	0.866
1484.43	0.79
1493.62	0.884
1502.81	0.896
1512.01	0.901
1521.2	0.904
1530.39	0.904
1539.58	0.904
1548.77	0.9
1557.96	0.902
1567.15	0.881
1576.34	0.896
1585.53	0.787
1594.72	0.84
1603.91	0.904
1613.1	0.901
1622.29	0.909
1631.48	0.901
1640.67	0.875
1649.86	0.865
1659.05	0.87
1668.24	0.876
1677.43	0.917
1686.62	0.933
1695.81	0.938
1705	0.943
1714.19	0.94
1723.38	0.94
1732.57	0.93
1741.76	0.924
1750.95	0.92
1760.14	0.919
1769.33	0.916
1778.52	0.917
1787.71	0.931
1796.9	0.931
1806.09	0.925
1815.28	0.889
1824.47	0.89
1833.66	0.91
1842.85	0.921
1852.04	0.929
1861.23	0.932
1870.42	0.927
1879.61	0.89
1888.8	0.88
1897.99	0.897
1907.18	0.905
1916.37	0.916
1925.56	0.925
1934.75	0.922
1943.94	0.917
1953.13	0.88
1962.32	0.879
1971.51	0.887
1980.7	0.895
1989.89	0.905
1999.08	0.912
2008.27	0.912
2017.46	0.914
2026.65	0.914
2035.84	0.914
2045.03	0.914
2054.22	0.914
2063.41	0.9124
2072.6	0.912
2081.79	0.9111
2090.98	0.91
2100.17	0.91
2109.36	0.907
2118.55	0.904
2127.74	0.904
2136.93	0.905
2146.12	0.902
2155.31	0.8948
2164.5	0.8857
2173.69	0.881
2182.88	0.877
2192.07	0.875
2201.26	0.872
2210.45	0.868
2219.64	0.8624
2228.83	0.854
2238.02	0.8472
2247.21	0.841
2256.41	0.8393
2265.6	0.836
2274.79	0.836
2283.98	0.836
2293.17	0.8341
2302.36	0.831
2311.55	0.83
2320.74	0.834
2329.93	0.838
2339.12	0.8412
2348.31	0.851
2357.5	0.8552
2366.69	0.858
2375.88	0.858
2385.07	0.8593
2394.26	0.8643
2403.45	0.8678
2412.64	0.87
2421.83	0.87
2431.02	0.871
2440.21	0.872
2449.4	0.872
2458.59	0.872
2467.78	0.875
2476.97	0.8757
2486.16	0.876
2495.35	0.876
2504.54	0.876
2513.73	0.876
2522.92	0.876
2532.11	0.877
2541.3	0.877
2550.49	0.877
2559.68	0.8769
2568.87	0.8758
2578.06	0.874
2587.25	0.8717
2596.44	0.87
2605.63	0.87
2614.82	0.87
2624.01	0.869
2633.2	0.8645
2642.39	0.858
2651.58	0.8555
2660.77	0.853
2669.96	0.8494
2679.15	0.846
2688.34	0.8408
2697.53	0.8335
2706.72	0.8206
2715.91	0.819
2725.1	0.816
2734.29	0.811
2743.48	0.808
2752.67	0.804
2761.86	0.7949
2771.05	0.7839
2780.24	0.7737
2789.43	0.7664
2798.62	0.7513
2807.81	0.7411
2817	0.7284
2826.19	0.721
2835.38	0.7073
2844.57	0.6775
2853.76	0.665
2862.95	0.6519
2872.14	0.6433
2881.33	0.6206
2890.52	0.5847
2899.71	0.5424
2908.9	0.5332
2918.09	0.516
2927.28	0.5002
2936.47	0.4915
2945.66	0.4354
2954.85	0.3466
2964.04	0.342
2973.23	0.3631
2982.42	0.3729
2991.61	0.3487
3000.81	0.2946
3010	0.2742
3019.19	0.2547
3028.38	0.2593
3037.57	0.2429
3046.76	0.2146
3055.95	0.1984
3065.14	0.1505
3074.33	0.1921
3083.52	0.1823
3092.71	0.176
3101.9	0.1617
3111.09	0.1493
3120.28	0.1395
3129.47	0.1324
3138.66	0.1232
3147.85	0.1152
3157.04	0.11
3166.23	0.104
3175.42	0.099
3184.61	0.0949
3193.8	0.092
3202.99	0.09
3212.18	0.092
3221.37	0.094
3230.56	0.0993
3239.75	0.104
3248.94	0.108
3258.13	0.113
3267.32	0.1194
3276.51	0.126
3285.7	0.1325
3294.89	0.1417
3304.08	0.1522
3313.27	0.1637
3322.46	0.1788
3331.65	0.198
3340.84	0.2131
3350.03	0.2336
3359.22	0.2607
3368.41	0.2877
3377.6	0.3127
3386.79	0.347
3395.98	0.3784
3405.17	0.4075
3414.36	0.4337
3423.55	0.4689
3432.74	0.5013
3441.93	0.5296
3451.12	0.5585
3460.31	0.5877
3469.5	0.6193
3478.69	0.6333
3487.88	0.6639
3497.07	0.6825
3506.26	0.6966
3515.45	0.7204
3524.64	0.7343
3533.83	0.7427
3543.02	0.7537
3552.21	0.7615
3561.4	0.767
3570.59	0.77
3579.78	0.77
3588.97	0.769
3598.16	0.769
3607.35	0.768
3616.54	0.765
3625.73	0.7652
3634.92	0.7722
3644.11	0.774
3653.3	0.774
3662.49	0.774
3671.68	0.7757
3680.87	0.777
3690.06	0.778
3699.25	0.778
3708.44	0.778
3717.63	0.775
3726.82	0.773
3736.02	0.768
3745.21	0.7687
3754.4	0.7737
3763.59	0.774
3772.78	0.774
3781.97	0.774
3791.16	0.773
3800.35	0.7691
