Infrared Spectrum: 1-METHYLHEXAHYDROPYRIMIDINE
Formula: C5 H12 N2
CAS: 31952-00-8
Class: COBLENTZ
Instrument: PERKIN-ELMER
Sampling: TRANSMISSION
Path length: CAPILLARY
Resolution: 4
Origin: ABBOTT LABORATORIES - WASHBURN
MICROMETERS	TRANSMITTANCE
2.515	0.85
2.55168	0.8501
2.58835	0.8521
2.62503	0.859
2.66171	0.863
2.69838	0.8688
2.73506	0.87
2.77174	0.87
2.80841	0.8756
2.84509	0.869
2.88177	0.8614
2.91844	0.8414
2.95512	0.8328
2.9918	0.8156
3.02847	0.7851
3.06515	0.6619
3.10183	0.577
3.1385	0.6789
3.17518	0.7684
3.21186	0.8026
3.24853	0.8101
3.28521	0.811
3.32189	0.7998
3.35856	0.7354
3.39524	0.3214
3.43192	0.079
3.46859	0.219
3.50527	0.3347
3.54195	0.2793
3.57862	0.424
3.6153	0.1513
3.65198	0.1967
3.68865	0.3429
3.72533	0.406
3.76201	0.5105
3.79868	0.6139
3.83536	0.6421
3.87204	0.7081
3.90871	0.7613
3.94539	0.7839
3.98207	0.8037
4.01874	0.824
4.05542	0.824
4.0921	0.8279
4.12877	0.8368
4.16545	0.854
4.20213	0.8584
4.2388	0.865
4.27548	0.863
4.31216	0.863
4.34883	0.865
4.38551	0.8684
4.42219	0.8824
4.45886	0.887
4.49554	0.88
4.53222	0.8832
4.56889	0.893
4.60557	0.896
4.64225	0.896
4.67892	0.9
4.7156	0.902
4.75228	0.9098
4.78895	0.913
4.82563	0.913
4.86231	0.9144
4.89898	0.913
4.93566	0.909
4.97234	0.9096
5.00901	0.9119
5.04569	0.915
5.08237	0.916
5.11904	0.915
5.15572	0.915
5.1924	0.916
5.22907	0.913
5.26575	0.9152
5.30243	0.918
5.3391	0.918
5.37578	0.918
5.41246	0.9208
5.44913	0.924
5.48581	0.926
5.52249	0.9214
5.55916	0.924
5.59584	0.924
5.63252	0.92
5.66919	0.9235
5.70587	0.9205
5.74255	0.9194
5.77922	0.918
5.8159	0.92
5.85258	0.918
5.88925	0.9145
5.92593	0.9085
5.96261	0.9037
5.99928	0.9017
6.03596	0.896
6.07264	0.894
6.10931	0.8879
6.14599	0.894
6.18267	0.898
6.21934	0.9
6.25602	0.904
6.2927	0.9036
6.32937	0.9
6.36605	0.898
6.40273	0.9
6.4394	0.9
6.47608	0.8975
6.51276	0.898
6.54943	0.8954
6.58611	0.8934
6.62279	0.8804
6.65946	0.8564
6.69614	0.8134
6.73282	0.779
6.76949	0.6652
6.80617	0.4698
6.84285	0.3436
6.87952	0.374
6.9162	0.322
6.95288	0.405
6.98955	0.4769
7.02623	0.531
7.06291	0.6769
7.09958	0.7661
7.13626	0.8053
7.17294	0.818
7.20961	0.7642
7.24629	0.6468
7.28297	0.359
7.31964	0.5854
7.35632	0.6522
7.393	0.749
7.42967	0.771
7.46635	0.7614
7.50303	0.8034
7.5397	0.8088
7.57638	0.792
7.61306	0.7966
7.64973	0.7646
7.68641	0.7576
7.72309	0.7249
7.75976	0.6003
7.79644	0.5017
7.83312	0.5925
7.86979	0.542
7.90647	0.5178
7.94315	0.2674
7.97982	0.2832
8.0165	0.5467
8.05318	0.721
8.08985	0.765
8.12653	0.7842
8.16321	0.772
8.19988	0.7006
8.23656	0.4317
8.27324	0.2092
8.30991	0.423
8.34659	0.6023
8.38327	0.6538
8.41994	0.6765
8.45662	0.6355
8.4933	0.5983
8.52997	0.5581
8.56665	0.6832
8.60333	0.7604
8.64	0.7789
8.67668	0.7588
8.71336	0.6661
8.75003	0.5392
8.78671	0.3117
8.82339	0.2376
8.86006	0.3918
8.89674	0.3936
8.93342	0.3828
8.97009	0.4663
9.00677	0.498
9.04345	0.438
9.08012	0.4549
9.1168	0.5909
9.15348	0.691
9.19015	0.7519
9.22683	0.7884
9.26351	0.8
9.30018	0.7757
9.33686	0.7276
9.37354	0.7288
9.41021	0.7493
9.44689	0.711
9.48357	0.6027
9.52024	0.4384
9.55692	0.5318
9.5936	0.6112
9.63027	0.6918
9.66695	0.6847
9.70363	0.5818
9.7403	0.6126
9.77698	0.6974
9.81366	0.6654
9.85033	0.4955
9.88701	0.5829
9.92369	0.7032
9.96036	0.749
9.99704	0.7596
10.0337	0.7517
10.0704	0.6965
10.1071	0.6233
10.1437	0.5205
10.1804	0.4264
10.2171	0.304
10.2538	0.2048
10.2905	0.1993
10.3271	0.3037
10.3638	0.4817
10.4005	0.619
10.4372	0.708
10.4738	0.7572
10.5105	0.8032
10.5472	0.8246
10.5839	0.8194
10.6205	0.8174
10.6572	0.8435
10.6939	0.8485
10.7306	0.8506
10.7672	0.856
10.8039	0.8476
10.8406	0.8422
10.8773	0.8255
10.914	0.7952
10.9506	0.7212
10.9873	0.587
11.024	0.4049
11.0607	0.372
11.0973	0.5258
11.134	0.6034
11.1707	0.6204
11.2074	0.5556
11.244	0.4661
11.2807	0.4011
11.3174	0.4792
11.3541	0.631
11.3908	0.6896
11.4274	0.6831
11.4641	0.5949
11.5008	0.566
11.5375	0.6488
11.5741	0.7297
11.6108	0.7603
11.6475	0.7747
11.6842	0.774
11.7208	0.7623
11.7575	0.743
11.7942	0.7274
11.8309	0.706
11.8675	0.6908
11.9042	0.676
11.9409	0.6595
11.9776	0.6472
12.0143	0.6291
12.0509	0.6167
12.0876	0.5986
12.1243	0.5794
12.161	0.5585
12.1976	0.5467
12.2343	0.5476
12.271	0.553
12.3077	0.546
12.3443	0.5281
12.381	0.5107
12.4177	0.4811
12.4544	0.4459
12.4911	0.4189
12.5277	0.4193
12.5644	0.4799
12.6011	0.5387
12.6378	0.5653
12.6744	0.566
12.7111	0.5341
12.7478	0.498
12.7845	0.4353
12.8211	0.409
12.8578	0.404
12.8945	0.411
12.9312	0.4152
12.9678	0.42
13.0045	0.416
13.0412	0.4124
13.0779	0.396
13.1146	0.3697
13.1512	0.3497
13.1879	0.329
13.2246	0.3204
13.2613	0.3116
13.2979	0.3244
13.3346	0.3449
13.3713	0.382
13.408	0.4085
13.4446	0.4466
13.4813	0.4775
13.518	0.505
13.5547	0.5384
13.5914	0.5609
13.628	0.5871
13.6647	0.6099
13.7014	0.632
13.7381	0.6459
13.7747	0.6675
13.8114	0.6789
13.8481	0.7065
13.8848	0.715
13.9214	0.724
13.9581	0.7305
13.9948	0.745
14.0315	0.7531
14.0681	0.7586
14.1048	0.7617
14.1415	0.7657
14.1782	0.773
14.2149	0.7775
14.2515	0.7786
14.2882	0.782
14.3249	0.78
14.3616	0.7857
14.3982	0.789
14.4349	0.787
14.4716	0.789
14.5083	0.789
14.5449	0.789
14.5816	0.789
14.6183	0.789
14.655	0.7885
14.6917	0.7788
14.7283	0.778
14.765	0.776
14.8017	0.778
14.8384	0.776
14.875	0.7737
14.9117	0.7704
14.9484	0.763
14.9851	0.767
