Infrared Spectrum: UREA, 1-(2-CHLOROETHYL)-1-NITROSO-3-(TETRAHYDRO-4-THIOPYRANYL)-, s,s-DIOXIDE
Formula: C8 H14 Cl N3 O4 S
CAS: 33022-02-5
State: SOLID (1 mg / 650 mg KBr DISC)
Class: COBLENTZ III
Instrument: PERKIN-ELMER 521 (GRATING)
Instrument parameters: FILTERS AT 3150, 2500, 2000, 1150, 700, 410. GRATING CHANGES: 2000, 630
Sampling: TRANSMISSION
Resolution: 2
Origin: SOUTHERN RESEARCH INSTITUTE
1/CM	TRANSMITTANCE
246	0.3558
256	0.4103
266	0.4777
276	0.547
286	0.5717
296	0.5731
306	0.5593
316	0.5883
326	0.6881
336	0.7073
346	0.7352
356	0.7224
366	0.7284
376	0.7396
386	0.7784
396	0.7752
406	0.7341
416	0.7314
426	0.5613
436	0.6632
446	0.7837
456	0.7782
466	0.7968
476	0.7957
486	0.7598
496	0.772
506	0.7852
516	0.786
526	0.7622
536	0.6046
546	0.7886
556	0.7895
566	0.7867
576	0.7831
586	0.7768
596	0.7647
606	0.7343
616	0.6225
626	0.6488
636	0.634
646	0.5664
656	0.6124
666	0.64
676	0.7782
686	0.7945
696	0.7904
706	0.7053
716	0.6198
726	0.7982
736	0.791
746	0.6729
756	0.6677
766	0.6768
776	0.7666
786	0.683
796	0.7656
806	0.8118
816	0.8057
826	0.7768
836	0.6853
846	0.486
856	0.6884
866	0.793
876	0.7765
886	0.6996
896	0.5536
906	0.5665
916	0.6973
926	0.6619
936	0.7252
946	0.6215
956	0.522
966	0.4434
976	0.6586
986	0.6857
996	0.6509
1006	0.635
1016	0.7499
1026	0.7501
1036	0.7116
1046	0.6111
1056	0.52
1066	0.386
1076	0.5175
1086	0.2709
1096	0.5473
1106	0.6454
1116	0.2482
1126	0.0998
1136	0.6687
1146	0.6566
1156	0.5052
1166	0.4425
1176	0.6875
1186	0.6662
1196	0.7137
1206	0.6887
1216	0.7652
1226	0.7497
1236	0.6261
1246	0.7051
1256	0.6393
1266	0.4335
1276	0.2783
1286	0.3596
1296	0.4565
1306	0.4842
1316	0.3352
1326	0.4658
1336	0.5009
1346	0.6363
1356	0.7113
1366	0.706
1376	0.6901
1386	0.7481
1396	0.7288
1406	0.5874
1416	0.6096
1426	0.6884
1436	0.5625
1446	0.6988
1456	0.6246
1466	0.5232
1476	0.2247
1486	0.2544
1496	0.4248
1506	0.5152
1516	0.3415
1526	0.1409
1536	0.2114
1546	0.486
1556	0.6534
1566	0.7264
1576	0.7498
1586	0.7571
1596	0.766
1606	0.7758
1616	0.7785
1626	0.7773
1636	0.7815
1646	0.7693
1656	0.7331
1666	0.6757
1676	0.6167
1686	0.3454
1696	0.1031
1706	0.18
1716	0.2968
1726	0.4667
1736	0.6034
1746	0.7043
1756	0.7599
1766	0.7838
1776	0.7984
1786	0.8086
1796	0.8168
1806	0.8244
1816	0.8313
1826	0.8365
1836	0.8417
1846	0.8458
1856	0.8488
1866	0.8506
1876	0.8512
1886	0.852
1896	0.853
1906	0.8539
1916	0.8546
1926	0.8553
1936	0.8559
1946	0.856
1956	0.8561
1966	0.8556
1976	0.8549
1986	0.8539
1996	0.8521
2006	0.8507
2016	0.8503
2026	0.851
2036	0.8517
2046	0.8514
2056	0.8521
2066	0.853
2076	0.8534
2086	0.8533
2096	0.8536
2106	0.854
2116	0.854
2126	0.8539
2136	0.8538
2146	0.8538
2156	0.8539
2166	0.8547
2176	0.8538
2186	0.8537
2196	0.8535
2206	0.8534
2216	0.8532
2226	0.8532
2236	0.8534
2246	0.8536
2256	0.8538
2266	0.8542
2276	0.8546
2286	0.8551
2296	0.8555
2306	0.8561
2316	0.8564
2326	0.8559
2336	0.8555
2346	0.855
2356	0.8545
2366	0.854
2376	0.8537
2386	0.8534
2396	0.8531
2406	0.8529
2416	0.8526
2426	0.8524
2436	0.8521
2446	0.8522
2456	0.853
2466	0.8539
2476	0.8561
2486	0.8558
2496	0.8545
2506	0.8535
2516	0.8527
2526	0.8518
2536	0.8509
2546	0.8502
2556	0.85
2566	0.8497
2576	0.8496
2586	0.8495
2596	0.8494
2606	0.8497
2616	0.8501
2626	0.8505
2636	0.8508
2646	0.8512
2656	0.8509
2666	0.8478
2676	0.8458
2686	0.8443
2696	0.8457
2706	0.8487
2716	0.8517
2726	0.8514
2736	0.8503
2746	0.8474
2756	0.8453
2766	0.8437
2776	0.8428
2786	0.8419
2796	0.8414
2806	0.8411
2816	0.8403
2826	0.8387
2836	0.8346
2846	0.8267
2856	0.8161
2866	0.8077
2876	0.8167
2886	0.8191
2896	0.8112
2906	0.8018
2916	0.7888
2926	0.7543
2936	0.7177
2946	0.7226
2956	0.7441
2966	0.7382
2976	0.7495
2986	0.776
2996	0.7978
3006	0.7996
3016	0.7992
3026	0.7964
3036	0.7916
3046	0.7925
3056	0.8137
3066	0.8277
3076	0.8381
3086	0.843
3096	0.8455
3106	0.8465
3116	0.8481
3126	0.8515
3136	0.8534
3146	0.8435
3156	0.8382
3166	0.8364
3176	0.8333
3186	0.8297
3196	0.8262
3206	0.823
3216	0.8197
3226	0.8141
3236	0.8054
3246	0.7971
3256	0.7898
3266	0.7811
3276	0.7645
3286	0.7441
3296	0.7133
3306	0.6597
3316	0.5881
3326	0.4697
3336	0.3449
3346	0.401
3356	0.4987
3366	0.6189
3376	0.6828
3386	0.7038
3396	0.722
3406	0.7366
3416	0.7473
3426	0.7562
3436	0.764
3446	0.7716
3456	0.779
3466	0.7848
3476	0.7894
3486	0.792
3496	0.7942
3506	0.7978
3516	0.8034
3526	0.8089
3536	0.8136
3546	0.8197
3556	0.8254
3566	0.8299
3576	0.8336
3586	0.8372
3596	0.8403
3606	0.8447
3616	0.8497
3626	0.8539
3636	0.8566
3646	0.8578
3656	0.8583
3666	0.8587
3676	0.8589
3686	0.8607
3696	0.8643
3706	0.8669
3716	0.8679
3726	0.8679
3736	0.8676
3746	0.8673
3756	0.8666
3766	0.866
3776	0.8659
3786	0.8658
3796	0.8654
3806	0.8648
3816	0.8641
3826	0.863
3836	0.8618
3846	0.8607
