Infrared Spectrum: UREA, 1-(2-CHLOROETHYL)-3-MESITYL-1-NITROSO-
Formula: C12 H16 Cl N3 O2
CAS: 33022-06-9
State: SOLID (1 mg / 650 mg KBr DISC)
Class: COBLENTZ III
Instrument: PERKIN-ELMER 521 (GRATING)
Instrument parameters: FILTERS AT 3150, 2500, 2000, 1150, 700, 410 CM ^-^1, GRATING CHANGES AT 2000, 630 CM^-^1
Sampling: TRANSMISSION
Resolution: 4
Origin: SOUTHERN RES. INSTITUTE
1/CM	TRANSMITTANCE
223.014	0.325
232.22	0.37
241.426	0.397
250.631	0.445
259.837	0.503
269.043	0.56
278.249	0.609
287.454	0.622
296.66	0.661
305.866	0.699
315.072	0.708
324.278	0.721
333.483	0.737
342.689	0.734
351.895	0.693
361.101	0.734
370.306	0.728
379.512	0.71
388.718	0.774
397.924	0.807
407.13	0.818
416.335	0.819
425.541	0.816
434.747	0.816
443.953	0.816
453.159	0.814
462.364	0.812
471.57	0.81
480.776	0.797
489.982	0.77
499.187	0.763
508.393	0.718
517.599	0.738
526.805	0.708
536.011	0.703
545.216	0.73
554.422	0.662
563.628	0.687
572.834	0.733
582.039	0.738
591.245	0.734
600.451	0.762
609.657	0.786
618.863	0.793
628.068	0.795
637.274	0.794
646.48	0.775
655.686	0.656
664.891	0.766
674.097	0.82
683.303	0.831
692.509	0.825
701.715	0.786
710.92	0.704
720.126	0.83
729.332	0.814
738.538	0.806
747.744	0.703
756.949	0.737
766.155	0.636
775.361	0.708
784.567	0.525
793.772	0.696
802.978	0.778
812.184	0.805
821.39	0.803
830.596	0.784
839.801	0.543
849.007	0.582
858.213	0.688
867.419	0.682
876.624	0.759
885.83	0.761
895.036	0.693
904.242	0.647
913.448	0.673
922.653	0.734
931.859	0.694
941.065	0.557
950.271	0.324
959.476	0.484
968.682	0.477
977.888	0.626
987.094	0.651
996.3	0.567
1005.51	0.629
1014.71	0.703
1023.92	0.697
1033.12	0.646
1042.33	0.686
1051.53	0.684
1060.74	0.631
1069.95	0.409
1079.15	0.376
1088.36	0.346
1097.56	0.397
1106.77	0.615
1115.97	0.506
1125.18	0.528
1134.39	0.68
1143.59	0.713
1152.8	0.664
1162	0.599
1171.21	0.713
1180.42	0.75
1189.62	0.762
1198.83	0.759
1208.03	0.604
1217.24	0.681
1226.44	0.611
1235.65	0.687
1244.86	0.757
1254.06	0.75
1263.27	0.691
1272.47	0.635
1281.68	0.661
1290.88	0.673
1300.09	0.62
1309.3	0.652
1318.5	0.667
1327.71	0.669
1336.91	0.649
1346.12	0.702
1355.33	0.732
1364.53	0.678
1373.74	0.724
1382.94	0.641
1392.15	0.728
1401.35	0.727
1410.56	0.629
1419.77	0.593
1428.97	0.493
1438.18	0.455
1447.38	0.452
1456.59	0.309
1465.79	0.262
1475	0.287
1484.21	0.199
1493.41	0.19
1502.62	0.256
1511.82	0.224
1521.03	0.328
1530.23	0.439
1539.44	0.554
1548.65	0.639
1557.85	0.696
1567.06	0.72
1576.26	0.74
1585.47	0.75
1594.68	0.751
1603.88	0.747
1613.09	0.712
1622.29	0.729
1631.5	0.768
1640.7	0.741
1649.91	0.737
1659.12	0.772
1668.32	0.796
1677.53	0.8
1686.73	0.784
1695.94	0.762
1705.14	0.732
1714.35	0.637
1723.56	0.537
1732.76	0.246
1741.97	0.186
1751.17	0.421
1760.38	0.625
1769.59	0.712
1778.79	0.758
1788	0.793
1797.2	0.812
1806.41	0.827
1815.61	0.833
1824.82	0.844
1834.03	0.848
1843.23	0.854
1852.44	0.858
1861.64	0.861
1870.85	0.863
1880.05	0.865
1889.26	0.866
1898.47	0.87
1907.67	0.873
1916.88	0.875
1926.08	0.879
1935.29	0.88
1944.5	0.881
1953.7	0.88
1962.91	0.88
1972.11	0.879
1981.32	0.879
1990.52	0.876
1999.73	0.872
2008.94	0.873
2018.14	0.873
2027.35	0.873
2036.55	0.87
2045.76	0.87
2054.96	0.871
2064.17	0.873
2073.38	0.874
2082.58	0.874
2091.79	0.873
2100.99	0.872
2110.2	0.873
2119.4	0.875
2128.61	0.874
2137.82	0.873
2147.02	0.872
2156.23	0.872
2165.43	0.872
2174.64	0.871
2183.85	0.87
2193.05	0.87
2202.26	0.87
2211.46	0.869
2220.67	0.868
2229.87	0.867
2239.08	0.867
2248.29	0.865
2257.49	0.863
2266.7	0.863
2275.9	0.865
2285.11	0.867
2294.31	0.867
2303.52	0.867
2312.73	0.868
2321.93	0.868
2331.14	0.867
2340.34	0.866
2349.55	0.866
2358.76	0.864
2367.96	0.864
2377.17	0.863
2386.37	0.862
2395.58	0.86
2404.78	0.862
2413.99	0.865
2423.2	0.867
2432.4	0.867
2441.61	0.866
2450.81	0.863
2460.02	0.863
2469.22	0.865
2478.43	0.866
2487.64	0.865
2496.84	0.864
2506.05	0.863
2515.25	0.862
2524.46	0.862
2533.67	0.86
2542.87	0.86
2552.08	0.86
2561.28	0.86
2570.49	0.86
2579.69	0.86
2588.9	0.86
2598.11	0.859
2607.31	0.857
2616.52	0.858
2625.72	0.859
2634.93	0.86
2644.13	0.86
2653.34	0.86
2662.55	0.86
2671.75	0.858
2680.96	0.858
2690.16	0.857
2699.37	0.856
2708.57	0.854
2717.78	0.849
2726.99	0.84
2736.19	0.852
2745.4	0.853
2754.6	0.851
2763.81	0.849
2773.02	0.848
2782.22	0.847
2791.43	0.845
2800.63	0.842
2809.84	0.839
2819.04	0.832
2828.25	0.826
2837.46	0.8
2846.66	0.771
2855.87	0.775
2865.07	0.793
2874.28	0.793
2883.48	0.786
2892.69	0.768
2901.9	0.737
2911.1	0.686
2920.31	0.698
2929.51	0.711
2938.72	0.714
2947.93	0.715
2957.13	0.716
2966.34	0.691
2975.54	0.705
2984.75	0.745
2993.95	0.757
3003.16	0.754
3012.37	0.744
3021.57	0.753
3030.78	0.772
3039.98	0.803
3049.19	0.822
3058.39	0.825
3067.6	0.83
3076.81	0.833
3086.01	0.836
3095.22	0.838
3104.42	0.839
3113.63	0.839
3122.84	0.837
3132.04	0.835
3141.25	0.833
3150.45	0.832
3159.66	0.83
3168.86	0.828
3178.07	0.825
3187.28	0.819
3196.48	0.814
3205.69	0.81
3214.89	0.806
3224.1	0.802
3233.3	0.795
3242.51	0.787
3251.72	0.775
3260.92	0.765
3270.13	0.753
3279.33	0.741
3288.54	0.721
3297.74	0.699
3306.95	0.636
3316.16	0.594
3325.36	0.563
3334.57	0.601
3343.77	0.645
3352.98	0.605
3362.19	0.361
3371.39	0.465
3380.6	0.649
3389.8	0.711
3399.01	0.731
3408.21	0.743
3417.42	0.75
3426.63	0.757
3435.83	0.759
3445.04	0.759
3454.24	0.759
3463.45	0.767
3472.65	0.772
3481.86	0.777
3491.07	0.781
3500.27	0.783
3509.48	0.788
3518.68	0.794
3527.89	0.795
3537.1	0.8
3546.3	0.81
3555.51	0.813
3564.71	0.816
3573.92	0.822
3583.12	0.826
3592.33	0.832
3601.54	0.836
3610.74	0.841
3619.95	0.844
3629.15	0.846
3638.36	0.848
3647.56	0.851
3656.77	0.853
3665.98	0.851
3675.18	0.849
3684.39	0.853
3693.59	0.857
3702.8	0.856
3712.01	0.856
3721.21	0.858
3730.42	0.857
3739.62	0.853
3748.83	0.851
3758.03	0.857
3767.24	0.859
3776.45	0.859
3785.65	0.859
3794.86	0.857
