Infrared Spectrum: UREA, 1-(2-CHLOROETHYL)-1-NITROSO-3-(TETRAHYDROTHIOPYRAN-4-YL)-
Formula: C8 H14 Cl N3 O2 S
CAS: 33022-01-4
State: SOLID (1 mg / 650 mg KBr DISC)
Class: COBLENTZ III
Instrument: PERKIN-ELMER 521 (GRATING)
Instrument parameters: FILTERS AT 3150, 2500, 2000, 1150, 700, 410 CM ^-^1, GRATING CHANGES AT 2000, 630 CM ^-^1
Sampling: TRANSMISSION
Resolution: 4
Origin: SOUTHERN RES. INSTITUTE
1/CM	TRANSMITTANCE
246.97	0.322
256.061	0.374
265.152	0.423
274.243	0.464
283.334	0.503
292.425	0.548
301.516	0.587
310.606	0.593
319.697	0.593
328.788	0.579
337.879	0.571
346.97	0.651
356.061	0.641
365.152	0.68
374.243	0.738
383.334	0.75
392.425	0.757
401.516	0.757
410.607	0.715
419.697	0.765
428.788	0.763
437.879	0.775
446.97	0.79
456.061	0.778
465.152	0.798
474.243	0.8
483.334	0.799
492.425	0.788
501.516	0.787
510.607	0.784
519.698	0.774
528.789	0.75
537.879	0.79
546.97	0.791
556.061	0.787
565.152	0.779
574.243	0.771
583.334	0.749
592.425	0.642
601.516	0.725
610.607	0.713
619.698	0.675
628.789	0.638
637.88	0.66
646.97	0.704
656.061	0.67
665.152	0.65
674.243	0.77
683.334	0.799
692.425	0.806
701.516	0.812
710.607	0.813
719.698	0.811
728.789	0.805
737.88	0.793
746.971	0.713
756.062	0.795
765.152	0.793
774.243	0.686
783.334	0.685
792.425	0.617
801.516	0.601
810.607	0.787
819.698	0.81
828.789	0.811
837.88	0.805
846.971	0.774
856.062	0.8
865.153	0.799
874.243	0.796
883.334	0.777
892.425	0.742
901.516	0.699
910.607	0.687
919.698	0.746
928.789	0.55
937.88	0.725
946.971	0.677
956.062	0.638
965.153	0.326
974.244	0.271
983.335	0.592
992.425	0.625
1001.52	0.649
1010.61	0.724
1019.7	0.766
1028.79	0.768
1037.88	0.759
1046.97	0.728
1056.06	0.66
1065.15	0.466
1074.24	0.383
1083.33	0.498
1092.43	0.238
1101.52	0.38
1110.61	0.716
1119.7	0.765
1128.79	0.777
1137.88	0.776
1146.97	0.765
1156.06	0.738
1165.15	0.645
1174.24	0.503
1183.33	0.33
1192.43	0.546
1201.52	0.58
1210.61	0.623
1219.7	0.65
1228.79	0.74
1237.88	0.716
1246.97	0.719
1256.06	0.733
1265.15	0.547
1274.24	0.546
1283.33	0.709
1292.43	0.653
1301.52	0.634
1310.61	0.59
1319.7	0.669
1328.79	0.619
1337.88	0.509
1346.97	0.466
1356.06	0.664
1365.15	0.641
1374.24	0.648
1383.33	0.697
1392.43	0.734
1401.52	0.734
1410.61	0.706
1419.7	0.657
1428.79	0.391
1437.88	0.609
1446.97	0.453
1456.06	0.691
1465.15	0.493
1474.24	0.198
1483.34	0.246
1492.43	0.494
1501.52	0.623
1510.61	0.628
1519.7	0.589
1528.79	0.429
1537.88	0.216
1546.97	0.187
1556.06	0.481
1565.15	0.679
1574.24	0.728
1583.34	0.756
1592.43	0.763
1601.52	0.765
1610.61	0.762
1619.7	0.745
1628.79	0.721
1637.88	0.674
1646.97	0.608
1656.06	0.53
1665.15	0.375
1674.24	0.181
1683.34	0.101
1692.43	0.173
1701.52	0.363
1710.61	0.516
1719.7	0.613
1728.79	0.684
1737.88	0.734
1746.97	0.768
1756.06	0.792
1765.15	0.808
1774.24	0.82
1783.34	0.829
1792.43	0.837
1801.52	0.844
1810.61	0.846
1819.7	0.85
1828.79	0.856
1837.88	0.86
1846.97	0.861
1856.06	0.861
1865.15	0.861
1874.24	0.863
1883.34	0.865
1892.43	0.866
1901.52	0.865
1910.61	0.866
1919.7	0.867
1928.79	0.867
1937.88	0.867
1946.97	0.867
1956.06	0.867
1965.15	0.867
1974.24	0.867
1983.34	0.865
1992.43	0.863
2001.52	0.861
2010.61	0.86
2019.7	0.86
2028.79	0.861
2037.88	0.861
2046.97	0.861
2056.06	0.861
2065.15	0.86
2074.24	0.858
2083.34	0.861
2092.43	0.862
2101.52	0.863
2110.61	0.862
2119.7	0.861
2128.79	0.858
2137.88	0.857
2146.97	0.856
2156.06	0.855
2165.15	0.855
2174.25	0.854
2183.34	0.853
2192.43	0.851
2201.52	0.851
2210.61	0.852
2219.7	0.852
2228.79	0.852
2237.88	0.852
2246.97	0.852
2256.06	0.852
2265.15	0.852
2274.25	0.853
2283.34	0.854
2292.43	0.854
2301.52	0.852
2310.61	0.85
2319.7	0.848
2328.79	0.848
2337.88	0.848
2346.97	0.849
2356.06	0.85
2365.15	0.85
2374.25	0.85
2383.34	0.849
2392.43	0.848
2401.52	0.848
2410.61	0.848
2419.7	0.847
2428.79	0.846
2437.88	0.846
2446.97	0.846
2456.06	0.846
2465.15	0.845
2474.25	0.845
2483.34	0.845
2492.43	0.844
2501.52	0.844
2510.61	0.844
2519.7	0.844
2528.79	0.843
2537.88	0.843
2546.97	0.843
2556.06	0.842
2565.15	0.842
2574.25	0.842
2583.34	0.84
2592.43	0.839
2601.52	0.837
2610.61	0.837
2619.7	0.837
2628.79	0.836
2637.88	0.836
2646.97	0.835
2656.06	0.834
2665.15	0.834
2674.25	0.833
2683.34	0.83
2692.43	0.828
2701.52	0.827
2710.61	0.826
2719.7	0.827
2728.79	0.828
2737.88	0.829
2746.97	0.827
2756.06	0.826
2765.15	0.822
2774.25	0.819
2783.34	0.814
2792.43	0.809
2801.52	0.803
2810.61	0.796
2819.7	0.777
2828.79	0.726
2837.88	0.709
2846.97	0.73
2856.06	0.767
2865.15	0.76
2874.25	0.748
2883.34	0.735
2892.43	0.694
2901.52	0.58
2910.61	0.55
2919.7	0.633
2928.79	0.688
2937.88	0.656
2946.97	0.668
2956.06	0.737
2965.16	0.789
2974.25	0.793
2983.34	0.805
2992.43	0.805
3001.52	0.793
3010.61	0.78
3019.7	0.768
3028.79	0.784
3037.88	0.798
3046.97	0.797
3056.06	0.78
3065.16	0.758
3074.25	0.774
3083.34	0.798
3092.43	0.804
3101.52	0.805
3110.61	0.805
3119.7	0.806
3128.79	0.807
3137.88	0.805
3146.97	0.798
3156.06	0.793
3165.16	0.787
3174.25	0.781
3183.34	0.776
3192.43	0.771
3201.52	0.758
3210.61	0.749
3219.7	0.738
3228.79	0.722
3237.88	0.709
3246.97	0.693
3256.06	0.673
3265.16	0.651
3274.25	0.629
3283.34	0.588
3292.43	0.499
3301.52	0.407
3310.61	0.317
3319.7	0.265
3328.79	0.363
3337.88	0.524
3346.97	0.621
3356.06	0.658
3365.16	0.7
3374.25	0.719
3383.34	0.736
3392.43	0.745
3401.52	0.75
3410.61	0.753
3419.7	0.761
3428.79	0.768
3437.88	0.774
3446.97	0.777
3456.06	0.777
3465.16	0.778
3474.25	0.78
3483.34	0.781
3492.43	0.783
3501.52	0.787
3510.61	0.79
3519.7	0.794
3528.79	0.797
3537.88	0.8
3546.97	0.802
3556.06	0.804
3565.16	0.806
3574.25	0.809
3583.34	0.814
3592.43	0.819
3601.52	0.823
3610.61	0.826
3619.7	0.827
3628.79	0.827
3637.88	0.828
3646.97	0.828
3656.06	0.829
3665.16	0.83
3674.25	0.83
3683.34	0.831
3692.43	0.832
3701.52	0.833
3710.61	0.833
3719.7	0.832
3728.79	0.831
3737.88	0.83
3746.97	0.831
3756.07	0.833
3765.16	0.834
3774.25	0.833
3783.34	0.833
3792.43	0.833
3801.52	0.832
