Infrared Spectrum: DECANOIC ACID
Formula: C10 H20 O2
CAS: 334-48-5
State: SOLID (MULL)
Melting point: 29-30 C
Class: COBLENTZ
Instrument: Not specified, most likely a prism, grating, or hybrid spectrometer.
Sampling: TRANSMISSION
Resolution: 4
Origin: WYANDOTTE CHEMICALS CORP., WYANDOTTE, MICHIGAN, USA
MICROMETERS	TRANSMITTANCE
1.987	0.977
2.0259	0.982
2.06481	0.977
2.10371	0.98
2.14261	0.974
2.18151	0.87
2.22042	0.81
2.25932	0.829
2.29822	0.811
2.33713	0.839
2.37603	0.883
2.41493	0.904
2.45383	0.918
2.49274	0.922
2.53164	0.933
2.57054	0.957
2.60945	0.951
2.64835	0.969
2.68725	0.949
2.72615	0.914
2.76506	0.899
2.80396	0.878
2.84286	0.841
2.88177	0.802
2.92067	0.761
2.95957	0.708
2.99847	0.593
3.03738	0.474
3.07628	0.299
3.11518	0.191
3.15409	0.137
3.19299	0.095
3.23189	0.074
3.27079	0.066
3.3097	0.055
3.3486	0.05
3.3875	0.037
3.42641	0.038
3.46531	0.045
3.50421	0.045
3.54311	0.064
3.58202	0.082
3.62092	0.084
3.65982	0.095
3.69873	0.09
3.73763	0.084
3.77653	0.087
3.81543	0.1
3.85434	0.115
3.89324	0.123
3.93214	0.134
3.97105	0.173
4.00995	0.222
4.04885	0.272
4.08775	0.332
4.12666	0.366
4.16556	0.405
4.20446	0.444
4.24337	0.453
4.28227	0.474
4.32117	0.5
4.36007	0.554
4.39898	0.583
4.43788	0.588
4.47678	0.599
4.51569	0.645
4.55459	0.674
4.59349	0.68
4.6324	0.67
4.6713	0.664
4.7102	0.69
4.7491	0.703
4.78801	0.724
4.82691	0.724
4.86581	0.734
4.90472	0.747
4.94362	0.743
4.98252	0.735
5.02142	0.726
5.06033	0.724
5.09923	0.721
5.13813	0.716
5.17704	0.683
5.21594	0.67
5.25484	0.656
5.29374	0.628
5.33265	0.617
5.37155	0.599
5.41045	0.588
5.44936	0.573
5.48826	0.555
5.52716	0.481
5.56606	0.481
5.60497	0.482
5.64387	0.463
5.68277	0.47
5.72168	0.379
5.76058	0.23
5.79948	0.077
5.83838	0.043
5.87729	0.042
5.91619	0.043
5.95509	0.055
5.994	0.129
6.0329	0.236
6.0718	0.346
6.1107	0.453
6.14961	0.542
6.18851	0.612
6.22741	0.649
6.26632	0.675
6.30522	0.688
6.34412	0.677
6.38302	0.705
6.42193	0.693
6.46083	0.701
6.49973	0.693
6.53864	0.662
6.57754	0.653
6.61644	0.638
6.65534	0.589
6.69425	0.5
6.73315	0.335
6.77205	0.064
6.81096	0.071
6.84986	0.09
6.88876	0.102
6.92766	0.081
6.96657	0.072
7.00547	0.103
7.04437	0.087
7.08328	0.063
7.12218	0.2
7.16108	0.366
7.19998	0.38
7.23889	0.265
7.27779	0.259
7.31669	0.303
7.3556	0.272
7.3945	0.218
7.4334	0.348
7.4723	0.317
7.51121	0.155
7.55011	0.106
7.58901	0.147
7.62792	0.089
7.66682	0.058
7.70572	0.053
7.74462	0.055
7.78353	0.082
7.82243	0.105
7.86133	0.147
7.90024	0.111
7.93914	0.106
7.97804	0.218
8.01694	0.304
8.05585	0.32
8.09475	0.217
8.13365	0.149
8.17256	0.118
8.21146	0.236
8.25036	0.335
8.28926	0.309
8.32817	0.171
8.36707	0.084
8.40597	0.2
8.44488	0.388
8.48378	0.504
8.52268	0.557
8.56158	0.607
8.60049	0.645
8.63939	0.679
8.67829	0.717
8.7172	0.753
8.7561	0.781
8.795	0.789
8.8339	0.729
8.87281	0.562
8.91171	0.517
8.95061	0.625
8.98952	0.669
9.02842	0.711
9.06732	0.756
9.10622	0.761
9.14513	0.758
9.18403	0.732
9.22293	0.667
9.26184	0.455
9.30074	0.39
9.33964	0.56
9.37854	0.586
9.41745	0.542
9.45635	0.538
9.49525	0.585
9.53416	0.615
9.57306	0.609
9.61196	0.606
9.65086	0.58
9.68977	0.552
9.72867	0.538
9.76757	0.529
9.80648	0.508
9.84538	0.51
9.88428	0.507
9.92319	0.499
9.96209	0.484
10.001	0.478
10.0399	0.457
10.0788	0.442
10.1177	0.405
10.1566	0.384
10.1955	0.341
10.2344	0.291
10.2733	0.233
10.3122	0.188
10.3511	0.141
10.39	0.108
10.4289	0.095
10.4678	0.079
10.5067	0.071
10.5456	0.066
10.5845	0.059
10.6234	0.053
10.6623	0.051
10.7012	0.048
10.7401	0.05
10.779	0.047
10.818	0.051
10.8569	0.059
10.8958	0.069
10.9347	0.095
10.9736	0.115
11.0125	0.131
11.0514	0.15
11.0903	0.183
11.1292	0.226
11.1681	0.239
11.207	0.252
11.2459	0.246
11.2848	0.254
11.3237	0.296
11.3626	0.353
11.4015	0.374
11.4404	0.392
11.4793	0.405
11.5182	0.432
11.5571	0.45
11.596	0.47
11.6349	0.492
11.6738	0.508
11.7127	0.529
11.7516	0.541
11.7905	0.559
11.8294	0.572
11.8683	0.583
11.9072	0.583
11.9461	0.585
11.985	0.594
12.0239	0.599
12.0628	0.601
12.1017	0.568
12.1406	0.494
12.1796	0.419
12.2185	0.544
12.2574	0.646
12.2963	0.695
12.3352	0.717
12.3741	0.742
12.413	0.748
12.4519	0.753
12.4908	0.763
12.5297	0.768
12.5686	0.773
12.6075	0.782
12.6464	0.784
12.6853	0.79
12.7242	0.789
12.7631	0.781
12.802	0.76
12.8409	0.722
12.8798	0.661
12.9187	0.68
12.9576	0.745
12.9965	0.777
13.0354	0.792
13.0743	0.799
13.1132	0.8
13.1521	0.794
13.191	0.786
13.2299	0.773
13.2688	0.76
13.3077	0.747
13.3466	0.732
13.3855	0.695
13.4244	0.615
13.4633	0.466
13.5022	0.372
13.5412	0.455
13.5801	0.588
13.619	0.619
13.6579	0.609
13.6968	0.565
13.7357	0.466
13.7746	0.333
13.8135	0.223
13.8524	0.153
13.8913	0.126
13.9302	0.175
13.9691	0.314
14.008	0.448
14.0469	0.554
14.0858	0.598
14.1247	0.636
14.1636	0.645
14.2025	0.653
14.2414	0.654
14.2803	0.654
14.3192	0.64
14.3581	0.619
14.397	0.591
14.4359	0.547
14.4748	0.489
14.5137	0.418
14.5526	0.351
14.5915	0.294
14.6304	0.249
14.6693	0.228
14.7082	0.223
14.7471	0.246
14.786	0.267
14.8249	0.296
14.8638	0.327
14.9028	0.35
14.9417	0.367
14.9806	0.387
15.0195	0.387
15.0584	0.403
15.0973	0.431
15.1362	0.474
15.1751	0.495
15.214	0.507
15.2529	0.528
15.2918	0.546
15.3307	0.562
15.3696	0.568
15.4085	0.581
15.4474	0.588
15.4863	0.594
15.5252	0.593
15.5641	0.596
15.603	0.598
15.6419	0.604
15.6808	0.606
15.7197	0.602
15.7586	0.601
15.7975	0.588
15.8364	0.576
15.8753	0.576
15.9142	0.572
15.9531	0.56
15.992	0.555
