Infrared Spectrum: n-Decanoic acid
Formula: C10 H20 O2
CAS: 334-48-5
State: LIQUID (NEAT)
Class: COBLENTZ III
Instrument: BECKMAN IR-4 (HYBRID PRISM-GRATING)
Sampling: TRANSMISSION
Path length: 0.0035 CM
Resolution: 2
Origin: UNIVERSITY OF FLORIDA
1/CM	TRANSMITTANCE
668	0.5583
677	0.5879
686	0.6483
695	0.6864
704	0.6881
713	0.6152
722	0.4779
731	0.5961
740	0.6384
749	0.6683
758	0.6582
767	0.6793
776	0.6922
785	0.6859
794	0.677
803	0.6801
812	0.6875
821	0.6687
830	0.6403
839	0.6197
848	0.6161
857	0.601
866	0.5631
875	0.5214
884	0.4772
893	0.4393
902	0.3952
911	0.3423
920	0.2849
929	0.2399
938	0.2247
947	0.2637
956	0.334
965	0.4449
974	0.5374
983	0.624
992	0.6716
1001	0.6979
1010	0.7086
1019	0.7092
1028	0.7063
1037	0.7041
1046	0.6943
1055	0.6768
1064	0.6735
1073	0.6963
1082	0.7138
1091	0.7039
1100	0.6239
1109	0.5065
1118	0.5421
1127	0.6743
1136	0.7
1145	0.644
1154	0.5677
1163	0.5114
1172	0.4982
1181	0.4835
1190	0.4254
1199	0.3589
1208	0.2975
1217	0.2124
1226	0.1922
1235	0.1956
1244	0.1856
1253	0.172
1262	0.1885
1271	0.1598
1280	0.0991
1289	0.0997
1298	0.1259
1307	0.1748
1316	0.2447
1325	0.3261
1334	0.3896
1343	0.405
1352	0.4684
1361	0.5144
1370	0.5201
1379	0.4284
1388	0.4978
1397	0.4202
1406	0.1888
1415	0.0932
1424	0.1326
1433	0.1542
1442	0.1801
1451	0.1894
1460	0.1529
1469	0.1153
1478	0.4392
1487	0.615
1496	0.6685
1505	0.7024
1514	0.7198
1523	0.7318
1532	0.7436
1541	0.7513
1550	0.7528
1559	0.7553
1568	0.7561
1577	0.7526
1586	0.7473
1595	0.7379
1604	0.7251
1613	0.7089
1622	0.6873
1631	0.6629
1640	0.6369
1649	0.6045
1658	0.5009
1667	0.4632
1676	0.4104
1685	0.2196
1694	0.0744
1703	0.0234
1712	0.0054
1721	0.0051
1730	0.0324
1739	0.1264
1748	0.1892
1757	0.258
1766	0.465
1775	0.5219
1784	0.5623
1793	0.5919
1802	0.6109
1811	0.6276
1820	0.6422
1829	0.6551
1838	0.6671
1847	0.6782
1856	0.6884
1865	0.6956
1874	0.7027
1883	0.7092
1892	0.7151
1901	0.7208
1910	0.7254
1919	0.73
1928	0.7348
1937	0.7398
1946	0.7448
1955	0.7491
1964	0.7528
1973	0.7564
1982	0.7591
1991	0.7616
2000	0.764
2009	0.7648
2018	0.7656
2027	0.765
2036	0.7644
2045	0.7643
2054	0.7655
2063	0.7676
2072	0.7704
2081	0.7719
2090	0.7728
2099	0.7728
2108	0.7721
2117	0.7708
2126	0.7695
2135	0.7681
2144	0.7667
2153	0.7652
2162	0.7637
2171	0.7616
2180	0.7596
2189	0.7575
2198	0.7555
2207	0.7536
2216	0.7516
2225	0.7492
2234	0.7465
2243	0.7439
2252	0.7412
2261	0.7387
2270	0.7363
2279	0.7341
2288	0.7319
2297	0.729
2306	0.726
2315	0.7232
2324	0.7205
2333	0.7179
2342	0.7147
2351	0.7109
2360	0.7056
2369	0.6964
2378	0.684
2387	0.6694
2396	0.6602
2405	0.6513
2414	0.6413
2423	0.6293
2432	0.6168
2441	0.6041
2450	0.5913
2459	0.5786
2468	0.565
2477	0.55
2486	0.5314
2495	0.5119
2504	0.4914
2513	0.4692
2522	0.4422
2531	0.411
2540	0.3941
2549	0.3765
2558	0.3579
2567	0.344
2576	0.332
2585	0.3236
2594	0.3154
2603	0.3064
2612	0.2975
2621	0.2879
2630	0.2786
2639	0.2728
2648	0.2671
2657	0.2615
2666	0.2559
2675	0.2503
2684	0.247
2693	0.2484
2702	0.2569
2711	0.2655
2720	0.2727
2729	0.2779
2738	0.2781
2747	0.277
2756	0.2756
2765	0.2736
2774	0.2724
2783	0.2679
2792	0.2591
2801	0.2458
2810	0.2218
2819	0.201
2828	0.1702
2837	0.1373
2846	0.0932
2855	0.0485
2864	0.0052
2873	0.0052
2882	0.0053
2891	0.0054
2900	0.0055
2909	0.0056
2918	0.0057
2927	0.0057
2936	0.0058
2945	0.0059
2954	0.006
2963	0.0061
2972	0.0283
2981	0.0526
2990	0.0638
2999	0.0711
3008	0.0738
3017	0.0759
3026	0.0781
3035	0.0798
3044	0.0815
3053	0.0904
3062	0.0929
3071	0.0951
3080	0.0967
3089	0.0996
3098	0.1035
3107	0.1094
3116	0.1166
3125	0.1276
3134	0.1418
3143	0.1588
3152	0.1709
3161	0.1796
3170	0.1963
3179	0.2127
3188	0.2281
3197	0.2424
3206	0.2585
3215	0.2754
3224	0.2978
3233	0.3228
3242	0.3378
3251	0.3578
3260	0.3779
3269	0.3979
3278	0.4178
3287	0.4375
3296	0.4572
3305	0.4768
3314	0.4962
3323	0.5148
3332	0.5275
3341	0.5416
3350	0.5606
3359	0.5813
3368	0.5957
3377	0.6121
3386	0.6316
3395	0.6549
3404	0.6733
3413	0.6901
3422	0.7059
3431	0.7202
3440	0.7319
3449	0.7417
3458	0.7506
3467	0.7568
3476	0.763
3485	0.7701
3494	0.7785
3503	0.7902
3512	0.7985
3521	0.8046
3530	0.8087
3539	0.8122
3548	0.8157
3557	0.819
3566	0.8222
3575	0.8259
3584	0.8288
3593	0.8311
3602	0.833
3611	0.8347
3620	0.8355
3629	0.8362
3638	0.8368
3647	0.8374
3656	0.838
3665	0.8386
3674	0.8393
3683	0.8401
3692	0.8412
3701	0.843
3710	0.8459
3719	0.8484
3728	0.8501
3737	0.8518
3746	0.8528
3755	0.8535
3764	0.854
3773	0.8543
3782	0.8546
3791	0.8549
3800	0.8581
3809	0.855
3818	0.855
3827	0.855
3836	0.8549
3845	0.8549
3854	0.8547
3863	0.8546
3872	0.8545
3881	0.8543
3890	0.854
3899	0.8537
3908	0.8534
3917	0.8531
3926	0.8531
3935	0.8531
3944	0.8531
3953	0.8531
3962	0.853
3971	0.853
3980	0.853
3989	0.8529
3998	0.8525
