Infrared Spectrum: PHENOL, o-(2-BENZOTHIAZOLYL)-
Formula: C13 H9 N O S
CAS: 3411-95-8
State: SOLID (KBr DISC)
Melting point: 131 C
Class: COBLENTZ III
Instrument: BECKMAN IR-9 (GRATING)
Instrument parameters: ORDER CHANGES: 670, 1200, 2000 CM^-^1
Sampling: TRANSMISSION
Resolution: 2
Origin: DOW CHEMICAL COMPANY
1/CM	TRANSMITTANCE
397	0.8347
406	0.8344
415	0.8337
424	0.8314
433	0.7965
442	0.7689
451	0.7511
460	0.6315
469	0.7282
478	0.7508
487	0.7693
496	0.7665
505	0.7564
514	0.8005
523	0.786
532	0.8358
541	0.8213
550	0.8512
559	0.8645
568	0.8643
577	0.854
586	0.8518
595	0.8578
604	0.8595
613	0.8578
622	0.8568
631	0.8532
640	0.8495
649	0.8448
658	0.8347
667	0.8021
676	0.7714
685	0.6818
694	0.6681
703	0.4812
712	0.6567
721	0.547
730	0.3342
739	0.3918
748	0.2002
757	0.3262
766	0.4006
775	0.5191
784	0.7021
793	0.7787
802	0.8185
811	0.8174
820	0.2655
829	0.8174
838	0.878
847	0.8747
856	0.8221
865	0.6861
874	0.7288
883	0.8565
892	0.8533
901	0.8588
910	0.8611
919	0.8571
928	0.8232
937	0.7154
946	0.8336
955	0.8292
964	0.8025
973	0.4475
982	0.7457
991	0.8068
1000	0.819
1009	0.809
1018	0.7718
1027	0.793
1036	0.6364
1045	0.7318
1054	0.8043
1063	0.8026
1072	0.7708
1081	0.771
1090	0.7833
1099	0.7854
1108	0.7818
1117	0.7708
1126	0.7395
1135	0.6999
1144	0.7608
1153	0.5814
1162	0.7096
1171	0.6895
1180	0.7228
1189	0.6639
1198	0.5712
1207	0.4817
1216	0.2584
1225	0.2725
1234	0.6736
1243	0.5129
1252	0.3506
1261	0.5169
1270	0.365
1279	0.4889
1288	0.7265
1297	0.7193
1306	0.6558
1315	0.3709
1324	0.6675
1333	0.7337
1342	0.7267
1351	0.7141
1360	0.7038
1369	0.6776
1378	0.6498
1387	0.6225
1396	0.6134
1405	0.5489
1414	0.5262
1423	0.5688
1432	0.5068
1441	0.2777
1450	0.4965
1459	0.4401
1468	0.5086
1477	0.1965
1486	0.1068
1495	0.1959
1504	0.5697
1513	0.6791
1522	0.6956
1531	0.5651
1540	0.6159
1549	0.6749
1558	0.6568
1567	0.6433
1576	0.5052
1585	0.368
1594	0.3134
1603	0.6241
1612	0.5708
1621	0.402
1630	0.4316
1639	0.6265
1648	0.7285
1657	0.7454
1666	0.7518
1675	0.7549
1684	0.7541
1693	0.7485
1702	0.7428
1711	0.7432
1720	0.7494
1729	0.754
1738	0.7525
1747	0.7484
1756	0.7461
1765	0.7464
1774	0.7433
1783	0.7272
1792	0.7188
1801	0.7262
1810	0.735
1819	0.7287
1828	0.7278
1837	0.7306
1846	0.7315
1855	0.7289
1864	0.7221
1873	0.7176
1882	0.7196
1891	0.71
1900	0.7018
1909	0.7008
1918	0.7015
1927	0.6987
1936	0.6885
1945	0.6921
1954	0.7001
1963	0.7069
1972	0.7092
1981	0.7104
1990	0.7099
1999	0.7071
2008	0.7044
2017	0.7017
2026	0.6965
2035	0.6911
2044	0.688
2053	0.6865
2062	0.6853
2071	0.6831
2080	0.6808
2089	0.6789
2098	0.6769
2107	0.6749
2116	0.673
2125	0.6711
2134	0.6701
2143	0.6689
2152	0.6675
2161	0.6657
2170	0.6638
2179	0.6614
2188	0.6589
2197	0.6564
2206	0.6538
2215	0.6511
2224	0.6487
2233	0.6461
2242	0.6432
2251	0.6398
2260	0.6366
2269	0.6333
2278	0.6299
2287	0.626
2296	0.6222
2305	0.6201
2314	0.6181
2323	0.6162
2332	0.6159
2341	0.6162
2350	0.6167
2359	0.6162
2368	0.6147
2377	0.6128
2386	0.61
2395	0.606
2404	0.6019
2413	0.5997
2422	0.5973
2431	0.5951
2440	0.5929
2449	0.5908
2458	0.5888
2467	0.586
2476	0.583
2485	0.5803
2494	0.5776
2503	0.5749
2512	0.5719
2521	0.5689
2530	0.566
2539	0.563
2548	0.5597
2557	0.5562
2566	0.5527
2575	0.5498
2584	0.5474
2593	0.5449
2602	0.5425
2611	0.54
2620	0.5375
2629	0.535
2638	0.5309
2647	0.5264
2656	0.522
2665	0.5176
2674	0.515
2683	0.5124
2692	0.5099
2701	0.5077
2710	0.5051
2719	0.5021
2728	0.4981
2737	0.4928
2746	0.4856
2755	0.4812
2764	0.4775
2773	0.4732
2782	0.4715
2791	0.472
2800	0.4717
2809	0.4736
2818	0.474
2827	0.4731
2836	0.4686
2845	0.4614
2854	0.4537
2863	0.4485
2872	0.449
2881	0.4521
2890	0.457
2899	0.457
2908	0.453
2917	0.4482
2926	0.4432
2935	0.4381
2944	0.4372
2953	0.4374
2962	0.4401
2971	0.4423
2980	0.4429
2989	0.4421
2998	0.4378
3007	0.4335
3016	0.4317
3025	0.4294
3034	0.4268
3043	0.4212
3052	0.4151
3061	0.401
3070	0.3978
3079	0.4039
3088	0.4194
3097	0.4374
3106	0.4421
3115	0.4446
3124	0.4471
3133	0.4494
3142	0.4516
3151	0.4535
3160	0.4552
3169	0.457
3178	0.4589
3187	0.4608
3196	0.4627
3205	0.4643
3214	0.466
3223	0.4673
3232	0.4683
3241	0.4693
3250	0.47
3259	0.4701
3268	0.4681
3277	0.4656
3286	0.4627
3295	0.4612
3304	0.4614
3313	0.4616
3322	0.4618
3331	0.461
3340	0.4587
3349	0.4555
3358	0.4523
3367	0.4491
3376	0.4459
3385	0.4426
3394	0.4394
3403	0.4359
3412	0.4325
3421	0.4289
3430	0.425
3439	0.421
3448	0.4165
3457	0.4112
3466	0.406
3475	0.4075
3484	0.4142
3493	0.4206
3502	0.4253
3511	0.427
3520	0.4288
3529	0.4307
3538	0.4327
3547	0.4346
3556	0.4365
3565	0.4378
3574	0.4392
3583	0.4405
3592	0.4421
3601	0.4435
3610	0.4451
3619	0.4465
3628	0.4474
3637	0.4476
3646	0.4474
3655	0.4472
3664	0.447
3673	0.4468
3682	0.4465
3691	0.4465
3700	0.4466
3709	0.4466
3718	0.4466
3727	0.4467
3736	0.4467
3745	0.4464
3754	0.4462
3763	0.4456
3772	0.4448
3781	0.444
3790	0.4433
3799	0.4425
