Infrared Spectrum: BENZOPHENONE, 4-FLUORO-
Formula: C13 H9 F O
CAS: 345-83-5
State: SOLUTION (2% IN CCl4 FOR 3800-1330, 2% IN CS2 FOR 1330-400 CM^-^1)
Class: COBLENTZ III
Instrument: DOW KBr FOREPRISM-GRATING
Instrument parameters: BLAZED AT 3.5, 12.0, 20.0 MICRON, CHANGED AT 5.0, 7.5, 14.9 MICRON
Sampling: TRANSMISSION
Path length: 0.011, 0.010 CM
Resolution: 4
Origin: DOW CHEMICAL COMPANY
1/CM	TRANSMITTANCE
382.799	0.251
391.545	0.267
400.292	0.346
409.038	0.628
417.785	0.78
426.531	0.819
435.277	0.836
444.024	0.859
452.77	0.868
461.516	0.881
470.263	0.885
479.009	0.889
487.756	0.881
496.502	0.823
505.248	0.894
513.995	0.913
522.741	0.92
531.488	0.928
540.234	0.931
548.98	0.894
557.727	0.912
566.473	0.926
575.219	0.928
583.966	0.928
592.712	0.893
601.459	0.737
610.205	0.915
618.951	0.913
627.698	0.913
636.444	0.926
645.191	0.912
653.937	0.907
662.683	0.941
671.43	0.913
680.176	0.911
688.922	0.904
697.669	0.364
706.415	0.935
715.162	0.984
723.908	0.982
732.654	0.7959
741.401	0.7852
750.147	1.002
758.894	1.017
767.64	1.023
776.386	1.016
785.133	0.994
793.879	0.87
802.625	1.02
811.372	0.998
820.118	0.98
828.865	1.017
837.611	0.956
846.357	0.692
855.104	0.83
863.85	0.915
872.597	0.957
881.343	0.993
890.089	1.03
898.836	1.047
907.582	1.035
916.329	0.9219
925.075	0.948
933.821	0.7709
942.568	1.021
951.314	1.03
960.06	1.017
968.807	1.035
977.553	1.039
986.3	1.028
995.046	1.021
1003.79	1.013
1012.54	0.935
1021.29	1.004
1030.03	1.004
1038.78	1.002
1047.52	1
1056.27	0.997
1065.02	0.982
1073.76	0.965
1082.51	0.976
1091.26	0.956
1100	0.937
1108.75	0.957
1117.5	0.963
1126.24	0.965
1134.99	0.956
1143.73	0.926
1152.48	0.6979
1161.23	0.934
1169.97	0.957
1178.72	0.919
1187.47	0.96
1196.21	0.957
1204.96	0.963
1213.71	0.956
1222.45	0.8699
1231.2	0.622
1239.94	0.49
1248.69	0.837
1257.44	0.887
1266.18	0.786
1274.93	0.2468
1283.68	0.7661
1292.42	0.862
1301.17	0.715
1309.92	0.823
1318.66	0.7071
1327.41	0.931
1336.16	0.95
1344.9	0.953
1353.65	0.943
1362.39	0.948
1371.14	0.963
1379.89	0.978
1388.63	0.974
1397.38	0.964
1406.13	0.918
1414.87	0.923
1423.62	0.956
1432.37	0.959
1441.11	0.946
1449.86	0.7661
1458.6	0.954
1467.35	0.956
1476.1	0.945
1484.84	0.908
1493.59	0.867
1502.34	0.6869
1511.08	0.6541
1519.83	0.719
1528.58	0.674
1537.32	0.583
1546.07	0.498
1554.81	0.497
1563.56	0.577
1572.31	0.643
1581.05	0.624
1589.8	0.639
1598.55	0.3668
1607.29	0.6352
1616.04	0.852
1624.79	0.905
1633.53	0.911
1642.28	0.903
1651.02	0.87
1659.77	0.5688
1668.52	0.2692
1677.26	0.8181
1686.01	0.931
1694.76	0.953
1703.5	0.956
1712.25	0.959
1721	0.967
1729.74	0.971
1738.49	0.972
1747.24	0.974
1755.98	0.978
1764.73	0.976
1773.47	0.969
1782.22	0.969
1790.97	0.976
1799.71	0.978
1808.46	0.974
1817.21	0.968
1825.95	0.974
1834.7	0.975
1843.45	0.976
1852.19	0.976
1860.94	0.976
1869.68	0.975
1878.43	0.978
1887.18	0.976
1895.92	0.972
1904.67	0.968
1913.42	0.961
1922.16	0.969
1930.91	0.978
1939.66	0.979
1948.4	0.982
1957.15	0.979
1965.89	0.971
1974.64	0.969
1983.39	0.976
1992.13	0.976
2000.88	0.975
2009.63	0.978
2018.37	0.979
2027.12	0.979
2035.87	0.9785
2044.61	0.976
2053.36	0.976
2062.1	0.978
2070.85	0.9786
2079.6	0.982
2088.34	0.982
2097.09	0.982
2105.84	0.983
2114.58	0.984
2123.33	0.984
2132.08	0.9836
2140.82	0.986
2149.57	0.983
2158.32	0.984
2167.06	0.986
2175.81	0.9847
2184.55	0.986
2193.3	0.9823
2202.05	0.983
2210.79	0.983
2219.54	0.983
2228.29	0.983
2237.03	0.982
2245.78	0.9793
2254.53	0.9766
2263.27	0.975
2272.02	0.9696
2280.76	0.9655
2289.51	0.964
2298.26	0.964
2307	0.968
2315.75	0.967
2324.5	0.9688
2333.24	0.971
2341.99	0.9706
2350.74	0.978
2359.48	0.98
2368.23	0.98
2376.97	0.982
2385.72	0.983
2394.47	0.984
2403.21	0.984
2411.96	0.982
2420.71	0.978
2429.45	0.9839
2438.2	0.9869
2446.95	0.986
2455.69	0.984
2464.44	0.984
2473.19	0.986
2481.93	0.9888
2490.68	0.989
2499.42	0.989
2508.17	0.987
2516.92	0.987
2525.66	0.9871
2534.41	0.9869
2543.16	0.989
2551.9	0.9841
2560.65	0.986
2569.4	0.984
2578.14	0.983
2586.89	0.98
2595.63	0.982
2604.38	0.984
2613.13	0.986
2621.87	0.986
2630.62	0.987
2639.37	0.989
2648.11	0.989
2656.86	0.987
2665.61	0.99
2674.35	0.99
2683.1	0.989
2691.84	0.991
2700.59	0.991
2709.34	0.99
2718.08	0.99
2726.83	0.9869
2735.58	0.987
2744.32	0.987
2753.07	0.989
2761.82	0.989
2770.56	0.9901
2779.31	0.99
2788.05	0.9908
2796.8	0.989
2805.55	0.9935
2814.29	0.993
2823.04	0.9926
2831.79	0.991
2840.53	0.9914
2849.28	0.993
2858.03	0.9908
2866.77	0.9868
2875.52	0.989
2884.27	0.99
2893.01	0.991
2901.76	0.993
2910.5	0.9933
2919.25	0.9922
2928	0.9876
2936.74	0.9893
2945.49	0.99
2954.24	0.9907
2962.98	0.989
2971.73	0.9903
2980.48	0.993
2989.22	0.994
2997.97	0.991
3006.71	0.9897
3015.46	0.9837
3024.21	0.9706
3032.95	0.9674
3041.7	0.9727
3050.45	0.9665
3059.19	0.9479
3067.94	0.945
3076.69	0.963
3085.43	0.9578
3094.18	0.9806
3102.92	0.9864
3111.67	0.9944
3120.42	0.998
3129.16	0.998
3137.91	1
3146.66	1
3155.4	1
3164.15	1
3172.9	1
3181.64	1
3190.39	1
3199.14	1.0005
3207.88	1.001
3216.63	1.002
3225.37	1.001
3234.12	1
3242.87	1
3251.61	1
3260.36	1
3269.11	1
3277.85	0.998
3286.6	0.997
3295.35	0.995
3304.09	0.991
3312.84	0.989
3321.58	0.99
3330.33	0.9922
3339.08	0.9936
3347.82	0.995
3356.57	0.993
3365.32	0.9936
3374.06	0.9917
3382.81	0.9933
3391.56	0.9917
3400.3	0.99
3409.05	0.9907
3417.79	0.993
3426.54	0.99
3435.29	0.9916
3444.03	0.991
3452.78	0.991
3461.53	0.991
3470.27	0.9915
3479.02	0.993
3487.77	0.993
3496.51	0.994
3505.26	0.993
3514	0.9942
3522.75	0.9932
3531.5	0.9915
3540.24	0.994
3548.99	0.994
3557.74	0.993
3566.48	0.993
3575.23	0.994
3583.98	0.994
3592.72	0.995
3601.47	0.997
3610.22	0.995
3618.96	0.995
3627.71	0.994
3636.45	0.9939
3645.2	0.994
3653.95	0.994
3662.69	0.994
3671.44	0.993
3680.19	0.993
3688.93	0.991
3697.68	0.993
3706.43	0.99
3715.17	0.9909
3723.92	0.991
3732.66	0.99
3741.41	0.991
3750.16	0.991
3758.9	0.991
3767.65	0.993
3776.4	0.993
3785.14	0.991
