Infrared Spectrum: o-Fluoroaniline
Formula: C6 H6 F N
CAS: 348-54-9
State: SOLUTION (10% CCl4 FOR 3800-1340, 10% CS2 FOR 1340-450 CM^-^1)
Class: COBLENTZ III
Instrument: DOW KBr FOREPRISM-GRATING
Instrument parameters: BLAZED AT 3.5, 12.0, 20.0 MICRON AND CHANGED AT 5.0, 7.5, 14.9 MICRON
Sampling: TRANSMISSION
Path length: 0.011 CM, 0.011 CM
Resolution: 2
Origin: DOW CHEMICAL COMPANY
1/CM	TRANSMITTANCE
3806	0.9287
3797.03	0.9294
3788.06	0.9296
3779.1	0.9322
3770.13	0.9332
3761.16	0.9346
3752.19	0.936
3743.22	0.9378
3734.26	0.9382
3725.29	0.9397
3716.32	0.9396
3707.35	0.9387
3698.38	0.9406
3689.42	0.9408
3680.45	0.9396
3671.48	0.9388
3662.51	0.9392
3653.55	0.9394
3644.58	0.9396
3635.61	0.94
3626.64	0.9396
3617.67	0.9399
3608.71	0.94
3599.74	0.9395
3590.77	0.9388
3581.8	0.9363
3572.83	0.9336
3563.87	0.928
3554.9	0.9206
3545.93	0.9102
3536.96	0.8937
3527.99	0.8688
3519.03	0.8203
3510.06	0.67
3501.09	0.3812
3492.12	0.3571
3483.15	0.42
3474.19	0.4992
3465.22	0.5784
3456.25	0.6576
3447.28	0.7367
3438.32	0.7613
3429.35	0.7432
3420.38	0.6402
3411.41	0.248
3402.44	0.2366
3393.48	0.3568
3384.51	0.48
3375.54	0.6051
3366.57	0.7075
3357.6	0.7652
3348.64	0.8035
3339.67	0.8346
3330.7	0.8647
3321.73	0.8869
3312.76	0.9017
3303.8	0.9153
3294.83	0.9226
3285.86	0.9275
3276.89	0.9315
3267.92	0.9303
3258.96	0.9279
3249.99	0.922
3241.02	0.9095
3232.05	0.8925
3223.08	0.8901
3214.12	0.8891
3205.15	0.8801
3196.18	0.8797
3187.21	0.8915
3178.25	0.9071
3169.28	0.9187
3160.31	0.9275
3151.34	0.931
3142.37	0.9316
3133.41	0.9321
3124.44	0.9248
3115.47	0.9109
3106.5	0.8937
3097.53	0.8707
3088.57	0.8408
3079.6	0.7512
3070.63	0.7209
3061.66	0.7284
3052.69	0.6695
3043.73	0.6357
3034.76	0.7029
3025.79	0.8042
3016.82	0.8746
3007.85	0.8922
2998.89	0.9076
2989.92	0.9225
2980.95	0.9332
2971.98	0.9355
2963.02	0.9373
2954.05	0.9374
2945.08	0.9387
2936.11	0.9394
2927.14	0.9316
2918.18	0.9223
2909.21	0.9226
2900.24	0.9264
2891.27	0.9327
2882.3	0.9378
2873.34	0.9421
2864.37	0.9456
2855.4	0.9455
2846.43	0.941
2837.46	0.9466
2828.5	0.9479
2819.53	0.9483
2810.56	0.9443
2801.59	0.9399
2792.62	0.9418
2783.66	0.9439
2774.69	0.9412
2765.72	0.9406
2756.75	0.943
2747.78	0.9454
2738.82	0.9444
2729.85	0.943
2720.88	0.945
2711.91	0.9488
2702.95	0.9477
2693.98	0.9455
2685.01	0.9432
2676.04	0.9404
2667.07	0.932
2658.11	0.9182
2649.14	0.9154
2640.17	0.9142
2631.2	0.8928
2622.23	0.894
2613.27	0.9142
2604.3	0.9287
2595.33	0.9378
2586.36	0.9416
2577.39	0.9408
2568.43	0.9389
2559.46	0.9395
2550.49	0.9446
2541.52	0.9434
2532.55	0.9401
2523.59	0.9428
2514.62	0.9446
2505.65	0.9453
2496.68	0.9446
2487.72	0.9383
2478.75	0.9271
2469.78	0.9289
2460.81	0.9345
2451.84	0.938
2442.88	0.942
2433.91	0.9441
2424.94	0.9456
2415.97	0.9425
2407	0.9386
2398.04	0.9366
2389.07	0.9376
2380.1	0.9442
2371.13	0.95
2362.16	0.9469
2353.2	0.9515
2344.23	0.9521
2335.26	0.9485
2326.29	0.948
2317.32	0.9452
2308.36	0.9397
2299.39	0.935
2290.42	0.9327
2281.45	0.9305
2272.48	0.9316
2263.52	0.9213
2254.55	0.9308
2245.58	0.9384
2236.61	0.9416
2227.65	0.9434
2218.68	0.9426
2209.71	0.9422
2200.74	0.94
2191.77	0.9388
2182.81	0.9392
2173.84	0.9407
2164.87	0.9399
2155.9	0.9406
2146.93	0.9412
2137.97	0.9419
2129	0.9429
2120.03	0.9434
2111.06	0.9427
2102.09	0.9413
2093.13	0.9392
2084.16	0.938
2075.19	0.9228
2066.22	0.9064
2057.25	0.9037
2048.29	0.9124
2039.32	0.9246
2030.35	0.925
2021.38	0.9222
2012.41	0.9244
2003.45	0.9287
1994.48	0.9301
1985.51	0.9224
1976.54	0.9065
1967.58	0.9017
1958.61	0.9388
1949.64	0.9127
1940.67	0.9127
1931.7	0.9085
1922.74	0.8667
1913.77	0.8529
1904.8	0.8892
1895.83	0.8986
1886.86	0.8875
1877.9	0.8275
1868.93	0.8641
1859.96	0.9053
1850.99	0.9099
1842.02	0.899
1833.06	0.8775
1824.09	0.9032
1815.12	0.9138
1806.15	0.9107
1797.18	0.901
1788.22	0.9057
1779.25	0.9123
1770.28	0.9096
1761.31	0.8666
1752.35	0.8251
1743.38	0.8702
1734.41	0.8966
1725.44	0.9051
1716.47	0.9104
1707.51	0.8994
1698.54	0.8948
1689.57	0.8927
1680.6	0.8676
1671.63	0.8387
1662.67	0.8178
1653.7	0.7583
1644.73	0.5267
1635.76	0.0167
1626.79	0.033
1617.83	0.2061
1608.86	0.4324
1599.89	0.4094
1590.92	0.3268
1581.95	0.3744
1572.99	0.6117
1564.02	0.6981
1555.05	0.737
1546.08	0.731
1537.11	0.6862
1528.15	0.3606
1519.18	0.0372
1510.21	0.0104
1501.24	0.0173
1492.28	0.4137
1483.31	0.5876
1474.34	0.7183
1465.37	0.4184
1456.4	0.6014
1447.44	0.7676
1438.47	0.8851
1429.5	0.9067
1420.53	0.9071
1411.56	0.9114
1402.6	0.8845
1393.63	0.84
1384.66	0.9253
1375.69	0.9372
1366.72	0.9411
1357.76	0.9337
1348.79	0.9117
1339.82	0.8602
1330.85	0.661
1321.88	0.5173
1312.92	0.6678
1303.95	0.0729
1294.98	0.3001
1286.01	0.6039
1277.05	0.4455
1268.08	0.1419
1259.11	0.5682
1250.14	0.7647
1241.17	0.8032
1232.21	0.8127
1223.24	0.7716
1214.27	0.5536
1205.3	0.0063
1196.33	0.1184
1187.37	0.2329
1178.4	0.7038
1169.43	0.8067
1160.46	0.8363
1151.49	0.5345
1142.53	0.7827
1133.56	0.5531
1124.59	0.6451
1115.62	0.8284
1106.65	0.8766
1097.69	0.9034
1088.72	0.9055
1079.75	0.8922
1070.78	0.8521
1061.81	0.7343
1052.85	0.7956
1043.88	0.8784
1034.91	0.849
1025.94	0.5838
1016.98	0.665
1008.01	0.9006
999.039	0.9179
990.072	0.9266
981.104	0.932
972.136	0.927
963.168	0.9146
954.2	0.9071
945.232	0.9014
936.264	0.8886
927.296	0.8583
918.328	0.4155
909.36	0.7718
900.392	0.8762
891.424	0.871
882.456	0.851
873.488	0.7999
864.521	0.7299
855.553	0.502
846.585	0.5764
837.617	0.6469
828.649	0.7359
819.681	0.7798
810.713	0.7958
801.745	0.7856
792.777	0.7534
783.809	0.7096
774.841	0.6269
765.873	0.2023
756.905	0.1918
747.938	0.0325
738.97	0.0001
730.002	0.2941
721.034	0.58
712.066	0.64
703.098	0.6594
694.13	0.6442
685.162	0.605
676.194	0.5956
667.226	0.6182
658.258	0.5833
649.29	0.5559
640.322	0.5523
631.355	0.5507
622.387	0.55
613.419	0.5517
604.451	0.5512
595.483	0.549
586.515	0.5421
577.547	0.5113
568.579	0.512
559.611	0.5382
550.643	0.4623
541.675	0.4705
532.707	0.4726
523.739	0.4899
514.771	0.4932
505.804	0.4909
496.836	0.4913
487.868	0.5034
478.9	0.5146
469.932	0.5273
460.964	0.5411
451.996	0.5568
