Infrared Spectrum: 3,5-Xylenol, Aplha,Aplha,Aplha,Aplha',Aplha',Aplha'-hexafluoro-
Formula: C8 H4 F6 O
CAS: 349-58-6
State: LIQUID (NEAT)
Class: COBLENTZ III
Instrument: BECKMAN IR-9 (GRATING)
Instrument parameters: ORDER CHANGES: 670, 1200, 2000 CM^-^1
Sampling: TRANSMISSION
Path length: CAPILLARY
Resolution: 2
Origin: DOW CHEMICAL COMPANY
1/CM	TRANSMITTANCE
3800	0.7946
3791	0.7939
3782	0.7934
3773	0.7935
3764	0.7938
3755	0.794
3746	0.793
3737	0.7871
3728	0.7761
3719	0.7567
3710	0.7337
3701	0.7153
3692	0.7099
3683	0.7125
3674	0.7325
3665	0.7391
3656	0.7343
3647	0.721
3638	0.6525
3629	0.4589
3620	0.3426
3611	0.3544
3602	0.3807
3593	0.4935
3584	0.5972
3575	0.6124
3566	0.6117
3557	0.5947
3548	0.5681
3539	0.5428
3530	0.5191
3521	0.4987
3512	0.4804
3503	0.4617
3494	0.4462
3485	0.4346
3476	0.4241
3467	0.4152
3458	0.4109
3449	0.4086
3440	0.4082
3431	0.4089
3422	0.4112
3413	0.4152
3404	0.4201
3395	0.4262
3386	0.4332
3377	0.4404
3368	0.4491
3359	0.458
3350	0.4675
3341	0.4771
3332	0.487
3323	0.4969
3314	0.5069
3305	0.5166
3296	0.5265
3287	0.537
3278	0.5475
3269	0.5578
3260	0.5682
3251	0.579
3242	0.5902
3233	0.6002
3224	0.61
3215	0.619
3206	0.6281
3197	0.6375
3188	0.6471
3179	0.6571
3170	0.6661
3161	0.6721
3152	0.676
3143	0.6787
3134	0.6808
3125	0.6815
3116	0.6745
3107	0.6701
3098	0.666
3089	0.6665
3080	0.6743
3071	0.6978
3062	0.7293
3053	0.7499
3044	0.7612
3035	0.7614
3026	0.7593
3017	0.7633
3008	0.7714
2999	0.7787
2990	0.7853
2981	0.7842
2972	0.7846
2963	0.7896
2954	0.7899
2945	0.7908
2936	0.7928
2927	0.7961
2918	0.7997
2909	0.8011
2900	0.7999
2891	0.7949
2882	0.7886
2873	0.7868
2864	0.7868
2855	0.7918
2846	0.7986
2837	0.8034
2828	0.8062
2819	0.8094
2810	0.8122
2801	0.8141
2792	0.8158
2783	0.8169
2774	0.8154
2765	0.8135
2756	0.8107
2747	0.8075
2738	0.8046
2729	0.8035
2720	0.8036
2711	0.8039
2702	0.8034
2693	0.8025
2684	0.8021
2675	0.8021
2666	0.8044
2657	0.8137
2648	0.8156
2639	0.8172
2630	0.8189
2621	0.8192
2612	0.8176
2603	0.8175
2594	0.8168
2585	0.8154
2576	0.8121
2567	0.8069
2558	0.8124
2549	0.8182
2540	0.8221
2531	0.8247
2522	0.8266
2513	0.8281
2504	0.8283
2495	0.8244
2486	0.8201
2477	0.8225
2468	0.8215
2459	0.8221
2450	0.823
2441	0.8218
2432	0.8208
2423	0.8205
2414	0.8221
2405	0.8243
2396	0.8278
2387	0.8373
2378	0.8456
2369	0.8475
2360	0.8408
2351	0.8371
2342	0.834
2333	0.8333
2324	0.8325
2315	0.832
2306	0.8315
2297	0.8306
2288	0.8298
2279	0.8298
2270	0.8295
2261	0.8286
2252	0.8265
2243	0.8241
2234	0.8251
2225	0.8311
2216	0.8389
2207	0.8392
2198	0.8347
2189	0.8318
2180	0.8312
2171	0.8337
2162	0.8378
2153	0.84
2144	0.8401
2135	0.8403
2126	0.8425
2117	0.8437
2108	0.8446
2099	0.8455
2090	0.8461
2081	0.8466
2072	0.8471
2063	0.8473
2054	0.8459
2045	0.843
2036	0.8398
2027	0.8366
2018	0.8335
2009	0.8303
2000	0.8278
1991	0.8268
1982	0.8302
1973	0.8323
1964	0.8298
1955	0.8282
1946	0.8273
1937	0.8257
1928	0.8252
1919	0.825
1910	0.8257
1901	0.827
1892	0.8278
1883	0.8268
1874	0.8265
1865	0.8268
1856	0.828
1847	0.8284
1838	0.8268
1829	0.8209
1820	0.813
1811	0.8021
1802	0.7874
1793	0.7657
1784	0.7528
1775	0.7482
1766	0.7601
1757	0.7747
1748	0.7887
1739	0.7999
1730	0.8062
1721	0.8088
1712	0.7969
1703	0.7908
1694	0.7945
1685	0.7948
1676	0.7891
1667	0.7765
1658	0.7508
1649	0.6987
1640	0.5314
1631	0.4937
1622	0.411
1613	0.2578
1604	0.6596
1595	0.7185
1586	0.7451
1577	0.7672
1568	0.7658
1559	0.7685
1550	0.7698
1541	0.7605
1532	0.7532
1523	0.7426
1514	0.7018
1505	0.6126
1496	0.6469
1487	0.6029
1478	0.4685
1469	0.1544
1460	0.2374
1451	0.653
1442	0.7217
1433	0.7083
1424	0.6721
1415	0.569
1406	0.4062
1397	0.1096
1388	0.01
1379	0.0701
1370	0.1686
1361	0.2043
1352	0.2174
1343	0.2231
1334	0.2345
1325	0.4403
1316	0.2271
1307	0.0716
1298	0.0178
1289	0.001
1280	0.0252
1271	0.2685
1262	0.4488
1253	0.3732
1244	0.3578
1235	0.3605
1226	0.3044
1217	0.2037
1208	0.0835
1199	0.026
1190	0.0121
1181	0.0083
1172	0.0138
1163	0.0211
1154	0.0089
1145	0.0054
1136	0.0078
1127	0.0117
1118	0.0599
1109	0.1015
1100	0.3182
1091	0.422
1082	0.6236
1073	0.7442
1064	0.7996
1055	0.831
1046	0.8513
1037	0.8559
1028	0.857
1019	0.8546
1010	0.8011
1001	0.5578
992	0.8146
983	0.8072
974	0.8099
965	0.7988
956	0.635
947	0.0515
938	0.1033
929	0.6808
920	0.7611
911	0.7083
902	0.5462
893	0.3337
884	0.1255
875	0.4191
866	0.6984
857	0.5899
848	0.4928
839	0.8121
830	0.8233
821	0.8241
812	0.8214
803	0.8171
794	0.8131
785	0.8061
776	0.7951
767	0.7881
758	0.7778
749	0.7651
740	0.7441
731	0.1381
722	0.7334
713	0.6915
704	0.1767
695	0.6448
686	0.0626
677	0.6961
668	0.739
659	0.7336
650	0.7278
641	0.7189
632	0.6785
623	0.6599
614	0.7274
605	0.7388
596	0.741
587	0.7391
578	0.7371
569	0.7375
560	0.739
551	0.7284
542	0.6751
533	0.6808
524	0.7218
515	0.7357
506	0.7311
497	0.7057
488	0.6528
479	0.6664
470	0.6598
461	0.6443
452	0.6178
443	0.5833
434	0.5487
425	0.4845
416	0.4299
407	0.4212
