Infrared Spectrum: 1-Fluoro-4-nitrobenzene
Formula: C6 H4 F N O2
CAS: 350-46-9
State: SOLUTION (2% CCl4 FOR 3800-1340, 2% CS2 FOR 1340-450)
Class: COBLENTZ III
Instrument: DOW KBr FOREPRISM-GRATING
Instrument parameters: BLAZED AT 3.5, 12.0, 20.0 MICRON AND CHANGED AT 5.0, 7.5, 14.9 MICRON
Sampling: TRANSMISSION
Path length: 0.0113 CM, 0.0109 CM
Resolution: 2
Origin: DOW CHEMICAL COMPANY
1/CM	TRANSMITTANCE
3820	0.946
3811	0.9446
3802	0.9425
3793	0.9429
3784	0.9406
3775	0.9389
3766	0.9419
3757	0.9484
3748	0.9472
3739	0.9367
3730	0.9358
3721	0.9338
3712	0.9343
3703	0.9356
3694	0.9342
3685	0.9326
3676	0.9327
3667	0.9325
3658	0.9321
3649	0.9316
3640	0.9312
3631	0.9321
3622	0.9313
3613	0.9307
3604	0.9296
3595	0.9284
3586	0.9271
3577	0.9256
3568	0.9224
3559	0.9203
3550	0.9191
3541	0.9169
3532	0.9144
3523	0.9102
3514	0.9077
3505	0.9051
3496	0.9028
3487	0.9007
3478	0.8984
3469	0.8964
3460	0.8943
3451	0.8926
3442	0.8912
3433	0.8896
3424	0.8877
3415	0.8872
3406	0.8879
3397	0.8871
3388	0.8872
3379	0.8875
3370	0.8893
3361	0.8882
3352	0.8889
3343	0.8913
3334	0.8933
3325	0.8956
3316	0.8986
3307	0.902
3298	0.9046
3289	0.9072
3280	0.9101
3271	0.9139
3262	0.9165
3253	0.9191
3244	0.921
3235	0.9244
3226	0.9252
3217	0.9289
3208	0.9299
3199	0.9331
3190	0.9345
3181	0.9347
3172	0.9359
3163	0.9378
3154	0.9375
3145	0.9353
3136	0.934
3127	0.9222
3118	0.918
3109	0.9266
3100	0.9206
3091	0.882
3082	0.891
3073	0.9299
3064	0.9392
3055	0.9409
3046	0.9452
3037	0.9549
3028	0.9491
3019	0.9505
3010	0.9496
3001	0.9482
2992	0.9493
2983	0.9477
2974	0.9476
2965	0.9477
2956	0.946
2947	0.9452
2938	0.9446
2929	0.9418
2920	0.9389
2911	0.9382
2902	0.9376
2893	0.9371
2884	0.9364
2875	0.9173
2866	0.9008
2857	0.9105
2848	0.9226
2839	0.9336
2830	0.939
2821	0.9436
2812	0.9445
2803	0.948
2794	0.9498
2785	0.9499
2776	0.9504
2767	0.9478
2758	0.9449
2749	0.9439
2740	0.9431
2731	0.9421
2722	0.9414
2713	0.9415
2704	0.9414
2695	0.9415
2686	0.9416
2677	0.9418
2668	0.942
2659	0.942
2650	0.9395
2641	0.9349
2632	0.9357
2623	0.936
2614	0.9363
2605	0.9366
2596	0.9372
2587	0.9379
2578	0.9385
2569	0.9391
2560	0.9398
2551	0.9405
2542	0.9411
2533	0.9418
2524	0.9419
2515	0.9415
2506	0.9411
2497	0.941
2488	0.941
2479	0.9422
2470	0.9404
2461	0.9364
2452	0.9311
2443	0.9337
2434	0.9386
2425	0.9405
2416	0.9425
2407	0.9441
2398	0.9414
2389	0.9424
2380	0.9448
2371	0.9472
2362	0.9428
2353	0.9458
2344	0.9443
2335	0.9403
2326	0.9434
2317	0.9439
2308	0.9428
2299	0.9417
2290	0.9419
2281	0.9389
2272	0.9374
2263	0.9383
2254	0.9381
2245	0.9399
2236	0.9414
2227	0.9416
2218	0.9419
2209	0.9432
2200	0.9442
2191	0.9437
2182	0.9443
2173	0.9464
2164	0.9455
2155	0.9458
2146	0.9459
2137	0.9462
2128	0.9466
2119	0.9469
2110	0.9458
2101	0.9447
2092	0.9442
2083	0.9443
2074	0.9451
2065	0.9461
2056	0.9445
2047	0.9373
2038	0.9368
2029	0.9379
2020	0.9403
2011	0.9409
2002	0.9409
1993	0.9389
1984	0.9369
1975	0.9368
1966	0.94
1957	0.9428
1948	0.9414
1939	0.9438
1930	0.9447
1921	0.9426
1912	0.9132
1903	0.9221
1894	0.9368
1885	0.9386
1876	0.9399
1867	0.9404
1858	0.9394
1849	0.9385
1840	0.9382
1831	0.937
1822	0.9378
1813	0.9399
1804	0.9374
1795	0.937
1786	0.9386
1777	0.9289
1768	0.9214
1759	0.9299
1750	0.9357
1741	0.9373
1732	0.9378
1723	0.9383
1714	0.9385
1705	0.938
1696	0.9369
1687	0.9355
1678	0.9326
1669	0.9167
1660	0.9097
1651	0.9109
1642	0.9015
1633	0.8935
1624	0.4229
1615	0.7597
1606	0.7259
1597	0.2228
1588	0.6599
1579	0.7258
1570	0.7399
1561	0.7176
1552	0.6573
1543	0.5891
1534	0.0341
1525	0.5223
1516	0.7882
1507	0.778
1498	0.1236
1489	0.8252
1480	0.8787
1471	0.8609
1462	0.8697
1453	0.9087
1444	0.9179
1435	0.9211
1426	0.9209
1417	0.9314
1408	0.9543
1399	0.9628
1390	0.9615
1381	0.9526
1372	0.9096
1363	0.4998
1354	0.3925
1345	0.1682
1336	0.7979
1327	0.8659
1318	0.8605
1309	0.9221
1300	0.9312
1291	0.9301
1282	0.8981
1273	0.95
1264	0.9504
1255	0.9065
1246	0.2098
1237	0.6955
1228	0.7789
1219	0.892
1210	0.9456
1201	0.9655
1192	0.9714
1183	0.9723
1174	0.9639
1165	0.9624
1156	0.9387
1147	0.6118
1138	0.9448
1129	0.9622
1120	0.9649
1111	0.6466
1102	0.9061
1093	0.9064
1084	0.8826
1075	0.9413
1066	0.9553
1057	0.9593
1048	0.9602
1039	0.9609
1030	0.9618
1021	0.9631
1012	0.9144
1003	0.951
994	0.9559
985	0.96
976	0.9606
967	0.9607
958	0.9621
949	0.9588
940	0.9551
931	0.9561
922	0.9573
913	0.9601
904	0.9657
895	0.9657
886	0.9665
877	0.9566
868	0.4437
859	0.6877
850	0.2987
841	0.8405
832	0.9007
823	0.9403
814	0.9437
805	0.9452
796	0.9446
787	0.9397
778	0.9378
769	0.9421
760	0.9401
751	0.3296
742	0.8534
733	0.9388
724	0.9489
715	0.9512
706	0.9526
697	0.9559
688	0.9486
679	0.7678
670	0.9341
661	0.9621
652	0.9532
643	0.9461
634	0.9427
625	0.9357
616	0.4519
607	0.9153
598	0.9501
589	0.9582
580	0.9602
571	0.9621
562	0.9611
553	0.9598
544	0.96
535	0.962
526	0.9518
517	0.9512
508	0.9491
499	0.9225
490	0.88
481	0.8793
472	0.8937
463	0.8944
454	0.893
445	0.8937
436	0.8933
