Infrared Spectrum: Pentafluoroethane
Formula: C2 H F5
CAS: 354-33-6
State: gas
Melting point: -102.78 C
Boiling point: -48.55 C
Class: IUPAC A
Instrument: IFS66V (Bruker)
Instrument parameters: KBr Beam Splitter; MCT Detector; Multipass cell
Sampling: 1 L/min Flow
Resolution: 0.4820
Temperature: 23 C
Pressure: 101.3 Pa
Origin: NIST, Analytical Chemistry Division, 301-975-3108
cm-1	(micromol/mol)-1m-1 (base 10)
575.17	7.94293e-05
583.848	0.000109251
592.526	3.79871e-05
601.205	4.38844e-06
609.883	1.68346e-06
618.561	2.14814e-06
627.239	1.72557e-06
635.917	8.52927e-07
644.595	1.15597e-06
653.274	2.8604e-06
661.952	1.2864e-06
670.63	2.58397e-06
679.308	-1.30785e-06
687.986	6.43024e-07
696.664	3.50279e-06
705.343	3.11304e-05
714.021	0.000140547
722.699	0.000235671
731.377	0.000180657
740.055	7.88167e-05
748.733	7.32746e-06
757.412	2.21726e-06
766.09	2.52455e-06
774.768	3.3428e-06
783.446	4.38167e-06
792.124	4.63728e-06
800.802	2.90805e-06
809.481	3.01343e-06
818.159	2.84874e-06
826.837	2.85008e-06
835.515	5.55996e-06
844.193	2.56693e-05
852.872	0.00012732
861.55	0.000245489
870.228	0.00020878
878.906	0.000157142
887.584	2.69701e-05
896.262	1.50843e-05
904.941	1.12087e-05
913.619	4.20594e-06
922.297	5.50854e-06
930.975	7.04862e-06
939.653	8.52384e-06
948.331	4.69384e-06
957.01	1.98204e-06
965.688	1.83709e-06
974.366	2.141e-06
983.044	2.61219e-06
991.722	1.83891e-06
1000.4	1.95872e-06
1009.08	1.41077e-06
1017.76	7.51346e-07
1026.43	9.21713e-07
1035.11	5.2715e-07
1043.79	1.63899e-06
1052.47	2.23891e-06
1061.15	7.9041e-06
1069.83	1.85419e-05
1078.5	2.45777e-05
1087.18	2.92172e-05
1095.86	5.52478e-05
1104.54	0.000114378
1113.22	0.000163116
1121.89	0.000183998
1130.57	0.000492623
1139.25	0.00168668
1147.93	0.0019363
1156.61	0.000467954
1165.29	9.05857e-05
1173.96	7.20143e-05
1182.64	0.000210099
1191.32	0.000628538
1200	0.00198677
1208.68	0.00293252
1217.35	0.0025142
1226.03	0.00185775
1234.71	0.000760756
1243.39	0.000130353
1252.07	6.00213e-05
1260.75	6.01329e-05
1269.42	6.96916e-05
1278.1	8.52866e-05
1286.78	0.000182169
1295.46	0.000679456
1304.14	0.000834591
1312.81	0.000538211
1321.49	0.00035489
1330.17	4.19942e-05
1338.85	1.42392e-05
1347.53	3.15329e-05
1356.21	4.91931e-05
1364.88	3.06147e-05
1373.56	1.71018e-05
1382.24	1.7434e-05
1390.92	2.53685e-05
1399.6	1.45661e-05
1408.27	8.20884e-06
1416.95	6.64215e-06
1425.63	1.23748e-05
1434.31	1.78875e-05
1442.99	2.64871e-05
1451.67	2.165e-05
1460.34	1.16677e-05
1469.02	3.314e-06
1477.7	1.67584e-06
1486.38	3.1012e-07
1495.06	1.36906e-06
1503.73	1.97833e-06
1512.41	-6.80706e-07
1521.09	-6.62666e-06
1529.77	1.77548e-06
1538.45	-1.12102e-07
1547.13	2.74171e-06
1555.8	3.92887e-06
1564.48	3.43737e-06
1573.16	3.62725e-06
1581.84	4.04181e-06
1590.52	2.66037e-06
1599.19	1.32737e-06
1607.87	8.78953e-07
1616.55	-9.84161e-06
1625.23	1.20793e-06
1633.91	2.14065e-06
1642.59	2.51468e-06
1651.26	1.23138e-06
1659.94	1.3819e-06
1668.62	9.08325e-07
1677.3	1.80314e-06
1685.98	9.56138e-07
1694.65	8.17305e-07
1703.33	2.41662e-06
1712.01	5.25239e-06
1720.69	7.18891e-06
1729.37	4.73152e-06
1738.05	2.30803e-06
1746.72	8.01811e-07
1755.4	1.0534e-06
1764.08	1.66659e-06
1772.76	-6.53082e-06
1781.44	2.3192e-06
1790.11	2.88814e-06
1798.79	2.97417e-06
1807.47	2.15822e-06
1816.15	1.45552e-06
1824.83	-3.41963e-09
1833.5	9.89476e-07
1842.18	4.3522e-07
1850.86	6.09512e-07
1859.54	1.24715e-06
1868.22	1.32528e-06
1876.9	1.32296e-06
1885.57	3.73176e-07
1894.25	2.84931e-07
1902.93	2.89791e-07
1911.61	1.24748e-06
1920.29	2.62985e-06
1928.96	5.62745e-06
1937.64	6.33477e-06
1946.32	4.03125e-06
1955	1.79764e-06
1963.68	2.43696e-07
1972.36	3.41344e-07
1981.03	1.5552e-08
1989.71	-1.26854e-07
1998.39	2.55428e-07
2007.07	5.15185e-07
2015.75	2.49855e-07
2024.42	2.68746e-07
2033.1	5.02572e-07
2041.78	7.08194e-07
2050.46	2.07787e-06
2059.14	3.85528e-06
2067.82	3.04035e-06
2076.49	2.55292e-06
2085.17	1.45415e-06
2093.85	7.77015e-07
2102.53	1.44486e-07
2111.21	6.07591e-07
2119.88	8.1669e-07
2128.56	7.64614e-08
2137.24	3.14998e-07
2145.92	1.24764e-06
2154.6	3.68541e-06
2163.28	4.27042e-06
2171.95	3.07353e-06
2180.63	1.88079e-06
2189.31	3.31886e-07
2197.99	-1.77479e-07
2206.67	2.8814e-07
2215.34	2.12028e-07
2224.02	3.55878e-07
2232.7	6.19076e-07
2241.38	1.95276e-06
2250.06	4.11493e-06
2258.74	5.7821e-06
2267.41	7.02413e-06
2276.09	1.29103e-05
2284.77	1.21617e-05
2293.45	3.83703e-06
2302.13	2.32216e-06
2310.8	6.8187e-07
2319.48	-1.02214e-07
2328.16	-2.25397e-07
2336.84	7.486e-07
2345.52	-1.61195e-07
2354.2	-3.02819e-06
2362.87	-8.63833e-06
2371.55	-3.21322e-06
2380.23	4.42343e-07
2388.91	2.45638e-06
2397.59	4.73559e-06
2406.26	6.35628e-06
2414.94	6.39739e-06
2423.62	2.63409e-06
2432.3	1.0395e-06
2440.98	1.20319e-06
2449.66	9.79734e-07
2458.33	-1.20196e-08
2467.01	-4.27119e-07
2475.69	-7.71257e-07
2484.37	1.29058e-06
2493.05	3.41757e-06
2501.72	6.09812e-06
2510.4	4.04011e-06
2519.08	1.33882e-06
2527.76	1.13004e-07
2536.44	2.80406e-07
2545.12	2.31618e-07
2553.79	-1.40128e-07
2562.47	1.2563e-06
2571.15	1.01867e-06
2579.83	5.64569e-07
2588.51	7.44653e-07
2597.18	2.18764e-06
2605.86	2.57235e-06
2614.54	-5.58272e-07
2623.22	-7.60285e-07
2631.9	-7.40596e-07
2640.58	-2.88758e-07
2649.25	7.43187e-07
2657.93	1.24952e-06
2666.61	1.13669e-06
2675.29	1.20714e-06
2683.97	6.99892e-07
2692.64	4.51136e-08
2701.32	-2.57516e-07
2710	-1.40678e-08
2718.68	-6.12702e-07
2727.36	-1.42435e-07
2736.03	1.65568e-07
2744.71	3.77516e-07
2753.39	-5.58057e-07
2762.07	-6.24995e-07
2770.75	1.32198e-07
2779.43	7.84961e-07
2788.1	7.97355e-07
2796.78	1.03812e-06
2805.46	-3.9174e-07
2814.14	8.48398e-07
2822.82	2.15305e-07
2831.49	1.00407e-06
2840.17	2.05077e-06
2848.85	2.75585e-06
2857.53	1.34509e-06
2866.21	8.95334e-07
2874.89	3.89215e-07
2883.56	9.48171e-07
2892.24	-2.61729e-07
2900.92	-6.57681e-07
2909.6	-2.50106e-08
2918.28	-8.44749e-07
2926.95	-5.65497e-07
2935.63	-8.03059e-07
2944.31	2.47559e-07
2952.99	2.81672e-07
2961.67	-6.44836e-07
2970.35	1.83934e-06
2979.02	1.00685e-05
2987.7	4.42116e-05
2996.38	6.93245e-05
3005.06	6.43241e-05
3013.74	4.39245e-05
3022.41	7.18105e-06
3031.09	-5.54052e-08
3039.77	3.74838e-07
3048.45	-5.33047e-07
3057.13	-2.77452e-07
3065.81	5.6454e-07
3074.48	4.21942e-07
3083.16	-3.14806e-07
3091.84	-6.90313e-07
3100.52	-4.35962e-07
3109.2	-5.54707e-07
3117.87	-9.60937e-07
3126.55	-4.93663e-07
3135.23	-1.57266e-07
3143.91	-5.16229e-07
3152.59	-1.48172e-07
3161.27	-8.3432e-07
3169.94	-8.34632e-07
3178.62	-5.96939e-07
3187.3	-1.24307e-07
3195.98	-1.4095e-07
3204.66	-5.09743e-08
3213.33	-4.91833e-07
3222.01	2.76299e-07
3230.69	-4.00584e-07
3239.37	-4.18118e-07
3248.05	1.67198e-07
3256.73	-9.79395e-08
3265.4	2.99155e-07
3274.08	-5.20001e-08
3282.76	-1.16941e-06
3291.44	-5.73835e-07
3300.12	-1.08487e-06
3308.79	-8.72059e-07
3317.47	-3.85024e-07
3326.15	-1.04397e-06
3334.83	-3.04088e-07
3343.51	-9.5309e-07
3352.19	-7.8941e-07
3360.86	-9.09373e-07
3369.54	-1.24154e-07
3378.22	-1.94289e-07
3386.9	-1.0612e-06
3395.58	-1.18168e-06
3404.25	-1.38268e-06
3412.93	-7.20981e-07
3421.61	-1.64206e-06
3430.29	-1.14687e-06
3438.97	-1.18866e-06
3447.65	-1.77881e-06
3456.32	-6.81008e-07
3465	-9.44177e-07
3473.68	-8.80819e-07
3482.36	-1.75731e-06
3491.04	-1.83105e-06
3499.71	-6.82797e-07
3508.39	-7.62795e-07
3517.07	-1.33027e-06
3525.75	-1.51167e-06
3534.43	-5.88769e-07
3543.1	-1.71637e-06
3551.78	-2.22039e-06
3560.46	-1.76197e-06
3569.14	-1.1331e-06
3577.82	-1.51349e-06
3586.5	-4.38059e-06
3595.17	-2.23015e-06
3603.85	-1.0227e-06
3612.53	-4.73151e-06
3621.21	-2.38976e-06
3629.89	-5.57577e-06
3638.56	-1.84836e-06
3647.24	-4.5193e-06
3655.92	-3.46211e-06
3664.6	-1.25935e-06
3673.28	-1.46649e-06
3681.96	-1.84342e-06
3690.63	-2.81202e-06
3699.31	-1.90233e-06
3707.99	-1.47303e-06
3716.67	-1.40196e-06
3725.35	-1.73409e-06
3734.02	-2.05473e-06
3742.7	-1.47829e-06
3751.38	-3.25118e-06
3760.06	-3.07435e-06
3768.74	-1.87379e-06
3777.42	-2.08775e-06
3786.09	-2.07153e-06
3794.77	-2.2016e-06
3803.45	-2.50138e-06
3812.13	-1.7022e-06
3820.81	-5.67043e-06
3829.48	-2.09954e-06
3838.16	-7.4226e-06
3846.84	-1.32977e-06
3855.52	-1.10082e-06
3864.2	-1.43637e-06
3872.88	-2.0842e-06
3881.55	-2.74969e-06
3890.23	-2.0517e-06
3898.91	-3.20718e-06
3907.59	-2.1565e-06
3916.27	-2.93376e-06
3924.94	-2.33452e-06
3933.62	-3.04591e-06
3942.3	-1.83946e-06
3950.98	-1.32038e-06
3959.66	-2.38599e-06
3968.34	-1.85157e-06
