Infrared Spectrum: Pentafluoroethane
Formula: C2 H F5
CAS: 354-33-6
State: gas
Melting point: -102.78 C
Boiling point: -48.55 C
Class: IUPAC A
Instrument: IFS66V (Bruker)
Instrument parameters: KBr Beam Splitter; MCT Detector; Multipass cell
Sampling: 1 L/min Flow
Resolution: 0.4820
Temperature: 23 C
Pressure: 101.3 Pa
Origin: NIST, Analytical Chemistry Division, 301-975-3108
cm-1	(micromol/mol)-1m-1 (base 10)
575.17	7.97444e-05
583.848	0.000109795
592.526	3.78022e-05
601.205	4.53784e-06
609.883	1.81781e-06
618.561	2.00871e-06
627.239	1.43666e-06
635.917	6.16213e-07
644.595	1.38067e-06
653.274	2.98186e-06
661.952	1.52941e-06
670.63	2.78031e-06
679.308	-7.49422e-07
687.986	6.76657e-07
696.664	3.43623e-06
705.343	3.0841e-05
714.021	0.000140291
722.699	0.00023394
731.377	0.000180543
740.055	7.88952e-05
748.733	7.22931e-06
757.412	2.30427e-06
766.09	2.58067e-06
774.768	3.37499e-06
783.446	4.37186e-06
792.124	4.69782e-06
800.802	2.85091e-06
809.481	3.04059e-06
818.159	2.98353e-06
826.837	2.92077e-06
835.515	5.62823e-06
844.193	2.56841e-05
852.872	0.000127347
861.55	0.000245062
870.228	0.000208977
878.906	0.000157183
887.584	2.69924e-05
896.262	1.50204e-05
904.941	1.12731e-05
913.619	4.2438e-06
922.297	5.56256e-06
930.975	7.07684e-06
939.653	8.44878e-06
948.331	4.62066e-06
957.01	1.91356e-06
965.688	1.81701e-06
974.366	2.14846e-06
983.044	2.57927e-06
991.722	1.90511e-06
1000.4	1.90862e-06
1009.08	1.54211e-06
1017.76	8.04467e-07
1026.43	8.6661e-07
1035.11	5.57043e-07
1043.79	1.68712e-06
1052.47	2.36787e-06
1061.15	7.87635e-06
1069.83	1.84004e-05
1078.5	2.46657e-05
1087.18	2.93132e-05
1095.86	5.51871e-05
1104.54	0.00011441
1113.22	0.000163512
1121.89	0.000184399
1130.57	0.000492755
1139.25	0.00168619
1147.93	0.00193374
1156.61	0.000467718
1165.29	9.049e-05
1173.96	7.19898e-05
1182.64	0.00021003
1191.32	0.00062867
1200	0.00197847
1208.68	0.00293159
1217.35	0.00251521
1226.03	0.00185837
1234.71	0.000760964
1243.39	0.000130202
1252.07	5.99724e-05
1260.75	6.01255e-05
1269.42	6.96486e-05
1278.1	8.53918e-05
1286.78	0.000182529
1295.46	0.000679344
1304.14	0.00083562
1312.81	0.000537924
1321.49	0.000354764
1330.17	4.198e-05
1338.85	1.41785e-05
1347.53	3.15026e-05
1356.21	4.9046e-05
1364.88	3.06336e-05
1373.56	1.70305e-05
1382.24	1.74468e-05
1390.92	2.53258e-05
1399.6	1.43588e-05
1408.27	8.24204e-06
1416.95	6.67112e-06
1425.63	1.22733e-05
1434.31	1.77868e-05
1442.99	2.64264e-05
1451.67	2.18259e-05
1460.34	1.1686e-05
1469.02	3.3045e-06
1477.7	1.67769e-06
1486.38	3.67239e-07
1495.06	1.3006e-06
1503.73	1.8939e-06
1512.41	-3.72816e-07
1521.09	-6.05161e-06
1529.77	1.76926e-06
1538.45	-5.1182e-07
1547.13	2.772e-06
1555.8	3.98385e-06
1564.48	3.28095e-06
1573.16	3.67725e-06
1581.84	3.94074e-06
1590.52	2.60266e-06
1599.19	1.38818e-06
1607.87	9.60893e-07
1616.55	-9.03469e-06
1625.23	1.2433e-06
1633.91	2.18809e-06
1642.59	2.51952e-06
1651.26	1.29366e-06
1659.94	1.473e-06
1668.62	7.48418e-07
1677.3	1.78308e-06
1685.98	9.33798e-07
1694.65	7.45275e-07
1703.33	2.44967e-06
1712.01	5.3191e-06
1720.69	7.17356e-06
1729.37	4.74514e-06
1738.05	2.2219e-06
1746.72	6.99055e-07
1755.4	1.01335e-06
1764.08	1.6178e-06
1772.76	-5.33754e-06
1781.44	2.30851e-06
1790.11	2.8868e-06
1798.79	2.96188e-06
1807.47	2.12644e-06
1816.15	1.40821e-06
1824.83	-1.68075e-07
1833.5	9.83033e-07
1842.18	4.5409e-07
1850.86	5.96466e-07
1859.54	1.2843e-06
1868.22	1.27163e-06
1876.9	1.26448e-06
1885.57	4.23648e-07
1894.25	2.93418e-07
1902.93	2.8587e-07
1911.61	1.20139e-06
1920.29	2.62382e-06
1928.96	5.60099e-06
1937.64	6.29133e-06
1946.32	4.03825e-06
1955	1.76894e-06
1963.68	2.97438e-07
1972.36	3.29932e-07
1981.03	5.85484e-08
1989.71	-6.87745e-08
1998.39	3.35538e-07
2007.07	4.89225e-07
2015.75	2.82337e-07
2024.42	2.76593e-07
2033.1	5.06836e-07
2041.78	7.23673e-07
2050.46	2.02375e-06
2059.14	3.81059e-06
2067.82	3.09121e-06
2076.49	2.57058e-06
2085.17	1.41276e-06
2093.85	7.55737e-07
2102.53	1.77671e-07
2111.21	7.00248e-07
2119.88	7.91774e-07
2128.56	1.13608e-07
2137.24	3.3898e-07
2145.92	1.25644e-06
2154.6	3.57727e-06
2163.28	4.28187e-06
2171.95	3.17956e-06
2180.63	1.8821e-06
2189.31	3.30416e-07
2197.99	-1.46917e-07
2206.67	3.37481e-07
2215.34	2.6983e-07
2224.02	3.37528e-07
2232.7	6.43352e-07
2241.38	1.96741e-06
2250.06	4.08677e-06
2258.74	5.82004e-06
2267.41	7.04163e-06
2276.09	1.29416e-05
2284.77	1.21861e-05
2293.45	3.81536e-06
2302.13	2.25141e-06
2310.8	5.65017e-07
2319.48	-3.52836e-07
2328.16	-5.22337e-07
2336.84	6.46415e-07
2345.52	-3.23151e-07
2354.2	-3.06754e-06
2362.87	-7.21258e-06
2371.55	-2.82606e-06
2380.23	3.83307e-07
2388.91	2.34915e-06
2397.59	4.67883e-06
2406.26	6.37652e-06
2414.94	6.34272e-06
2423.62	2.58289e-06
2432.3	1.0324e-06
2440.98	1.19549e-06
2449.66	9.78013e-07
2458.33	-9.58987e-08
2467.01	-5.19179e-07
2475.69	-6.2673e-07
2484.37	1.26243e-06
2493.05	3.42496e-06
2501.72	6.02796e-06
2510.4	4.11676e-06
2519.08	1.27325e-06
2527.76	1.33475e-07
2536.44	1.9589e-07
2545.12	1.62581e-07
2553.79	-1.02793e-07
2562.47	1.21598e-06
2571.15	1.0514e-06
2579.83	5.91923e-07
2588.51	6.74863e-07
2597.18	2.10442e-06
2605.86	2.48354e-06
2614.54	-5.66814e-07
2623.22	-6.81899e-07
2631.9	-7.23924e-07
2640.58	-2.39712e-07
2649.25	7.45297e-07
2657.93	1.25065e-06
2666.61	1.13121e-06
2675.29	1.22821e-06
2683.97	7.04414e-07
2692.64	8.54579e-08
2701.32	-2.16335e-07
2710	-1.27814e-07
2718.68	-5.82486e-07
2727.36	-1.48248e-07
2736.03	1.61854e-07
2744.71	3.42225e-07
2753.39	-5.51891e-07
2762.07	-5.59091e-07
2770.75	1.83445e-07
2779.43	7.24066e-07
2788.1	8.0327e-07
2796.78	9.17697e-07
2805.46	-3.55037e-07
2814.14	7.76128e-07
2822.82	1.98637e-07
2831.49	1.02492e-06
2840.17	2.08633e-06
2848.85	2.6726e-06
2857.53	1.37744e-06
2866.21	8.69942e-07
2874.89	4.01257e-07
2883.56	7.43903e-07
2892.24	-2.8671e-07
2900.92	-6.35665e-07
2909.6	-1.21757e-07
2918.28	-7.72919e-07
2926.95	-5.98289e-07
2935.63	-6.55659e-07
2944.31	1.99419e-07
2952.99	2.03217e-07
2961.67	-6.86574e-07
2970.35	1.79891e-06
2979.02	9.9831e-06
2987.7	4.41674e-05
2996.38	6.9159e-05
3005.06	6.422e-05
3013.74	4.3933e-05
3022.41	7.12067e-06
3031.09	7.34492e-09
3039.77	2.94506e-07
3048.45	-5.0637e-07
3057.13	-2.47374e-07
3065.81	5.62132e-07
3074.48	4.62337e-07
3083.16	-3.10888e-07
3091.84	-6.98797e-07
3100.52	-4.14713e-07
3109.2	-5.51698e-07
3117.87	-8.89477e-07
3126.55	-4.74797e-07
3135.23	-8.93832e-08
3143.91	-4.90334e-07
3152.59	-1.59064e-07
3161.27	-7.67721e-07
3169.94	-7.15979e-07
3178.62	-6.59515e-07
3187.3	-1.11734e-07
3195.98	-1.943e-07
3204.66	-9.43198e-08
3213.33	-4.33845e-07
3222.01	1.92383e-07
3230.69	-3.1585e-07
3239.37	-2.71118e-07
3248.05	1.98196e-07
3256.73	-1.7343e-07
3265.4	1.95213e-07
3274.08	-7.18121e-09
3282.76	-1.14918e-06
3291.44	-5.83803e-07
3300.12	-1.08952e-06
3308.79	-8.1458e-07
3317.47	-3.79051e-07
3326.15	-1.06187e-06
3334.83	-3.43509e-07
3343.51	-1.06355e-06
3352.19	-7.46453e-07
3360.86	-9.04033e-07
3369.54	-1.43628e-07
3378.22	-2.16582e-07
3386.9	-1.0817e-06
3395.58	-1.15307e-06
3404.25	-1.25235e-06
3412.93	-6.88211e-07
3421.61	-1.53043e-06
3430.29	-1.09445e-06
3438.97	-1.04606e-06
3447.65	-1.63302e-06
3456.32	-6.75234e-07
3465	-9.63709e-07
3473.68	-8.85421e-07
3482.36	-1.66061e-06
3491.04	-1.81182e-06
3499.71	-8.21834e-07
3508.39	-7.40153e-07
3517.07	-1.34788e-06
3525.75	-1.50212e-06
3534.43	-7.35947e-07
3543.1	-1.62084e-06
3551.78	-2.10277e-06
3560.46	-1.66506e-06
3569.14	-1.14567e-06
3577.82	-1.4395e-06
3586.5	-3.97898e-06
3595.17	-2.17109e-06
3603.85	-1.12571e-06
3612.53	-4.2272e-06
3621.21	-2.21915e-06
3629.89	-5.67319e-06
3638.56	-1.98639e-06
3647.24	-4.45189e-06
3655.92	-3.94962e-06
3664.6	-1.28606e-06
3673.28	-1.46826e-06
3681.96	-1.85288e-06
3690.63	-2.78208e-06
3699.31	-1.95434e-06
3707.99	-1.57244e-06
3716.67	-1.36664e-06
3725.35	-1.86828e-06
3734.02	-2.22794e-06
3742.7	-1.58526e-06
3751.38	-3.31616e-06
3760.06	-3.12734e-06
3768.74	-1.80262e-06
3777.42	-1.99343e-06
3786.09	-2.04064e-06
3794.77	-2.15101e-06
3803.45	-2.40955e-06
3812.13	-1.61726e-06
3820.81	-5.0828e-06
3829.48	-2.02112e-06
3838.16	-8.03406e-06
3846.84	-1.42019e-06
3855.52	-1.12254e-06
3864.2	-1.37835e-06
3872.88	-2.1067e-06
3881.55	-2.61562e-06
3890.23	-2.08554e-06
3898.91	-3.30237e-06
3907.59	-2.12681e-06
3916.27	-2.76396e-06
3924.94	-2.3818e-06
3933.62	-2.98299e-06
3942.3	-1.92495e-06
3950.98	-1.35718e-06
3959.66	-2.34577e-06
3968.34	-1.78455e-06
