Infrared Spectrum: Pentafluoroethane
Formula: C2 H F5
CAS: 354-33-6
State: gas
Melting point: -102.78 C
Boiling point: -48.55 C
Class: IUPAC A
Instrument: IFS66V (Bruker)
Instrument parameters: KBr Beam Splitter; MCT Detector; Multipass cell
Sampling: 1 L/min Flow
Resolution: 0.9640
Temperature: 23 C
Pressure: 101.3 Pa
Origin: NIST, Analytical Chemistry Division, 301-975-3108
cm-1	(micromol/mol)-1m-1 (base 10)
575.17	8.21567e-05
583.848	0.000109609
592.526	3.78076e-05
601.205	5.10441e-06
609.883	2.04978e-06
618.561	2.00851e-06
627.239	1.38845e-06
635.917	5.59422e-07
644.595	2.02261e-06
653.274	3.00633e-06
661.952	1.99825e-06
670.63	2.70852e-06
679.308	3.5826e-07
687.986	9.90768e-07
696.664	4.05695e-06
705.343	3.15774e-05
714.021	0.00013896
722.699	0.000229691
731.377	0.000180992
740.055	7.95447e-05
748.733	8.27152e-06
757.412	2.81989e-06
766.09	2.8997e-06
774.768	3.66042e-06
783.446	4.66479e-06
792.124	4.8167e-06
800.802	3.1492e-06
809.481	3.24791e-06
818.159	3.21249e-06
826.837	3.65879e-06
835.515	6.49773e-06
844.193	2.68874e-05
852.872	0.000127316
861.55	0.000243696
870.228	0.000215662
878.906	0.00015652
887.584	2.8407e-05
896.262	1.55646e-05
904.941	1.17683e-05
913.619	4.70285e-06
922.297	5.98129e-06
930.975	7.42613e-06
939.653	8.55363e-06
948.331	4.76466e-06
957.01	2.04893e-06
965.688	1.90377e-06
974.366	2.30761e-06
983.044	2.72615e-06
991.722	2.23923e-06
1000.4	2.09745e-06
1009.08	1.93594e-06
1017.76	1.2629e-06
1026.43	1.16356e-06
1035.11	1.10054e-06
1043.79	2.13475e-06
1052.47	3.18517e-06
1061.15	8.5445e-06
1069.83	1.87813e-05
1078.5	2.57072e-05
1087.18	3.08003e-05
1095.86	5.67789e-05
1104.54	0.000115794
1113.22	0.000165424
1121.89	0.000190424
1130.57	0.000500946
1139.25	0.00166361
1147.93	0.0019079
1156.61	0.000474698
1165.29	9.8671e-05
1173.96	7.927e-05
1182.64	0.00021767
1191.32	0.000637141
1200	0.00192161
1208.68	0.00288736
1217.35	0.00250489
1226.03	0.00185396
1234.71	0.000766204
1243.39	0.000139133
1252.07	6.4519e-05
1260.75	6.32643e-05
1269.42	7.22e-05
1278.1	8.85805e-05
1286.78	0.000187994
1295.46	0.000673688
1304.14	0.000842642
1312.81	0.000550148
1321.49	0.000354701
1330.17	4.65344e-05
1338.85	1.64131e-05
1347.53	3.24239e-05
1356.21	4.88063e-05
1364.88	3.1174e-05
1373.56	1.78394e-05
1382.24	1.79114e-05
1390.92	2.54125e-05
1399.6	1.45994e-05
1408.27	8.67085e-06
1416.95	6.95548e-06
1425.63	1.23764e-05
1434.31	1.77988e-05
1442.99	2.62474e-05
1451.67	2.20073e-05
1460.34	1.17547e-05
1469.02	3.45976e-06
1477.7	1.77931e-06
1486.38	7.07e-07
1495.06	1.14538e-06
1503.73	1.84343e-06
1512.41	4.47916e-07
1521.09	-4.03057e-06
1529.77	1.75076e-06
1538.45	-1.48849e-06
1547.13	2.76741e-06
1555.8	3.80424e-06
1564.48	3.21615e-06
1573.16	3.72568e-06
1581.84	3.89601e-06
1590.52	2.57219e-06
1599.19	1.53558e-06
1607.87	1.08448e-06
1616.55	-6.26354e-06
1625.23	1.28689e-06
1633.91	2.10661e-06
1642.59	2.44748e-06
1651.26	1.07862e-06
1659.94	1.61127e-06
1668.62	5.03787e-07
1677.3	1.72209e-06
1685.98	6.76977e-07
1694.65	3.88451e-07
1703.33	2.27687e-06
1712.01	5.23781e-06
1720.69	7.03306e-06
1729.37	4.7206e-06
1738.05	2.16641e-06
1746.72	6.93191e-07
1755.4	8.7521e-07
1764.08	1.41741e-06
1772.76	-2.95663e-06
1781.44	2.22967e-06
1790.11	2.75272e-06
1798.79	2.91033e-06
1807.47	2.19884e-06
1816.15	1.38927e-06
1824.83	-2.49433e-07
1833.51	9.31801e-07
1842.18	4.91786e-07
1850.86	6.08137e-07
1859.54	1.31522e-06
1868.22	1.22965e-06
1876.9	1.15489e-06
1885.57	4.57942e-07
1894.25	2.98726e-07
1902.93	3.39034e-07
1911.61	1.16281e-06
1920.29	2.68366e-06
1928.96	5.57223e-06
1937.64	6.19508e-06
1946.32	4.01819e-06
1955	1.78387e-06
1963.68	3.5985e-07
1972.36	3.18349e-07
1981.03	1.4883e-07
1989.71	4.92208e-08
1998.39	3.98059e-07
2007.07	4.91571e-07
2015.75	3.53939e-07
2024.42	3.31991e-07
2033.1	5.38264e-07
2041.78	8.14799e-07
2050.46	1.95751e-06
2059.14	3.76713e-06
2067.82	3.21917e-06
2076.49	2.63883e-06
2085.17	1.42923e-06
2093.85	7.39858e-07
2102.53	3.17832e-07
2111.21	6.83467e-07
2119.88	6.64044e-07
2128.56	2.02227e-07
2137.24	4.21342e-07
2145.92	1.26563e-06
2154.6	3.35188e-06
2163.28	4.26446e-06
2171.95	3.39651e-06
2180.63	1.90484e-06
2189.31	3.97179e-07
2197.99	-3.26793e-08
2206.67	3.09895e-07
2215.34	3.52269e-07
2224.02	3.47791e-07
2232.7	7.38465e-07
2241.38	1.99722e-06
2250.06	4.06463e-06
2258.74	5.86065e-06
2267.41	7.11638e-06
2276.09	1.27579e-05
2284.77	1.20301e-05
2293.45	3.86168e-06
2302.13	2.1529e-06
2310.8	5.48173e-07
2319.48	-4.90276e-07
2328.16	-1.38627e-06
2336.84	1.48619e-07
2345.52	-6.4672e-07
2354.2	-2.57668e-06
2362.87	-4.9088e-06
2371.55	-1.97631e-06
2380.23	2.5303e-07
2388.91	2.20413e-06
2397.59	4.66349e-06
2406.26	6.4249e-06
2414.94	6.22734e-06
2423.62	2.49774e-06
2432.3	1.09292e-06
2440.98	1.25867e-06
2449.66	9.65906e-07
2458.33	-1.35963e-07
2467.01	-6.21484e-07
2475.69	-4.75659e-07
2484.37	1.1667e-06
2493.05	3.40971e-06
2501.72	5.8486e-06
2510.4	4.17946e-06
2519.08	1.27482e-06
2527.76	1.95774e-07
2536.44	7.69962e-08
2545.12	8.82264e-08
2553.79	3.40107e-08
2562.47	1.20063e-06
2571.15	1.1779e-06
2579.83	6.96509e-07
2588.51	6.45429e-07
2597.18	1.97789e-06
2605.86	2.30335e-06
2614.54	-4.66248e-07
2623.22	-5.13708e-07
2631.9	-6.74634e-07
2640.58	-1.20487e-07
2649.25	7.71006e-07
2657.93	1.2716e-06
2666.61	1.17682e-06
2675.29	1.17533e-06
2683.97	6.99474e-07
2692.64	2.04963e-07
2701.32	-1.39503e-07
2710	-2.57312e-07
2718.68	-4.43082e-07
2727.36	-2.00881e-07
2736.03	2.09252e-07
2744.71	2.49862e-07
2753.39	-4.85907e-07
2762.07	-4.39975e-07
2770.75	2.50637e-07
2779.43	5.82439e-07
2788.1	7.43503e-07
2796.78	6.99936e-07
2805.46	-1.82757e-07
2814.14	5.858e-07
2822.82	2.01834e-07
2831.49	1.08987e-06
2840.17	2.27148e-06
2848.85	2.62854e-06
2857.53	1.462e-06
2866.21	8.76927e-07
2874.89	4.7515e-07
2883.56	4.15052e-07
2892.24	-2.55759e-07
2900.92	-5.23323e-07
2909.6	-2.68135e-07
2918.28	-5.98616e-07
2926.95	-5.54063e-07
2935.63	-3.32424e-07
2944.31	9.95148e-08
2952.99	1.73179e-07
2961.67	-4.60555e-07
2970.35	1.9215e-06
2979.02	1.02417e-05
2987.7	4.38705e-05
2996.38	6.90898e-05
3005.06	6.49121e-05
3013.74	4.37439e-05
3022.41	7.42749e-06
3031.09	3.30758e-07
3039.77	2.08357e-07
3048.45	-3.87989e-07
3057.13	-1.22685e-07
3065.81	4.71901e-07
3074.48	4.26769e-07
3083.16	-2.42259e-07
3091.84	-5.73613e-07
3100.52	-4.29287e-07
3109.2	-5.66912e-07
3117.87	-6.36767e-07
3126.55	-4.70799e-07
3135.23	8.37554e-08
3143.91	-3.75435e-07
3152.59	-1.88123e-07
3161.27	-6.27567e-07
3169.94	-4.8196e-07
3178.62	-6.36381e-07
3187.3	-1.46142e-07
3195.98	-2.42622e-07
3204.66	-1.31583e-07
3213.33	-2.90366e-07
3222.01	2.77426e-08
3230.69	-1.48023e-07
3239.37	-9.245e-08
3248.05	2.49163e-07
3256.73	-3.08501e-07
3265.4	2.75134e-08
3274.08	-1.9008e-08
3282.76	-9.80112e-07
3291.44	-5.4571e-07
3300.12	-9.98727e-07
3308.79	-7.43732e-07
3317.47	-3.82864e-07
3326.15	-9.31281e-07
3334.83	-4.80869e-07
3343.51	-1.05791e-06
3352.19	-7.58036e-07
3360.86	-8.85872e-07
3369.54	-1.92248e-07
3378.22	-3.71772e-07
3386.9	-9.88243e-07
3395.58	-1.06978e-06
3404.25	-9.87472e-07
3412.93	-8.00716e-07
3421.61	-1.26628e-06
3430.29	-1.0229e-06
3438.97	-1.02751e-06
3447.65	-1.27825e-06
3456.32	-7.64286e-07
3465	-1.0264e-06
3473.68	-9.60238e-07
3482.36	-1.53249e-06
3491.04	-1.59142e-06
3499.71	-1.05338e-06
3508.39	-8.37666e-07
3517.07	-1.36662e-06
3525.75	-1.42831e-06
3534.43	-1.02224e-06
3543.1	-1.42568e-06
3551.78	-1.83471e-06
3560.46	-1.44957e-06
3569.14	-1.27939e-06
3577.82	-1.25563e-06
3586.5	-3.10919e-06
3595.17	-1.94071e-06
3603.85	-1.3946e-06
3612.53	-3.32415e-06
3621.21	-2.07058e-06
3629.89	-5.13447e-06
3638.56	-2.06545e-06
3647.24	-3.95354e-06
3655.92	-4.15302e-06
3664.6	-1.50017e-06
3673.28	-1.73315e-06
3681.96	-1.8805e-06
3690.63	-2.87064e-06
3699.31	-2.04658e-06
3707.99	-1.82843e-06
3716.67	-1.37398e-06
3725.35	-2.15185e-06
3734.02	-2.52188e-06
3742.7	-2.01857e-06
3751.38	-3.56471e-06
3760.06	-2.96208e-06
3768.74	-1.84939e-06
3777.42	-1.84813e-06
3786.09	-2.00353e-06
3794.77	-2.03689e-06
3803.45	-2.37949e-06
3812.13	-1.69091e-06
3820.81	-4.03317e-06
3829.48	-1.96583e-06
3838.16	-7.46849e-06
3846.84	-1.58791e-06
3855.52	-1.77947e-06
3864.2	-1.46792e-06
3872.88	-2.14311e-06
3881.55	-2.47688e-06
3890.23	-2.20113e-06
3898.91	-3.42546e-06
3907.59	-2.16073e-06
3916.27	-2.48868e-06
3924.94	-2.4248e-06
3933.62	-2.70393e-06
3942.3	-2.03816e-06
3950.98	-1.56987e-06
3959.66	-2.22575e-06
3968.34	-1.67777e-06
