Infrared Spectrum: Pentafluoroethane
Formula: C2 H F5
CAS: 354-33-6
State: gas
Melting point: -102.78 C
Boiling point: -48.55 C
Class: IUPAC A
Instrument: IFS66V (Bruker)
Instrument parameters: KBr Beam Splitter; MCT Detector; Multipass cell
Sampling: 1 L/min Flow
Resolution: 0.9640
Temperature: 23 C
Pressure: 101.3 Pa
Origin: NIST, Analytical Chemistry Division, 301-975-3108
cm-1	(micromol/mol)-1m-1 (base 10)
575.17	8.07718e-05
583.848	0.000111044
592.526	3.71909e-05
601.205	4.69119e-06
609.883	1.78349e-06
618.561	1.89503e-06
627.239	1.20614e-06
635.917	2.95721e-07
644.595	1.93751e-06
653.274	2.91344e-06
661.952	1.7641e-06
670.63	2.61101e-06
679.308	-3.91074e-09
687.986	5.69601e-07
696.664	3.40405e-06
705.343	3.04426e-05
714.021	0.000139618
722.699	0.000230905
731.377	0.000180712
740.055	7.91366e-05
748.733	7.22826e-06
757.412	2.37569e-06
766.09	2.60819e-06
774.768	3.46084e-06
783.446	4.49897e-06
792.124	4.64324e-06
800.802	2.83168e-06
809.481	3.00589e-06
818.159	2.95022e-06
826.837	3.19378e-06
835.515	5.80523e-06
844.193	2.56816e-05
852.872	0.000127384
861.55	0.00024446
870.228	0.00020856
878.906	0.000157216
887.584	2.69779e-05
896.262	1.49156e-05
904.941	1.14284e-05
913.619	4.22555e-06
922.297	5.70557e-06
930.975	7.18365e-06
939.653	8.42106e-06
948.331	4.53403e-06
957.01	1.74112e-06
965.688	1.66021e-06
974.366	2.06226e-06
983.044	2.47559e-06
991.722	1.98082e-06
1000.4	1.84874e-06
1009.08	1.61395e-06
1017.76	8.66442e-07
1026.43	7.40491e-07
1035.11	6.83332e-07
1043.79	1.63631e-06
1052.47	2.52405e-06
1061.15	7.79535e-06
1069.83	1.80311e-05
1078.5	2.47517e-05
1087.18	2.94668e-05
1095.86	5.50934e-05
1104.54	0.000114263
1113.22	0.000163237
1121.89	0.000185224
1130.57	0.000493093
1139.25	0.0016835
1147.93	0.00193057
1156.61	0.000466667
1165.29	9.04524e-05
1173.96	7.20154e-05
1182.64	0.00020974
1191.32	0.000629555
1200	0.00195092
1208.68	0.0029281
1217.35	0.00251782
1226.03	0.00186124
1234.71	0.000761257
1243.39	0.000129695
1252.07	5.94987e-05
1260.75	5.99356e-05
1269.42	6.93557e-05
1278.1	8.51917e-05
1286.78	0.000182638
1295.46	0.000678485
1304.14	0.000836556
1312.81	0.000540358
1321.49	0.000355295
1330.17	4.24283e-05
1338.85	1.44173e-05
1347.53	3.16167e-05
1356.21	4.90103e-05
1364.88	3.08005e-05
1373.56	1.7279e-05
1382.24	1.7531e-05
1390.92	2.54586e-05
1399.6	1.42715e-05
1408.27	8.34751e-06
1416.95	6.67334e-06
1425.63	1.22124e-05
1434.31	1.77056e-05
1442.99	2.64077e-05
1451.67	2.21893e-05
1460.34	1.17779e-05
1469.02	3.30495e-06
1477.7	1.7277e-06
1486.38	5.55194e-07
1495.06	1.14156e-06
1503.73	1.88731e-06
1512.41	2.98104e-07
1521.09	-4.41912e-06
1529.77	1.79877e-06
1538.45	-1.81928e-06
1547.13	2.78081e-06
1555.8	4.1578e-06
1564.48	3.12222e-06
1573.16	3.70016e-06
1581.84	3.89374e-06
1590.52	2.52165e-06
1599.19	1.48089e-06
1607.87	1.03073e-06
1616.55	-6.87462e-06
1625.23	1.37863e-06
1633.91	2.23028e-06
1642.59	2.47151e-06
1651.26	1.20957e-06
1659.94	1.67972e-06
1668.62	3.32406e-07
1677.3	1.78567e-06
1685.98	7.84604e-07
1694.65	5.44943e-07
1703.33	2.4281e-06
1712.01	5.33916e-06
1720.69	7.17085e-06
1729.37	4.67918e-06
1738.05	2.26572e-06
1746.72	6.71087e-07
1755.4	9.3322e-07
1764.08	1.45824e-06
1772.76	-3.24551e-06
1781.44	2.21611e-06
1790.11	2.77567e-06
1798.79	2.89369e-06
1807.47	2.16796e-06
1816.15	1.3808e-06
1824.83	-3.65594e-07
1833.51	9.43206e-07
1842.18	4.8941e-07
1850.86	5.83079e-07
1859.54	1.31696e-06
1868.22	1.22467e-06
1876.9	1.16216e-06
1885.57	4.48167e-07
1894.25	2.72937e-07
1902.93	3.30056e-07
1911.61	1.14798e-06
1920.29	2.63794e-06
1928.96	5.60067e-06
1937.64	6.2422e-06
1946.32	4.0155e-06
1955	1.77287e-06
1963.68	3.21696e-07
1972.36	3.06791e-07
1981.03	1.52894e-07
1989.71	2.93069e-08
1998.39	3.88913e-07
2007.07	4.78409e-07
2015.75	3.56347e-07
2024.42	3.0586e-07
2033.1	5.30337e-07
2041.78	7.96795e-07
2050.46	1.94935e-06
2059.14	3.75526e-06
2067.82	3.17754e-06
2076.49	2.62923e-06
2085.17	1.40665e-06
2093.85	7.24422e-07
2102.53	3.15755e-07
2111.21	7.1082e-07
2119.88	6.97025e-07
2128.56	1.86275e-07
2137.24	3.86596e-07
2145.92	1.24737e-06
2154.6	3.38538e-06
2163.28	4.25683e-06
2171.95	3.38582e-06
2180.63	1.91477e-06
2189.31	3.794e-07
2197.99	-6.97458e-08
2206.67	2.95405e-07
2215.34	3.55852e-07
2224.02	3.141e-07
2232.7	7.15924e-07
2241.38	1.97894e-06
2250.06	4.07183e-06
2258.74	5.89246e-06
2267.41	7.09698e-06
2276.09	1.29212e-05
2284.77	1.21767e-05
2293.45	3.81343e-06
2302.13	2.17145e-06
2310.8	5.32323e-07
2319.48	-4.3195e-07
2328.16	-1.43962e-06
2336.84	1.16289e-07
2345.52	-6.52985e-07
2354.2	-2.55742e-06
2362.87	-4.77572e-06
2371.55	-1.96584e-06
2380.23	2.40432e-07
2388.91	2.21507e-06
2397.59	4.66121e-06
2406.26	6.4343e-06
2414.94	6.27463e-06
2423.62	2.5154e-06
2432.3	1.06622e-06
2440.98	1.23901e-06
2449.66	9.41081e-07
2458.33	-1.67707e-07
2467.01	-6.58602e-07
2475.69	-5.21879e-07
2484.37	1.15041e-06
2493.05	3.45346e-06
2501.72	5.92612e-06
2510.4	4.22449e-06
2519.08	1.23426e-06
2527.76	1.7359e-07
2536.44	4.39313e-08
2545.12	7.96736e-08
2553.79	-1.04189e-08
2562.47	1.19091e-06
2571.15	1.17568e-06
2579.83	6.74325e-07
2588.51	6.18654e-07
2597.18	2.02383e-06
2605.86	2.34869e-06
2614.54	-5.44721e-07
2623.22	-5.36208e-07
2631.9	-6.75958e-07
2640.58	-1.22277e-07
2649.25	7.35398e-07
2657.93	1.26428e-06
2666.61	1.18032e-06
2675.29	1.2045e-06
2683.97	7.09492e-07
2692.64	1.93256e-07
2701.32	-1.53589e-07
2710	-2.77212e-07
2718.68	-4.51049e-07
2727.36	-2.12512e-07
2736.03	2.46591e-07
2744.71	2.71747e-07
2753.39	-5.40468e-07
2762.07	-4.81189e-07
2770.75	2.43943e-07
2779.43	5.7194e-07
2788.1	7.87842e-07
2796.78	7.45773e-07
2805.46	-1.98735e-07
2814.14	6.3999e-07
2822.82	1.75838e-07
2831.49	1.06414e-06
2840.17	2.25861e-06
2848.85	2.64287e-06
2857.53	1.44129e-06
2866.21	8.50014e-07
2874.89	4.32845e-07
2883.56	4.07565e-07
2892.24	-3.05893e-07
2900.92	-5.73839e-07
2909.6	-2.57869e-07
2918.28	-6.18679e-07
2926.95	-6.03553e-07
2935.63	-3.75857e-07
2944.31	8.40355e-08
2952.99	1.23587e-07
2961.67	-6.1598e-07
2970.35	1.74759e-06
2979.02	9.94953e-06
2987.7	4.4073e-05
2996.38	6.89783e-05
3005.06	6.4123e-05
3013.74	4.40475e-05
3022.41	7.04254e-06
3031.09	1.11491e-07
3039.77	1.36403e-07
3048.45	-4.38985e-07
3057.13	-1.54e-07
3065.81	4.7237e-07
3074.48	4.22247e-07
3083.16	-2.52532e-07
3091.84	-6.11316e-07
3100.52	-4.2785e-07
3109.2	-5.92268e-07
3117.87	-6.62582e-07
3126.55	-5.20511e-07
3135.23	8.01866e-08
3143.91	-4.14091e-07
3152.59	-2.19547e-07
3161.27	-6.60635e-07
3169.94	-4.69446e-07
3178.62	-6.75831e-07
3187.3	-1.35464e-07
3195.98	-2.55748e-07
3204.66	-9.61788e-08
3213.33	-2.70441e-07
3222.01	3.67864e-08
3230.69	-1.24231e-07
3239.37	-7.0437e-08
3248.05	2.52536e-07
3256.73	-3.19168e-07
3265.4	6.65663e-08
3274.08	1.16813e-08
3282.76	-1.04075e-06
3291.44	-5.66497e-07
3300.12	-1.07326e-06
3308.79	-7.83476e-07
3317.47	-3.37764e-07
3326.15	-9.71494e-07
3334.83	-4.4374e-07
3343.51	-1.11071e-06
3352.19	-7.52198e-07
3360.86	-9.37039e-07
3369.54	-1.52956e-07
3378.22	-3.41126e-07
3386.9	-1.00636e-06
3395.58	-1.11021e-06
3404.25	-1.0189e-06
3412.93	-8.1816e-07
3421.61	-1.30642e-06
3430.29	-1.01821e-06
3438.97	-1.01212e-06
3447.65	-1.29709e-06
3456.32	-7.37268e-07
3465	-9.92881e-07
3473.68	-9.09028e-07
3482.36	-1.58717e-06
3491.04	-1.67477e-06
3499.71	-1.02531e-06
3508.39	-7.96336e-07
3517.07	-1.39885e-06
3525.75	-1.45049e-06
3534.43	-1.02599e-06
3543.1	-1.436e-06
3551.78	-1.87935e-06
3560.46	-1.4702e-06
3569.14	-1.26501e-06
3577.82	-1.2726e-06
3586.5	-3.20339e-06
3595.17	-1.99215e-06
3603.85	-1.36927e-06
3612.53	-3.42854e-06
3621.21	-1.96891e-06
3629.89	-5.27597e-06
3638.56	-2.14624e-06
3647.24	-4.12415e-06
3655.92	-4.36352e-06
3664.6	-1.44362e-06
3673.28	-1.48157e-06
3681.96	-1.81619e-06
3690.63	-2.94831e-06
3699.31	-2.04499e-06
3707.99	-1.75787e-06
3716.67	-1.28755e-06
3725.35	-2.11488e-06
3734.02	-2.46227e-06
3742.7	-1.76445e-06
3751.38	-3.75344e-06
3760.06	-3.05202e-06
3768.74	-1.82166e-06
3777.42	-1.82658e-06
3786.09	-1.99352e-06
3794.77	-1.98517e-06
3803.45	-2.34639e-06
3812.13	-1.71164e-06
3820.81	-4.21087e-06
3829.48	-1.9202e-06
3838.16	-7.936e-06
3846.84	-1.56645e-06
3855.52	-1.41167e-06
3864.2	-1.52783e-06
3872.88	-2.07734e-06
3881.55	-2.44958e-06
3890.23	-2.20747e-06
3898.91	-3.54509e-06
3907.59	-2.12661e-06
3916.27	-2.50637e-06
3924.94	-2.44258e-06
3933.62	-2.76232e-06
3942.3	-2.0546e-06
3950.98	-1.54941e-06
3959.66	-2.23824e-06
3968.34	-1.6838e-06
