Infrared Spectrum: Pentafluoroethane
Formula: C2 H F5
CAS: 354-33-6
State: gas
Melting point: -102.78 C
Boiling point: -48.55 C
Class: IUPAC A
Instrument: IFS66V (Bruker)
Instrument parameters: KBr Beam Splitter; MCT Detector; Multipass cell
Sampling: 1 L/min Flow
Resolution: 0.4820
Temperature: 23 C
Pressure: 101.3 Pa
Origin: NIST, Analytical Chemistry Division, 301-975-3108
cm-1	(micromol/mol)-1m-1 (base 10)
575.17	8.03515e-05
583.848	0.000108718
592.526	3.80915e-05
601.205	4.5191e-06
609.883	1.8005e-06
618.561	2.21505e-06
627.239	1.83419e-06
635.917	1.09008e-06
644.595	1.31923e-06
653.274	2.78465e-06
661.952	1.34096e-06
670.63	2.42328e-06
679.308	-1.01496e-06
687.986	8.19644e-07
696.664	3.81971e-06
705.343	3.16832e-05
714.021	0.000140008
722.699	0.000234676
731.377	0.000180948
740.055	7.90775e-05
748.733	7.85323e-06
757.412	2.46893e-06
766.09	2.63929e-06
774.768	3.43963e-06
783.446	4.53551e-06
792.124	4.68817e-06
800.802	3.09869e-06
809.481	3.18599e-06
818.159	2.96516e-06
826.837	3.10296e-06
835.515	5.91523e-06
844.193	2.62564e-05
852.872	0.000127284
861.55	0.000244904
870.228	0.000211999
878.906	0.000156841
887.584	2.76772e-05
896.262	1.54325e-05
904.941	1.14507e-05
913.619	4.44158e-06
922.297	5.69182e-06
930.975	7.22421e-06
939.653	8.61588e-06
948.331	4.84332e-06
957.01	2.12349e-06
965.688	1.88646e-06
974.366	2.23813e-06
983.044	2.73306e-06
991.722	1.97297e-06
1000.4	2.10476e-06
1009.08	1.5619e-06
1017.76	9.722e-07
1026.43	1.14503e-06
1035.11	7.94477e-07
1043.79	1.86371e-06
1052.47	2.54209e-06
1061.15	8.24839e-06
1069.83	1.88055e-05
1078.5	2.50558e-05
1087.18	2.98719e-05
1095.86	5.60837e-05
1104.54	0.000115024
1113.22	0.000163849
1121.89	0.000186818
1130.57	0.000496772
1139.25	0.00167568
1147.93	0.00192519
1156.61	0.000471436
1165.29	9.472e-05
1173.96	7.56745e-05
1182.64	0.000213992
1191.32	0.000632835
1200	0.00196052
1208.68	0.00291075
1217.35	0.00250864
1226.03	0.00185559
1234.71	0.00076332
1243.39	0.00013494
1252.07	6.23165e-05
1260.75	6.17137e-05
1269.42	7.1007e-05
1278.1	8.68848e-05
1286.78	0.000184748
1295.46	0.000676693
1304.14	0.00083785
1312.81	0.000543846
1321.49	0.000354797
1330.17	4.4224e-05
1338.85	1.53491e-05
1347.53	3.20148e-05
1356.21	4.91502e-05
1364.88	3.08867e-05
1373.56	1.75035e-05
1382.24	1.76781e-05
1390.92	2.5508e-05
1399.6	1.4796e-05
1408.27	8.43044e-06
1416.95	6.81038e-06
1425.63	1.2484e-05
1434.31	1.79814e-05
1442.99	2.64196e-05
1451.67	2.16051e-05
1460.34	1.1696e-05
1469.02	3.42171e-06
1477.7	1.70148e-06
1486.38	4.08973e-07
1495.06	1.24646e-06
1503.73	1.92979e-06
1512.41	-4.13255e-07
1521.09	-5.9558e-06
1529.77	1.76302e-06
1538.45	-3.00116e-07
1547.13	2.70267e-06
1555.8	3.82886e-06
1564.48	3.50049e-06
1573.16	3.63969e-06
1581.84	4.05004e-06
1590.52	2.66927e-06
1599.19	1.36517e-06
1607.87	8.64973e-07
1616.55	-8.95411e-06
1625.23	1.21671e-06
1633.91	2.03601e-06
1642.59	2.48634e-06
1651.26	1.07703e-06
1659.94	1.35971e-06
1668.62	7.95983e-07
1677.3	1.7525e-06
1685.98	7.79489e-07
1694.65	5.42291e-07
1703.33	2.36563e-06
1712.01	5.19221e-06
1720.69	7.10911e-06
1729.37	4.70582e-06
1738.05	2.27391e-06
1746.72	8.41395e-07
1755.4	1.03721e-06
1764.08	1.61541e-06
1772.76	-5.93812e-06
1781.44	2.29102e-06
1790.11	2.81374e-06
1798.79	2.91349e-06
1807.47	2.20509e-06
1816.15	1.44663e-06
1824.83	9.56222e-08
1833.5	9.609e-07
1842.18	4.58288e-07
1850.86	6.15598e-07
1859.54	1.24226e-06
1868.22	1.32006e-06
1876.9	1.31006e-06
1885.57	3.62589e-07
1894.25	2.62962e-07
1902.93	3.12576e-07
1911.61	1.24202e-06
1920.29	2.65553e-06
1928.96	5.62636e-06
1937.64	6.30458e-06
1946.32	4.00917e-06
1955	1.80793e-06
1963.68	2.60128e-07
1972.36	3.28324e-07
1981.03	3.60261e-08
1989.71	-1.06638e-07
1998.39	2.50953e-07
2007.07	5.3997e-07
2015.75	2.57069e-07
2024.42	2.94943e-07
2033.1	5.17015e-07
2041.78	7.54981e-07
2050.46	2.08834e-06
2059.14	3.84227e-06
2067.82	3.08098e-06
2076.49	2.57768e-06
2085.17	1.47322e-06
2093.85	7.77969e-07
2102.53	1.92772e-07
2111.21	5.65464e-07
2119.88	7.65414e-07
2128.56	1.14787e-07
2137.24	3.39845e-07
2145.92	1.2668e-06
2154.6	3.62255e-06
2163.28	4.27685e-06
2171.95	3.15158e-06
2180.63	1.9063e-06
2189.31	3.82245e-07
2197.99	-1.29549e-07
2206.67	2.62082e-07
2215.34	2.28602e-07
2224.02	3.79662e-07
2232.7	6.43468e-07
2241.38	1.95986e-06
2250.06	4.11933e-06
2258.74	5.78314e-06
2267.41	7.06904e-06
2276.09	1.28249e-05
2284.77	1.20956e-05
2293.45	3.88229e-06
2302.13	2.32823e-06
2310.8	7.72694e-07
2319.48	-4.94754e-10
2328.16	-3.84904e-07
2336.84	3.08239e-07
2345.52	-2.03271e-07
2354.2	-2.83486e-06
2362.87	-8.27581e-06
2371.55	-3.04718e-06
2380.23	4.40728e-07
2388.91	2.42298e-06
2397.59	4.74898e-06
2406.26	6.37322e-06
2414.94	6.35445e-06
2423.62	2.62089e-06
2432.3	1.05812e-06
2440.98	1.21305e-06
2449.66	9.71181e-07
2458.33	3.71066e-09
2467.01	-4.27002e-07
2475.69	-7.64552e-07
2484.37	1.25609e-06
2493.05	3.40124e-06
2501.72	6.02753e-06
2510.4	4.00804e-06
2519.08	1.36497e-06
2527.76	1.30804e-07
2536.44	2.64032e-07
2545.12	2.21126e-07
2553.79	-9.90309e-08
2562.47	1.26125e-06
2571.15	1.03792e-06
2579.83	6.02393e-07
2588.51	7.71493e-07
2597.18	2.13919e-06
2605.86	2.50319e-06
2614.54	-5.16647e-07
2623.22	-7.31927e-07
2631.9	-7.37712e-07
2640.58	-2.30905e-07
2649.25	7.51001e-07
2657.93	1.24544e-06
2666.61	1.15564e-06
2675.29	1.17633e-06
2683.97	6.67475e-07
2692.64	6.58351e-08
2701.32	-2.43998e-07
2710	-2.09761e-08
2718.68	-5.77626e-07
2727.36	-1.5918e-07
2736.03	1.77952e-07
2744.71	3.6713e-07
2753.39	-5.35393e-07
2762.07	-6.07282e-07
2770.75	1.25078e-07
2779.43	7.32757e-07
2788.1	7.73381e-07
2796.78	1.0067e-06
2805.46	-3.46892e-07
2814.14	7.64868e-07
2822.82	2.4566e-07
2831.49	1.05246e-06
2840.17	2.10884e-06
2848.85	2.78272e-06
2857.53	1.37265e-06
2866.21	9.13164e-07
2874.89	4.13957e-07
2883.56	8.71459e-07
2892.24	-2.55006e-07
2900.92	-6.05052e-07
2909.6	-7.65232e-08
2918.28	-7.91607e-07
2926.95	-5.19667e-07
2935.63	-7.25383e-07
2944.31	2.11176e-07
2952.99	2.87343e-07
2961.67	-5.31501e-07
2970.35	1.92302e-06
2979.02	1.02601e-05
2987.7	4.40871e-05
2996.38	6.93901e-05
3005.06	6.4715e-05
3013.74	4.37826e-05
3022.41	7.36228e-06
3031.09	2.89431e-08
3039.77	3.63932e-07
3048.45	-4.8121e-07
3057.13	-2.47312e-07
3065.81	5.16585e-07
3074.48	4.02748e-07
3083.16	-3.07846e-07
3091.84	-6.52712e-07
3100.52	-4.17969e-07
3109.2	-5.38849e-07
3117.87	-8.93516e-07
3126.55	-4.90851e-07
3135.23	-1.62167e-07
3143.91	-4.98898e-07
3152.59	-1.6133e-07
3161.27	-8.46099e-07
3169.94	-8.29619e-07
3178.62	-5.31344e-07
3187.3	-1.30892e-07
3195.98	-1.53818e-07
3204.66	-4.41605e-08
3213.33	-4.15714e-07
3222.01	2.19565e-07
3230.69	-3.8629e-07
3239.37	-3.45408e-07
3248.05	1.46011e-07
3256.73	-1.24947e-07
3265.4	2.64246e-07
3274.08	-5.75734e-08
3282.76	-1.11636e-06
3291.44	-5.44597e-07
3300.12	-1.0389e-06
3308.79	-8.74988e-07
3317.47	-3.97848e-07
3326.15	-1.01024e-06
3334.83	-3.16708e-07
3343.51	-9.10643e-07
3352.19	-8.05675e-07
3360.86	-8.73747e-07
3369.54	-1.57907e-07
3378.22	-2.18398e-07
3386.9	-1.01155e-06
3395.58	-1.16905e-06
3404.25	-1.30921e-06
3412.93	-7.58906e-07
3421.61	-1.58084e-06
3430.29	-1.14343e-06
3438.97	-1.19553e-06
3447.65	-1.72017e-06
3456.32	-7.06869e-07
3465	-9.94424e-07
3473.68	-9.29163e-07
3482.36	-1.76537e-06
3491.04	-1.80568e-06
3499.71	-7.44889e-07
3508.39	-8.2648e-07
3517.07	-1.31546e-06
3525.75	-1.50319e-06
3534.43	-6.54393e-07
3543.1	-1.67776e-06
3551.78	-2.13201e-06
3560.46	-1.73374e-06
3569.14	-1.21102e-06
3577.82	-1.47728e-06
3586.5	-4.14624e-06
3595.17	-2.14305e-06
3603.85	-1.04225e-06
3612.53	-4.5772e-06
3621.21	-2.36439e-06
3629.89	-5.25798e-06
3638.56	-1.81167e-06
3647.24	-4.33096e-06
3655.92	-3.22844e-06
3664.6	-1.34325e-06
3673.28	-1.59387e-06
3681.96	-1.81811e-06
3690.63	-2.89734e-06
3699.31	-1.91258e-06
3707.99	-1.52032e-06
3716.67	-1.42217e-06
3725.35	-1.76406e-06
3734.02	-2.15137e-06
3742.7	-1.6841e-06
3751.38	-3.55603e-06
3760.06	-2.95982e-06
3768.74	-1.91706e-06
3777.42	-2.02769e-06
3786.09	-2.03372e-06
3794.77	-2.15199e-06
3803.45	-2.49792e-06
3812.13	-1.75832e-06
3820.81	-5.50829e-06
3829.48	-2.12405e-06
3838.16	-6.87806e-06
3846.84	-1.39131e-06
3855.52	-1.2844e-06
3864.2	-1.50798e-06
3872.88	-2.10314e-06
3881.55	-2.75073e-06
3890.23	-2.0794e-06
3898.91	-3.1281e-06
3907.59	-2.17682e-06
3916.27	-2.88618e-06
3924.94	-2.31048e-06
3933.62	-2.95233e-06
3942.3	-1.87727e-06
3950.98	-1.4292e-06
3959.66	-2.35479e-06
3968.34	-1.85442e-06
