Infrared Spectrum: Pentafluoroethane
Formula: C2 H F5
CAS: 354-33-6
State: gas
Melting point: -102.78 C
Boiling point: -48.55 C
Class: IUPAC A
Instrument: IFS66V (Bruker)
Instrument parameters: KBr Beam Splitter; MCT Detector; Multipass cell
Sampling: 1 L/min Flow
Resolution: 0.1250
Temperature: 23 C
Pressure: 101.3 Pa
Origin: NIST, Analytical Chemistry Division, 301-975-3108
cm-1	(micromol/mol)-1m-1 (base 10)
575.049	7.25906e-05
583.607	0.000108095
592.164	4.16256e-05
600.722	3.2762e-06
609.28	-4.54191e-06
617.837	4.36677e-06
626.395	6.23333e-06
634.953	1.86435e-06
643.51	3.10708e-06
652.068	8.47351e-07
660.625	1.91117e-06
669.183	3.62172e-06
677.741	-1.02173e-06
686.298	1.63427e-06
694.856	2.6343e-06
703.414	1.92713e-05
711.971	0.000118439
720.529	0.000348902
729.087	0.000250175
737.644	0.000120301
746.202	1.3489e-05
754.76	1.23631e-06
763.317	2.42628e-06
771.875	3.52361e-06
780.432	4.36728e-06
788.99	6.71433e-06
797.548	3.95459e-06
806.105	6.145e-07
814.663	1.14386e-06
823.221	4.92928e-06
831.778	4.2122e-06
840.336	1.373e-05
848.894	6.68595e-05
857.451	0.000195985
866.009	0.000355904
874.567	0.000237778
883.124	6.23453e-05
891.682	1.84394e-05
900.239	1.40966e-05
908.797	6.11255e-06
917.355	5.41221e-06
925.912	7.64815e-06
934.47	9.50935e-06
943.028	7.38601e-06
951.585	3.72055e-06
960.143	1.42415e-06
968.701	6.66227e-07
977.258	1.04457e-06
985.816	3.25818e-06
994.374	1.02634e-06
1002.93	-9.31448e-08
1011.49	9.12782e-07
1020.05	2.38108e-06
1028.6	8.1258e-07
1037.16	5.23894e-07
1045.72	5.03704e-07
1054.28	5.15603e-06
1062.83	9.99005e-06
1071.39	2.19014e-05
1079.95	2.53176e-05
1088.51	3.07251e-05
1097.07	6.18448e-05
1105.62	0.000122281
1114.18	0.000165717
1122.74	0.000187793
1131.3	0.00056118
1139.85	0.00174896
1148.41	0.00196699
1156.97	0.000419266
1165.53	8.75995e-05
1174.08	7.04367e-05
1182.64	0.0002095
1191.2	0.000623383
1199.76	0.002112
1208.31	0.00292708
1216.87	0.00250492
1225.43	0.00204897
1233.99	0.000858263
1242.55	0.000149513
1251.1	5.7128e-05
1259.66	5.72151e-05
1268.22	6.73813e-05
1276.78	7.65109e-05
1285.33	0.000147439
1293.89	0.000570647
1302.45	0.000815155
1311.01	0.000547782
1319.56	0.000454474
1328.12	7.69093e-05
1336.68	1.1416e-05
1345.24	2.98851e-05
1353.79	3.83786e-05
1362.35	3.35913e-05
1370.91	1.82618e-05
1379.47	1.79627e-05
1388.03	2.45596e-05
1396.58	1.75848e-05
1405.14	1.14701e-05
1413.7	6.22275e-06
1422.26	9.00375e-06
1430.81	1.49865e-05
1439.37	2.17619e-05
1447.93	1.91381e-05
1456.49	5.48857e-06
1465.04	2.23762e-06
1473.6	-5.03972e-06
1482.16	1.9188e-06
1490.72	-2.69293e-06
1499.27	7.29461e-07
1507.83	3.16697e-07
1516.39	9.18319e-07
1524.95	-2.6517e-07
1533.51	3.34461e-07
1542.06	-8.2195e-06
1550.62	3.13915e-06
1559.18	2.65547e-06
1567.74	3.09751e-06
1576.29	-1.01229e-05
1584.85	3.7277e-06
1593.41	1.75971e-06
1601.97	1.61812e-06
1610.52	1.31514e-06
1619.08	1.2214e-06
1627.64	-7.97308e-07
1636.2	2.37711e-06
1644.75	1.62813e-06
1653.31	-2.51896e-05
1661.87	2.12237e-06
1670.43	2.25464e-06
1678.99	1.22299e-06
1687.54	1.47538e-06
1696.1	-5.69256e-06
1704.66	1.80967e-06
1713.22	4.50104e-06
1721.77	6.55697e-06
1730.33	3.53358e-06
1738.89	2.24298e-06
1747.45	1.98944e-06
1756	4.22102e-07
1764.56	-2.43179e-07
1773.12	2.49811e-07
1781.68	2.45921e-06
1790.23	2.53659e-06
1798.79	2.99578e-06
1807.35	2.04864e-06
1815.91	7.53689e-07
1824.47	3.62975e-07
1833.02	6.93035e-07
1841.58	8.27106e-07
1850.14	9.8773e-07
1858.7	1.89005e-06
1867.25	2.1363e-06
1875.81	5.04642e-07
1884.37	1.76147e-07
1892.93	1.01534e-06
1901.48	4.99025e-07
1910.04	8.25294e-08
1918.6	2.71239e-06
1927.16	5.384e-06
1935.71	6.42924e-06
1944.27	5.18012e-06
1952.83	9.45006e-07
1961.39	-4.57102e-08
1969.95	7.87787e-08
1978.5	1.05917e-07
1987.06	-6.6833e-07
1995.62	8.73191e-07
2004.18	1.79127e-07
2012.73	8.91034e-07
2021.29	-7.59823e-07
2029.85	9.76569e-07
2038.41	3.52716e-07
2046.96	6.68726e-07
2055.52	1.89408e-06
2064.08	5.83253e-06
2072.64	3.01338e-06
2081.19	1.04353e-06
2089.75	1.26534e-06
2098.31	7.03781e-07
2106.87	-2.56217e-07
2115.43	1.84209e-07
2123.98	-8.82093e-07
2132.54	-3.62298e-07
2141.1	6.07628e-07
2149.66	2.59062e-06
2158.21	3.4576e-06
2166.77	4.88515e-06
2175.33	1.24406e-06
2183.89	7.96158e-07
2192.44	2.4876e-08
2201	4.32401e-07
2209.56	-6.78854e-07
2218.12	-3.6733e-07
2226.67	1.10338e-08
2235.23	1.67734e-06
2243.79	2.39606e-06
2252.35	4.46718e-06
2260.9	5.61575e-06
2269.46	7.98118e-06
2278.02	1.29976e-05
2286.58	1.07722e-05
2295.14	2.82925e-06
2303.69	2.57809e-06
2312.25	1.39339e-06
2320.81	-6.663e-07
2329.37	1.51337e-08
2337.92	-7.77998e-07
2346.48	7.26063e-07
2355.04	8.31813e-07
2363.6	6.04728e-08
2372.15	6.55812e-07
2380.71	-2.70591e-07
2389.27	1.96701e-06
2397.83	4.0105e-06
2406.38	6.52187e-06
2414.94	6.11216e-06
2423.5	2.64154e-06
2432.06	1.7363e-06
2440.62	2.07496e-06
2449.17	1.21962e-06
2457.73	-2.39021e-07
2466.29	-5.13777e-07
2474.85	-8.65857e-07
2483.4	1.55766e-06
2491.96	2.78655e-06
2500.52	5.47234e-06
2509.08	2.61518e-06
2517.63	2.42645e-06
2526.19	3.5423e-07
2534.75	-2.16855e-08
2543.31	-8.77934e-07
2551.86	-1.27887e-06
2560.42	1.51739e-06
2568.98	1.81916e-06
2577.54	1.07227e-06
2586.1	2.12126e-08
2594.65	2.33169e-06
2603.21	1.1998e-06
2611.77	9.16205e-07
2620.33	1.26621e-07
2628.88	-9.63305e-07
2637.44	-3.27393e-07
2646	2.4215e-07
2654.56	-2.30752e-08
2663.11	3.60672e-07
2671.67	-4.78006e-07
2680.23	1.35881e-06
2688.79	2.04691e-06
2697.34	-2.41469e-07
2705.9	1.09261e-07
2714.46	-7.81414e-07
2723.02	-2.20891e-06
2731.58	1.14597e-06
2740.13	-6.06791e-07
2748.69	-9.84638e-07
2757.25	9.00184e-07
2765.81	1.25234e-06
2774.36	-2.13105e-07
2782.92	2.30978e-07
2791.48	-6.05481e-07
2800.04	2.43962e-06
2808.59	1.85053e-07
2817.15	1.76336e-07
2825.71	-1.51529e-06
2834.27	1.33715e-06
2842.82	5.59266e-06
2851.38	1.51269e-06
2859.94	2.96331e-06
2868.5	1.65819e-06
2877.06	8.97652e-08
2885.61	-1.57524e-06
2894.17	4.07943e-07
2902.73	6.08857e-07
2911.29	8.87429e-07
2919.84	-2.17949e-06
2928.4	-1.35087e-06
2936.96	1.30842e-06
2945.52	1.48259e-06
2954.07	4.76878e-07
2962.63	6.03055e-07
2971.19	2.73336e-06
2979.75	1.19662e-05
2988.3	4.94232e-05
2996.86	7.02252e-05
3005.42	6.2574e-05
3013.98	4.318e-05
3022.54	5.99906e-06
3031.09	1.66598e-07
3039.65	7.92364e-07
3048.21	-9.47597e-07
3056.77	-4.99804e-07
3065.32	4.77704e-07
3073.88	-1.12461e-06
3082.44	-5.06614e-07
3091	1.5764e-06
3099.55	1.19978e-07
3108.11	-1.19882e-06
3116.67	-7.50717e-08
3125.23	1.01456e-06
3133.78	-8.82009e-07
3142.34	-3.68792e-07
3150.9	-2.75835e-06
3159.46	9.47418e-08
3168.02	-4.48844e-07
3176.57	2.58548e-06
3185.13	-3.96729e-06
3193.69	1.43886e-07
3202.25	-2.53455e-06
3210.8	-7.11457e-07
3219.36	-1.60039e-06
3227.92	1.81322e-06
3236.48	-2.57247e-07
3245.03	-1.71082e-06
3253.59	-4.24474e-07
3262.15	-9.16467e-07
3270.71	-4.28246e-07
3279.26	2.34823e-07
3287.82	-2.04912e-07
3296.38	3.66187e-07
3304.94	-9.85391e-07
3313.5	-1.13626e-06
3322.05	-1.64301e-06
3330.61	3.77978e-09
3339.17	5.03489e-07
3347.73	-1.59944e-06
3356.28	-4.06612e-07
3364.84	2.06498e-06
3373.4	-9.25082e-07
3381.96	2.24322e-06
3390.51	-9.60657e-07
3399.07	1.45974e-07
3407.63	-1.99246e-06
3416.19	-3.60196e-06
3424.74	-2.88033e-06
3433.3	5.84825e-07
3441.86	3.37306e-07
3450.42	-2.56108e-07
3458.98	-6.65332e-07
3467.53	-3.20122e-06
3476.09	-4.50392e-06
3484.65	-4.20894e-06
3493.21	-4.82858e-08
3501.76	1.67692e-06
3510.32	-2.5024e-06
3518.88	-1.75463e-07
3527.44	-1.45428e-06
3535.99	-7.28078e-07
3544.55	-3.0291e-07
3553.11	9.19552e-07
3561.67	-8.88812e-07
3570.22	1.20307e-06
3578.78	-1.78765e-06
3587.34	-1.46978e-06
3595.9	-1.58542e-06
3604.46	-7.87023e-07
3613.01	-2.006e-06
3621.57	-3.71713e-07
3630.13	-2.62037e-06
3638.69	-1.18705e-06
3647.24	-4.49359e-06
3655.8	-2.98436e-06
3664.36	-1.49929e-06
3672.92	-3.59912e-06
3681.47	-1.11898e-07
3690.03	-2.36557e-06
3698.59	-2.09916e-06
3707.15	-1.07756e-06
3715.7	-1.62474e-06
3724.26	-1.73946e-06
3732.82	1.22059e-07
3741.38	-5.07155e-06
3749.94	-3.19179e-06
3758.49	-1.39579e-06
3767.05	-2.86365e-07
3775.61	2.49233e-07
3784.17	-1.1735e-06
3792.72	-8.53102e-07
3801.28	-1.1266e-05
3809.84	-2.099e-06
3818.4	4.21633e-07
3826.95	-2.06532e-06
3835.51	-3.14817e-07
3844.07	-3.62658e-06
3852.63	-4.92491e-06
3861.18	-7.40491e-07
3869.74	-2.20335e-06
3878.3	2.80515e-07
3886.86	-1.75256e-06
3895.42	-1.19007e-06
3903.97	-4.16039e-06
3912.53	-3.33944e-06
3921.09	-2.21581e-06
3929.65	-2.80157e-06
3938.2	-2.80723e-06
3946.76	-1.33859e-06
3955.32	-4.15841e-06
3963.88	-1.6467e-06
3972.43	-2.79015e-06
