Infrared Spectrum: Pentafluoroethane
Formula: C2 H F5
CAS: 354-33-6
State: gas
Melting point: -102.78 C
Boiling point: -48.55 C
Class: IUPAC A
Instrument: IFS66V (Bruker)
Instrument parameters: KBr Beam Splitter; MCT Detector; Multipass cell
Sampling: 1 L/min Flow
Resolution: 0.1250
Temperature: 23 C
Pressure: 101.3 Pa
Origin: NIST, Analytical Chemistry Division, 301-975-3108
cm-1	(micromol/mol)-1m-1 (base 10)
575.049	7.88764e-05
583.607	0.000108688
592.164	4.00934e-05
600.722	3.29302e-06
609.28	1.13623e-07
617.837	4.77272e-06
626.395	3.62914e-06
634.953	4.04453e-06
643.51	4.88813e-06
652.068	3.11935e-07
660.625	3.47189e-06
669.183	3.34619e-06
677.741	1.38395e-06
686.298	2.35285e-06
694.856	2.07065e-06
703.414	1.77305e-05
711.971	0.000117099
720.529	0.00034354
729.087	0.000248146
737.644	0.000120808
746.202	1.47288e-05
754.76	1.31993e-06
763.317	3.26851e-06
771.875	3.75894e-06
780.432	4.08468e-06
788.99	6.12508e-06
797.548	3.41753e-06
806.105	2.33897e-06
814.663	1.73641e-06
823.221	3.68887e-06
831.778	4.34522e-06
840.336	1.24882e-05
848.894	6.60826e-05
857.451	0.000196639
866.009	0.000354988
874.567	0.00023734
883.124	6.31501e-05
891.682	1.93864e-05
900.239	1.41508e-05
908.797	7.26706e-06
917.355	5.21707e-06
925.912	7.37948e-06
934.47	8.87479e-06
943.028	7.61466e-06
951.585	3.86379e-06
960.143	1.15716e-06
968.701	9.30291e-07
977.258	1.25084e-06
985.816	2.56322e-06
994.374	1.49946e-06
1002.93	8.10077e-07
1011.49	6.88018e-07
1020.05	1.90996e-06
1028.6	8.09167e-07
1037.16	7.61794e-07
1045.72	1.2218e-06
1054.28	4.78064e-06
1062.83	1.07076e-05
1071.39	2.1477e-05
1079.95	2.57036e-05
1088.51	3.14449e-05
1097.07	6.16237e-05
1105.62	0.0001229
1114.18	0.00016553
1122.74	0.000186235
1131.3	0.000561414
1139.85	0.00175116
1148.41	0.00196556
1156.97	0.000419746
1165.53	8.81225e-05
1174.08	7.18523e-05
1182.64	0.000209953
1191.2	0.000623238
1199.76	0.00211211
1208.31	0.00292893
1216.87	0.00250494
1225.43	0.0020493
1233.99	0.000859479
1242.55	0.000148842
1251.1	5.79124e-05
1259.66	5.77189e-05
1268.22	6.76034e-05
1276.78	7.81329e-05
1285.33	0.000147773
1293.89	0.000571624
1302.45	0.000813214
1311.01	0.000548059
1319.56	0.000454182
1328.12	7.7609e-05
1336.68	1.19322e-05
1345.24	2.97852e-05
1353.79	3.92049e-05
1362.35	3.39056e-05
1370.91	2.001e-05
1379.47	1.70647e-05
1388.03	2.39084e-05
1396.58	1.76374e-05
1405.14	1.06788e-05
1413.7	6.42791e-06
1422.26	9.34271e-06
1430.81	1.54848e-05
1439.37	2.23224e-05
1447.93	1.94973e-05
1456.49	7.79362e-06
1465.04	2.04367e-06
1473.6	-6.17483e-06
1482.16	1.67535e-06
1490.72	-2.45838e-06
1499.27	1.26594e-06
1507.83	8.35709e-07
1516.39	9.8379e-07
1524.95	2.45595e-07
1533.51	2.90388e-07
1542.06	-8.8769e-06
1550.62	3.04689e-06
1559.18	2.37811e-06
1567.74	3.40439e-06
1576.29	-1.11995e-05
1584.85	3.30424e-06
1593.41	1.71469e-06
1601.97	1.46734e-06
1610.52	5.39592e-07
1619.08	1.27459e-06
1627.64	-2.35227e-08
1636.2	2.19377e-06
1644.75	1.81412e-06
1653.31	-2.23066e-05
1661.87	1.86106e-06
1670.43	1.92207e-06
1678.99	1.99019e-06
1687.54	1.59867e-06
1696.1	-7.91175e-06
1704.66	1.39298e-06
1713.22	4.99627e-06
1721.77	6.49754e-06
1730.33	4.09709e-06
1738.89	2.4981e-06
1747.45	1.42654e-06
1756	4.28967e-07
1764.56	3.71866e-07
1773.12	6.00337e-07
1781.68	2.36827e-06
1790.23	2.61653e-06
1798.79	2.84967e-06
1807.35	2.47578e-06
1815.91	1.0166e-06
1824.47	2.41346e-07
1833.02	9.80862e-07
1841.58	7.07237e-07
1850.14	5.6545e-07
1858.7	1.75032e-06
1867.25	1.69362e-06
1875.81	9.28832e-07
1884.37	3.31707e-07
1892.93	3.63197e-07
1901.48	-1.69643e-07
1910.04	6.20007e-08
1918.6	2.98394e-06
1927.16	5.61956e-06
1935.71	6.00197e-06
1944.27	4.45836e-06
1952.83	1.36777e-06
1961.39	-3.72521e-08
1969.95	3.75129e-07
1978.5	-1.34304e-07
1987.06	-5.30027e-07
1995.62	3.75031e-07
2004.18	-5.17564e-08
2012.73	5.12689e-07
2021.29	-4.53384e-07
2029.85	5.28118e-07
2038.41	6.27407e-07
2046.96	1.1843e-06
2055.52	2.41871e-06
2064.08	5.32349e-06
2072.64	3.58774e-06
2081.19	9.57859e-07
2089.75	1.10746e-06
2098.31	3.93799e-07
2106.87	-4.76383e-08
2115.43	6.767e-07
2123.98	-8.88011e-09
2132.54	2.10609e-07
2141.1	8.53564e-07
2149.66	2.3169e-06
2158.21	4.32088e-06
2166.77	4.76427e-06
2175.33	2.05436e-06
2183.89	6.37185e-07
2192.44	2.88442e-07
2201	4.35871e-07
2209.56	-1.80465e-07
2218.12	-1.1925e-08
2226.67	-5.11489e-08
2235.23	1.26398e-06
2243.79	2.39234e-06
2252.35	4.64266e-06
2260.9	5.81712e-06
2269.46	7.62382e-06
2278.02	1.25407e-05
2286.58	1.03412e-05
2295.14	3.26639e-06
2303.69	2.35897e-06
2312.25	1.55476e-06
2320.81	-5.14785e-07
2329.37	4.17238e-07
2337.92	-8.56085e-07
2346.48	7.01616e-07
2355.04	1.03652e-06
2363.6	1.70865e-07
2372.15	4.91127e-07
2380.71	-3.71964e-07
2389.27	2.01597e-06
2397.83	4.54895e-06
2406.38	6.24881e-06
2414.94	6.50292e-06
2423.5	2.80818e-06
2432.06	1.25295e-06
2440.62	1.41221e-06
2449.17	1.05864e-06
2457.73	-3.2601e-07
2466.29	-1.04233e-06
2474.85	-6.28997e-07
2483.4	1.01122e-06
2491.96	3.10651e-06
2500.52	5.4449e-06
2509.08	3.90829e-06
2517.63	2.06227e-06
2526.19	-1.6921e-07
2534.75	2.13454e-07
2543.31	-4.52384e-07
2551.86	-8.04402e-07
2560.42	1.15327e-06
2568.98	1.87714e-06
2577.54	1.44024e-06
2586.1	1.05221e-06
2594.65	1.38105e-06
2603.21	1.93678e-06
2611.77	1.11308e-06
2620.33	-8.16381e-08
2628.88	-3.33377e-07
2637.44	-6.71029e-07
2646	-7.78474e-08
2654.56	7.45755e-07
2663.11	4.73804e-07
2671.67	-6.27174e-09
2680.23	1.08247e-06
2688.79	1.07106e-06
2697.34	1.4039e-07
2705.9	1.35745e-07
2714.46	-5.39635e-07
2723.02	-1.03149e-06
2731.58	-2.1273e-07
2740.13	-2.70962e-07
2748.69	-4.14077e-07
2757.25	2.84899e-07
2765.81	7.32724e-07
2774.36	1.74124e-07
2782.92	5.02605e-07
2791.48	-1.83492e-07
2800.04	4.23415e-07
2808.59	2.11206e-07
2817.15	-1.76736e-07
2825.71	-6.39161e-07
2834.27	1.53867e-06
2842.82	4.29758e-06
2851.38	1.82001e-06
2859.94	2.05743e-06
2868.5	1.43874e-06
2877.06	-3.74358e-07
2885.61	-7.37777e-07
2894.17	1.83528e-07
2902.73	1.55819e-07
2911.29	-3.2604e-07
2919.84	-1.20221e-06
2928.4	-3.46284e-07
2936.96	7.33048e-07
2945.52	1.03789e-06
2954.07	1.16325e-07
2962.63	8.65526e-07
2971.19	2.32742e-06
2979.75	1.18943e-05
2988.3	4.76893e-05
2996.86	7.00631e-05
3005.42	6.23832e-05
3013.98	4.21463e-05
3022.54	6.96668e-06
3031.09	2.99836e-08
3039.65	8.48726e-07
3048.21	-8.09407e-07
3056.77	-5.87252e-07
3065.32	-1.98156e-08
3073.88	-9.04266e-07
3082.44	-5.22002e-07
3091	5.66541e-07
3099.55	-1.35157e-06
3108.11	-9.22506e-07
3116.67	-9.35119e-07
3125.23	1.51471e-07
3133.78	-6.69268e-07
3142.34	-3.18644e-07
3150.9	-6.51995e-07
3159.46	-1.976e-07
3168.02	-1.80036e-07
3176.57	9.4772e-07
3185.13	-1.72524e-06
3193.69	-2.15942e-07
3202.25	-7.28584e-07
3210.8	-1.25189e-06
3219.36	-1.48562e-06
3227.92	4.53431e-07
3236.48	2.72879e-08
3245.03	-1.36751e-06
3253.59	-3.21299e-08
3262.15	-9.83514e-07
3270.71	-1.77599e-07
3279.26	4.87173e-07
3287.82	-4.68114e-07
3296.38	-3.78254e-07
3304.94	-4.57193e-07
3313.5	-1.29398e-06
3322.05	-1.38059e-06
3330.61	1.13975e-08
3339.17	-4.13538e-07
3347.73	-5.11412e-07
3356.28	-1.56877e-07
3364.84	6.761e-07
3373.4	-3.10306e-07
3381.96	5.97703e-07
3390.51	-6.46924e-07
3399.07	7.17649e-07
3407.63	-1.33952e-06
3416.19	-2.70969e-06
3424.74	-1.51839e-06
3433.3	-3.4376e-07
3441.86	5.88969e-07
3450.42	-1.61759e-07
3458.98	-1.20363e-06
3467.53	-2.71909e-06
3476.09	-2.65455e-06
3484.65	-2.28392e-06
3493.21	-2.27376e-07
3501.76	8.27455e-07
3510.32	-2.30859e-06
3518.88	-1.50405e-06
3527.44	-1.33195e-06
3535.99	-9.38644e-07
3544.55	-6.4047e-07
3553.11	-7.43827e-07
3561.67	-1.57365e-06
3570.22	-1.72986e-07
3578.78	-1.30422e-06
3587.34	-1.45772e-06
3595.9	-1.76069e-06
3604.46	-1.79535e-06
3613.01	-1.94344e-06
3621.57	-5.88565e-07
3630.13	-1.95576e-06
3638.69	-1.30558e-06
3647.24	-4.29524e-06
3655.8	-2.72343e-06
3664.36	-1.60316e-06
3672.92	-2.33778e-06
3681.47	-1.19785e-06
3690.03	-2.42593e-06
3698.59	-1.18269e-06
3707.15	-1.13348e-06
3715.7	-1.37015e-06
3724.26	-2.21325e-06
3732.82	-1.77654e-06
3741.38	-3.94692e-06
3749.94	-3.11137e-06
3758.49	-1.29109e-06
3767.05	-1.02904e-06
3775.61	-9.96133e-07
3784.17	-1.9092e-06
3792.72	-1.11876e-06
3801.28	-1.28459e-05
3809.84	-1.75239e-06
3818.4	-1.31625e-06
3826.95	-2.21801e-06
3835.51	-1.52377e-06
3844.07	-2.6217e-06
3852.63	-4.56381e-06
3861.18	-7.42848e-07
3869.74	-2.79185e-06
3878.3	-1.1649e-06
3886.86	-2.13281e-06
3895.42	-1.39519e-06
3903.97	-5.04696e-06
3912.53	-3.62473e-06
3921.09	-1.53467e-06
3929.65	-2.01738e-06
3938.2	-2.0522e-06
3946.76	-1.97259e-06
3955.32	-3.40803e-06
3963.88	-2.75374e-06
3972.43	-1.63178e-06
