Infrared Spectrum: Pentafluoroethane
Formula: C2 H F5
CAS: 354-33-6
State: gas
Melting point: -102.78 C
Boiling point: -48.55 C
Class: IUPAC A
Instrument: IFS66V (Bruker)
Instrument parameters: KBr Beam Splitter; MCT Detector; Multipass cell
Sampling: 1 L/min Flow
Resolution: 0.2410
Temperature: 23 C
Pressure: 101.3 Pa
Origin: NIST, Analytical Chemistry Division, 301-975-3108
cm-1	(micromol/mol)-1m-1 (base 10)
575.049	7.96393e-05
583.607	0.00010891
592.164	3.94943e-05
600.722	3.40378e-06
609.28	1.32236e-06
617.837	4.34996e-06
626.395	2.64499e-06
634.953	4.0326e-06
643.51	4.58836e-06
652.068	3.69352e-07
660.625	3.47635e-06
669.183	2.93427e-06
677.741	1.65687e-06
686.298	1.87373e-06
694.856	2.20595e-06
703.414	1.75424e-05
711.971	0.000116704
720.529	0.000340575
729.087	0.000248056
737.644	0.000120896
746.202	1.53187e-05
754.76	1.43082e-06
763.317	2.97671e-06
771.875	3.40873e-06
780.432	3.80873e-06
788.99	5.23595e-06
797.548	3.57659e-06
806.105	2.66395e-06
814.663	2.12851e-06
823.221	3.17663e-06
831.778	4.18205e-06
840.336	1.25865e-05
848.894	6.61465e-05
857.451	0.000196899
866.009	0.000355044
874.567	0.000237081
883.124	6.35535e-05
891.682	1.93919e-05
900.239	1.4098e-05
908.797	7.58123e-06
917.355	4.94121e-06
925.912	7.05743e-06
934.47	8.9032e-06
943.028	7.5319e-06
951.585	3.76792e-06
960.143	1.41756e-06
968.701	1.08544e-06
977.258	1.22704e-06
985.816	2.67486e-06
994.374	1.61833e-06
1002.93	1.21725e-06
1011.49	9.01544e-07
1020.05	1.91619e-06
1028.6	7.66669e-07
1037.16	4.70581e-07
1045.72	1.10019e-06
1054.28	4.6127e-06
1062.83	1.0688e-05
1071.39	2.12475e-05
1079.95	2.57974e-05
1088.51	3.13953e-05
1097.07	6.15275e-05
1105.62	0.000123167
1114.18	0.000164955
1122.74	0.000186061
1131.3	0.000561205
1139.85	0.00175239
1148.41	0.00196618
1156.97	0.000419978
1165.53	8.80583e-05
1174.08	7.2313e-05
1182.64	0.000210049
1191.2	0.000623054
1199.76	0.00211177
1208.31	0.00292909
1216.87	0.00250502
1225.43	0.00204968
1233.99	0.000859549
1242.55	0.000148601
1251.1	5.81425e-05
1259.66	5.7767e-05
1268.22	6.77067e-05
1276.78	7.84579e-05
1285.33	0.00014798
1293.89	0.000571935
1302.45	0.000812625
1311.01	0.000547511
1319.56	0.000454545
1328.12	7.74897e-05
1336.68	1.20224e-05
1345.24	2.96925e-05
1353.79	3.94581e-05
1362.35	3.40552e-05
1370.91	2.03936e-05
1379.47	1.68069e-05
1388.03	2.3821e-05
1396.58	1.77935e-05
1405.14	1.04042e-05
1413.7	6.75291e-06
1422.26	9.59895e-06
1430.81	1.55013e-05
1439.37	2.23075e-05
1447.93	2.00449e-05
1456.49	9.07912e-06
1465.04	1.5314e-06
1473.6	-6.08678e-06
1482.16	1.68791e-06
1490.72	-2.36008e-06
1499.27	1.32898e-06
1507.83	9.57561e-07
1516.39	8.55154e-07
1524.95	4.31932e-07
1533.51	3.30452e-07
1542.06	-8.79583e-06
1550.62	3.03422e-06
1559.18	2.26116e-06
1567.74	3.34571e-06
1576.29	-1.13098e-05
1584.85	3.19828e-06
1593.41	1.85414e-06
1601.97	1.43621e-06
1610.52	5.4296e-07
1619.08	1.27724e-06
1627.64	-6.48237e-08
1636.2	2.04602e-06
1644.75	1.86011e-06
1653.31	-2.00977e-05
1661.87	1.70399e-06
1670.43	1.9256e-06
1678.99	1.98585e-06
1687.54	1.64322e-06
1696.1	-9.75037e-06
1704.66	1.01339e-06
1713.22	5.09051e-06
1721.77	6.50324e-06
1730.33	4.07889e-06
1738.89	2.46154e-06
1747.45	1.29176e-06
1756	5.03482e-07
1764.56	6.15045e-07
1773.12	7.38057e-07
1781.68	2.23776e-06
1790.23	2.78637e-06
1798.79	2.94918e-06
1807.35	2.42863e-06
1815.91	1.08165e-06
1824.47	3.01858e-07
1833.02	1.04455e-06
1841.58	7.21046e-07
1850.14	5.2739e-07
1858.7	1.61873e-06
1867.25	1.56012e-06
1875.81	1.06863e-06
1884.37	2.91363e-07
1892.93	3.11288e-07
1901.48	-3.46874e-07
1910.04	1.36789e-07
1918.6	2.96734e-06
1927.16	5.56211e-06
1935.71	5.83118e-06
1944.27	4.27005e-06
1952.83	1.51549e-06
1961.39	8.45593e-08
1969.95	4.79432e-07
1978.5	-1.9071e-07
1987.06	-2.86892e-07
1995.62	2.2452e-07
2004.18	-3.48911e-08
2012.73	3.92573e-07
2021.29	-3.47907e-07
2029.85	4.89199e-07
2038.41	6.26876e-07
2046.96	1.23793e-06
2055.52	2.6249e-06
2064.08	5.15301e-06
2072.64	3.6886e-06
2081.19	1.05339e-06
2089.75	1.0994e-06
2098.31	2.84306e-07
2106.87	7.42495e-09
2115.43	7.17045e-07
2123.98	1.76926e-07
2132.54	2.26245e-07
2141.1	1.11242e-06
2149.66	2.24356e-06
2158.21	4.45848e-06
2166.77	4.87359e-06
2175.33	2.19932e-06
2183.89	7.0477e-07
2192.44	2.22832e-07
2201	3.8083e-07
2209.56	-1.79108e-07
2218.12	9.9562e-08
2226.67	7.78583e-08
2235.23	1.16477e-06
2243.79	2.32107e-06
2252.35	4.71469e-06
2260.9	5.93214e-06
2269.46	7.67265e-06
2278.02	1.24766e-05
2286.58	1.0228e-05
2295.14	3.33526e-06
2303.69	2.23339e-06
2312.25	1.4638e-06
2320.81	-5.0486e-07
2329.37	2.70205e-07
2337.92	-1.14561e-06
2346.48	6.99474e-07
2355.04	9.37123e-07
2363.6	1.13259e-07
2372.15	4.0165e-07
2380.71	-3.66999e-07
2389.27	2.17308e-06
2397.83	4.59496e-06
2406.38	6.18747e-06
2414.94	6.48799e-06
2423.5	2.81466e-06
2432.06	1.05082e-06
2440.62	1.19828e-06
2449.17	9.85427e-07
2457.73	-2.88696e-07
2466.29	-1.09071e-06
2474.85	-6.91525e-07
2483.4	8.06828e-07
2491.96	3.06883e-06
2500.52	5.53762e-06
2509.08	4.0063e-06
2517.63	2.14799e-06
2526.19	-1.13066e-07
2534.75	2.6127e-07
2543.31	-4.53748e-07
2551.86	-6.75089e-07
2560.42	1.04296e-06
2568.98	1.81219e-06
2577.54	1.50199e-06
2586.1	1.13994e-06
2594.65	1.36176e-06
2603.21	2.06999e-06
2611.77	1.37178e-06
2620.33	-1.0217e-07
2628.88	-3.88662e-07
2637.44	-6.54793e-07
2646	-1.5854e-08
2654.56	1.01104e-06
2663.11	6.71644e-07
2671.67	3.62895e-07
2680.23	9.9004e-07
2688.79	8.88251e-07
2697.34	1.61665e-07
2705.9	3.68883e-08
2714.46	-6.06474e-07
2723.02	-5.60899e-07
2731.58	-4.32292e-07
2740.13	-2.4423e-07
2748.69	-2.66607e-07
2757.25	1.20589e-07
2765.81	4.61268e-07
2774.36	2.08135e-07
2782.92	2.76546e-07
2791.48	1.16558e-08
2800.04	1.53254e-07
2808.59	3.52109e-07
2817.15	-3.15602e-07
2825.71	-2.68368e-07
2834.27	1.50625e-06
2842.82	3.66528e-06
2851.38	1.82592e-06
2859.94	1.89119e-06
2868.5	1.35543e-06
2877.06	-3.27189e-07
2885.61	-8.35109e-07
2894.17	-6.50893e-08
2902.73	4.78748e-08
2911.29	-2.99043e-07
2919.84	-1.08919e-06
2928.4	-9.07947e-08
2936.96	4.55716e-07
2945.52	8.73252e-07
2954.07	-4.62304e-08
2962.63	8.10822e-07
2971.19	1.943e-06
2979.75	1.19454e-05
2988.3	4.7403e-05
2996.86	7.0238e-05
3005.42	6.21583e-05
3013.98	4.22975e-05
3022.54	6.9894e-06
3031.09	-1.88825e-07
3039.65	7.35263e-07
3048.21	-5.19336e-07
3056.77	-4.2992e-07
3065.32	-2.90195e-08
3073.88	-7.47869e-07
3082.44	-2.62253e-07
3091	2.73301e-07
3099.55	-1.51587e-06
3108.11	-9.04535e-07
3116.67	-8.07057e-07
3125.23	1.12993e-08
3133.78	-4.7181e-07
3142.34	-3.82027e-07
3150.9	-2.93549e-07
3159.46	-3.59312e-07
3168.02	-3.73685e-08
3176.57	5.31956e-07
3185.13	-1.2748e-06
3193.69	-4.65007e-07
3202.25	-4.12512e-07
3210.8	-1.06116e-06
3219.36	-1.2925e-06
3227.92	-2.49924e-09
3236.48	3.31344e-07
3245.03	-1.02598e-06
3253.59	2.00976e-07
3262.15	-1.0216e-06
3270.71	-1.10247e-07
3279.26	2.10456e-07
3287.82	-2.19147e-07
3296.38	-5.36976e-07
3304.94	-3.88426e-07
3313.5	-9.98429e-07
3322.05	-7.62689e-07
3330.61	-1.58212e-08
3339.17	-4.52678e-07
3347.73	-3.19604e-07
3356.28	-1.64302e-07
3364.84	-2.50331e-07
3373.4	-3.98175e-07
3381.96	1.19068e-08
3390.51	-2.01623e-07
3399.07	5.77615e-07
3407.63	-1.15888e-06
3416.19	-2.15586e-06
3424.74	-1.37645e-06
3433.3	-7.40782e-07
3441.86	3.80081e-07
3450.42	4.66815e-08
3458.98	-1.12419e-06
3467.53	-2.51109e-06
3476.09	-2.17652e-06
3484.65	-1.8715e-06
3493.21	-4.62406e-07
3501.76	5.09521e-07
3510.32	-2.35217e-06
3518.88	-1.77304e-06
3527.44	-1.3661e-06
3535.99	-1.03568e-06
3544.55	-5.89736e-07
3553.11	-1.06878e-06
3561.67	-1.36892e-06
3570.22	-3.60447e-07
3578.78	-1.22868e-06
3587.34	-1.59202e-06
3595.9	-1.67255e-06
3604.46	-1.91145e-06
3613.01	-1.78461e-06
3621.57	-1.01385e-06
3630.13	-1.74172e-06
3638.69	-1.45358e-06
3647.24	-4.40651e-06
3655.8	-2.53953e-06
3664.36	-1.63402e-06
3672.92	-1.71752e-06
3681.47	-1.53298e-06
3690.03	-2.16933e-06
3698.59	-1.40166e-06
3707.15	-1.06632e-06
3715.7	-1.27133e-06
3724.26	-2.14911e-06
3732.82	-1.88616e-06
3741.38	-3.46157e-06
3749.94	-2.98952e-06
3758.49	-1.3499e-06
3767.05	-1.16595e-06
3775.61	-1.38287e-06
3784.17	-2.08343e-06
3792.72	-1.4098e-06
3801.28	-1.33907e-05
3809.84	-1.78706e-06
3818.4	-1.44796e-06
3826.95	-2.54902e-06
3835.51	-1.71952e-06
3844.07	-2.47453e-06
3852.63	-4.08802e-06
3861.18	-1.04396e-06
3869.74	-2.80818e-06
3878.3	-1.53589e-06
3886.86	-1.97632e-06
3895.42	-1.56406e-06
3903.97	-5.25913e-06
3912.53	-3.21691e-06
3921.09	-1.58875e-06
3929.65	-1.80966e-06
3938.2	-2.00167e-06
3946.76	-2.11899e-06
3955.32	-3.12628e-06
3963.88	-3.04919e-06
3972.43	-1.29878e-06
