Infrared Spectrum: Pentafluoroethane
Formula: C2 H F5
CAS: 354-33-6
State: gas
Melting point: -102.78 C
Boiling point: -48.55 C
Class: IUPAC A
Instrument: IFS66V (Bruker)
Instrument parameters: KBr Beam Splitter; MCT Detector; Multipass cell
Sampling: 1 L/min Flow
Resolution: 0.2410
Temperature: 23 C
Pressure: 101.3 Pa
Origin: NIST, Analytical Chemistry Division, 301-975-3108
cm-1	(micromol/mol)-1m-1 (base 10)
575.049	7.97008e-05
583.607	0.0001088
592.164	3.94475e-05
600.722	3.41285e-06
609.28	1.28737e-06
617.837	4.30443e-06
626.395	2.64217e-06
634.953	4.04192e-06
643.51	4.53835e-06
652.068	3.69371e-07
660.625	3.46316e-06
669.183	2.92321e-06
677.741	1.63419e-06
686.298	1.85278e-06
694.856	2.19014e-06
703.414	1.75386e-05
711.971	0.000116689
720.529	0.00034058
729.087	0.000248142
737.644	0.000120894
746.202	1.53193e-05
754.76	1.43155e-06
763.317	2.98163e-06
771.875	3.39687e-06
780.432	3.83312e-06
788.99	5.21124e-06
797.548	3.59449e-06
806.105	2.66513e-06
814.663	2.16602e-06
823.221	3.18488e-06
831.778	4.18025e-06
840.336	1.25764e-05
848.894	6.61548e-05
857.451	0.000196907
866.009	0.000355022
874.567	0.000237071
883.124	6.35625e-05
891.682	1.93925e-05
900.239	1.41144e-05
908.797	7.58971e-06
917.355	4.93676e-06
925.912	7.06764e-06
934.47	8.8927e-06
943.028	7.5292e-06
951.585	3.76741e-06
960.143	1.41767e-06
968.701	1.08283e-06
977.258	1.22547e-06
985.816	2.65956e-06
994.374	1.6195e-06
1002.93	1.21234e-06
1011.49	8.97455e-07
1020.05	1.91371e-06
1028.6	7.7795e-07
1037.16	4.75219e-07
1045.72	1.10793e-06
1054.28	4.61918e-06
1062.83	1.06688e-05
1071.39	2.12412e-05
1079.95	2.57992e-05
1088.51	3.13908e-05
1097.07	6.15188e-05
1105.62	0.000123153
1114.18	0.000164916
1122.74	0.000186052
1131.3	0.000561219
1139.85	0.00175239
1148.41	0.00196625
1156.97	0.00042
1165.53	8.80568e-05
1174.08	7.23034e-05
1182.64	0.00021005
1191.2	0.000623055
1199.76	0.0021116
1208.31	0.0029291
1216.87	0.002505
1225.43	0.00204973
1233.99	0.00085956
1242.55	0.000148612
1251.1	5.81468e-05
1259.66	5.77763e-05
1268.22	6.77128e-05
1276.78	7.84592e-05
1285.33	0.000147983
1293.89	0.000571935
1302.45	0.000812525
1311.01	0.000547427
1319.56	0.000454561
1328.12	7.74916e-05
1336.68	1.20315e-05
1345.24	2.96835e-05
1353.79	3.94438e-05
1362.35	3.4029e-05
1370.91	2.03863e-05
1379.47	1.68051e-05
1388.03	2.38183e-05
1396.58	1.77763e-05
1405.14	1.04126e-05
1413.7	6.75198e-06
1422.26	9.60188e-06
1430.81	1.5498e-05
1439.37	2.23026e-05
1447.93	2.00824e-05
1456.49	9.10869e-06
1465.04	1.53965e-06
1473.6	-6.02341e-06
1482.16	1.68286e-06
1490.72	-2.33628e-06
1499.27	1.3175e-06
1507.83	9.61733e-07
1516.39	8.52767e-07
1524.95	4.34092e-07
1533.51	3.09134e-07
1542.06	-8.72915e-06
1550.62	3.02947e-06
1559.18	2.25372e-06
1567.74	3.35082e-06
1576.29	-1.12233e-05
1584.85	3.19959e-06
1593.41	1.8591e-06
1601.97	1.43189e-06
1610.52	5.54987e-07
1619.08	1.26559e-06
1627.64	-6.75485e-08
1636.2	2.03677e-06
1644.75	1.86268e-06
1653.31	-1.99458e-05
1661.87	1.70471e-06
1670.43	1.92689e-06
1678.99	1.98113e-06
1687.54	1.63943e-06
1696.1	-9.75683e-06
1704.66	9.96439e-07
1713.22	5.09718e-06
1721.77	6.505e-06
1730.33	4.06834e-06
1738.89	2.45859e-06
1747.45	1.27912e-06
1756	4.99487e-07
1764.56	6.2972e-07
1773.12	7.27485e-07
1781.68	2.2409e-06
1790.23	2.78723e-06
1798.79	2.94309e-06
1807.35	2.42245e-06
1815.91	1.08737e-06
1824.47	3.03208e-07
1833.02	1.04e-06
1841.58	7.17292e-07
1850.14	5.23054e-07
1858.7	1.61569e-06
1867.25	1.56266e-06
1875.81	1.06323e-06
1884.37	2.93644e-07
1892.93	3.17349e-07
1901.48	-3.40369e-07
1910.04	1.41241e-07
1918.6	2.95937e-06
1927.16	5.55257e-06
1935.71	5.839e-06
1944.27	4.26837e-06
1952.83	1.5172e-06
1961.39	8.93432e-08
1969.95	4.75324e-07
1978.5	-1.84656e-07
1987.06	-2.89962e-07
1995.62	2.232e-07
2004.18	-2.90232e-08
2012.73	3.8899e-07
2021.29	-3.4114e-07
2029.85	4.92382e-07
2038.41	6.26592e-07
2046.96	1.23957e-06
2055.52	2.62434e-06
2064.08	5.15793e-06
2072.64	3.68808e-06
2081.19	1.06066e-06
2089.75	1.09559e-06
2098.31	2.82581e-07
2106.87	1.02662e-08
2115.43	7.23495e-07
2123.98	1.85242e-07
2132.54	2.27241e-07
2141.1	1.10329e-06
2149.66	2.236e-06
2158.21	4.45205e-06
2166.77	4.87283e-06
2175.33	2.1963e-06
2183.89	7.04403e-07
2192.44	2.20817e-07
2201	3.68658e-07
2209.56	-1.71683e-07
2218.12	1.00813e-07
2226.67	8.44029e-08
2235.23	1.1643e-06
2243.79	2.32799e-06
2252.35	4.71219e-06
2260.9	5.93299e-06
2269.46	7.6759e-06
2278.02	1.24764e-05
2286.58	1.02188e-05
2295.14	3.32733e-06
2303.69	2.22587e-06
2312.25	1.46002e-06
2320.81	-5.36685e-07
2329.37	2.78805e-07
2337.92	-1.23032e-06
2346.48	6.92085e-07
2355.04	9.31117e-07
2363.6	9.41197e-08
2372.15	3.97255e-07
2380.71	-3.61032e-07
2389.27	2.17031e-06
2397.83	4.60243e-06
2406.38	6.18438e-06
2414.94	6.48666e-06
2423.5	2.81095e-06
2432.06	1.05419e-06
2440.62	1.19881e-06
2449.17	9.89112e-07
2457.73	-2.83978e-07
2466.29	-1.08867e-06
2474.85	-6.80207e-07
2483.4	8.04602e-07
2491.96	3.06818e-06
2500.52	5.53697e-06
2509.08	3.99625e-06
2517.63	2.13581e-06
2526.19	-1.0567e-07
2534.75	2.56261e-07
2543.31	-4.52671e-07
2551.86	-6.70923e-07
2560.42	1.04944e-06
2568.98	1.81084e-06
2577.54	1.49307e-06
2586.1	1.12974e-06
2594.65	1.36465e-06
2603.21	2.07593e-06
2611.77	1.3614e-06
2620.33	-9.52948e-08
2628.88	-3.96236e-07
2637.44	-6.50329e-07
2646	3.09222e-10
2654.56	1.00618e-06
2663.11	6.79076e-07
2671.67	3.77116e-07
2680.23	9.94518e-07
2688.79	8.93497e-07
2697.34	1.5739e-07
2705.9	4.53573e-08
2714.46	-6.07729e-07
2723.02	-5.47166e-07
2731.58	-4.25161e-07
2740.13	-2.33793e-07
2748.69	-2.54853e-07
2757.25	1.21931e-07
2765.81	4.58801e-07
2774.36	2.08226e-07
2782.92	2.79605e-07
2791.48	1.31837e-08
2800.04	1.46309e-07
2808.59	3.51512e-07
2817.15	-3.05518e-07
2825.71	-2.62231e-07
2834.27	1.50647e-06
2842.82	3.64902e-06
2851.38	1.8337e-06
2859.94	1.89496e-06
2868.5	1.3563e-06
2877.06	-3.17287e-07
2885.61	-8.27091e-07
2894.17	-7.06989e-08
2902.73	4.43387e-08
2911.29	-3.03605e-07
2919.84	-1.06932e-06
2928.4	-9.36468e-08
2936.96	4.57895e-07
2945.52	8.56576e-07
2954.07	-3.98714e-08
2962.63	8.01313e-07
2971.19	1.94637e-06
2979.75	1.19414e-05
2988.3	4.74142e-05
2996.86	7.02371e-05
3005.42	6.21687e-05
3013.98	4.23174e-05
3022.54	6.98934e-06
3031.09	-1.80072e-07
3039.65	7.26321e-07
3048.21	-5.20303e-07
3056.77	-4.31164e-07
3065.32	-2.70987e-08
3073.88	-7.43281e-07
3082.44	-2.67826e-07
3091	2.5808e-07
3099.55	-1.50829e-06
3108.11	-9.03556e-07
3116.67	-8.01837e-07
3125.23	8.19255e-09
3133.78	-4.78253e-07
3142.34	-3.67257e-07
3150.9	-2.9527e-07
3159.46	-3.55466e-07
3168.02	-4.69908e-08
3176.57	5.34684e-07
3185.13	-1.26612e-06
3193.69	-4.65837e-07
3202.25	-4.20821e-07
3210.8	-1.05252e-06
3219.36	-1.28486e-06
3227.92	-1.29982e-08
3236.48	3.16155e-07
3245.03	-1.01982e-06
3253.59	1.94609e-07
3262.15	-1.02352e-06
3270.71	-9.36286e-08
3279.26	2.12693e-07
3287.82	-2.30617e-07
3296.38	-5.25971e-07
3304.94	-3.97804e-07
3313.5	-9.79334e-07
3322.05	-7.64596e-07
3330.61	-1.78148e-08
3339.17	-4.50256e-07
3347.73	-3.18491e-07
3356.28	-1.79709e-07
3364.84	-2.48479e-07
3373.4	-3.88186e-07
3381.96	5.49323e-10
3390.51	-2.12886e-07
3399.07	5.71023e-07
3407.63	-1.1403e-06
3416.19	-2.14992e-06
3424.74	-1.37202e-06
3433.3	-7.4283e-07
3441.86	3.62677e-07
3450.42	4.08609e-08
3458.98	-1.11567e-06
3467.53	-2.47608e-06
3476.09	-2.16507e-06
3484.65	-1.86514e-06
3493.21	-4.64149e-07
3501.76	5.02208e-07
3510.32	-2.34152e-06
3518.88	-1.76941e-06
3527.44	-1.3725e-06
3535.99	-1.04066e-06
3544.55	-6.07464e-07
3553.11	-1.08226e-06
3561.67	-1.36231e-06
3570.22	-3.58133e-07
3578.78	-1.22618e-06
3587.34	-1.58332e-06
3595.9	-1.67917e-06
3604.46	-1.895e-06
3613.01	-1.78433e-06
3621.57	-1.02897e-06
3630.13	-1.74976e-06
3638.69	-1.4624e-06
3647.24	-4.40802e-06
3655.8	-2.55317e-06
3664.36	-1.62059e-06
3672.92	-1.73139e-06
3681.47	-1.52035e-06
3690.03	-2.16834e-06
3698.59	-1.4052e-06
3707.15	-1.07869e-06
3715.7	-1.27436e-06
3724.26	-2.13567e-06
3732.82	-1.88919e-06
3741.38	-3.46296e-06
3749.94	-3.01415e-06
3758.49	-1.362e-06
3767.05	-1.18218e-06
3775.61	-1.39891e-06
3784.17	-2.0826e-06
3792.72	-1.41781e-06
3801.28	-1.33501e-05
3809.84	-1.78755e-06
3818.4	-1.44587e-06
3826.95	-2.55385e-06
3835.51	-1.72185e-06
3844.07	-2.48383e-06
3852.63	-4.08077e-06
3861.18	-1.04834e-06
3869.74	-2.83474e-06
3878.3	-1.52761e-06
3886.86	-1.98611e-06
3895.42	-1.5682e-06
3903.97	-5.2637e-06
3912.53	-3.20533e-06
3921.09	-1.59541e-06
3929.65	-1.81045e-06
3938.2	-2.0117e-06
3946.76	-2.11183e-06
3955.32	-3.11032e-06
3963.88	-3.03164e-06
3972.43	-1.31365e-06
