Infrared Spectrum: Pentafluoroethane
Formula: C2 H F5
CAS: 354-33-6
State: gas
Melting point: -102.78 C
Boiling point: -48.55 C
Class: IUPAC A
Instrument: IFS66V (Bruker)
Instrument parameters: KBr Beam Splitter; MCT Detector; Multipass cell
Sampling: 1 L/min Flow
Resolution: 0.9640
Temperature: 23 C
Pressure: 101.3 Pa
Origin: NIST, Analytical Chemistry Division, 301-975-3108
cm-1	(micromol/mol)-1m-1 (base 10)
575.17	8.10713e-05
583.848	0.000111643
592.526	3.69745e-05
601.205	4.64859e-06
609.883	1.78535e-06
618.561	1.93812e-06
627.239	1.2414e-06
635.917	4.25925e-07
644.595	2.22865e-06
653.274	2.74213e-06
661.952	1.77904e-06
670.63	2.39269e-06
679.308	2.97362e-07
687.986	5.79183e-07
696.664	3.45027e-06
705.343	3.04172e-05
714.021	0.000139316
722.699	0.000230034
731.377	0.000180857
740.055	7.92142e-05
748.733	7.23516e-06
757.412	2.37517e-06
766.09	2.5594e-06
774.768	3.44388e-06
783.446	4.63552e-06
792.124	4.62296e-06
800.802	2.9344e-06
809.481	3.02878e-06
818.159	2.91716e-06
826.837	3.37058e-06
835.515	5.8809e-06
844.193	2.57363e-05
852.872	0.000127408
861.55	0.000244207
870.228	0.000209019
878.906	0.00015724
887.584	2.7028e-05
896.262	1.49877e-05
904.941	1.15588e-05
913.619	4.2745e-06
922.297	5.81304e-06
930.975	7.28134e-06
939.653	8.44982e-06
948.331	4.59864e-06
957.01	1.72697e-06
965.688	1.60918e-06
974.366	2.03938e-06
983.044	2.46829e-06
991.722	2.02065e-06
1000.4	1.89618e-06
1009.08	1.66348e-06
1017.76	9.85689e-07
1026.43	8.07654e-07
1035.11	8.15213e-07
1043.79	1.63285e-06
1052.47	2.59564e-06
1061.15	7.87134e-06
1069.83	1.79275e-05
1078.5	2.48538e-05
1087.18	2.95772e-05
1095.86	5.52196e-05
1104.54	0.000114232
1113.22	0.000162832
1121.89	0.000185826
1130.57	0.000493837
1139.25	0.0016821
1147.93	0.00193254
1156.61	0.00046536
1165.29	9.03936e-05
1173.96	7.2e-05
1182.64	0.000209524
1191.32	0.000630078
1200	0.00192814
1208.68	0.00292501
1217.35	0.00252017
1226.03	0.00186466
1234.71	0.000761588
1243.39	0.000129589
1252.07	5.92562e-05
1260.75	5.99829e-05
1269.42	6.94164e-05
1278.1	8.5408e-05
1286.78	0.00018299
1295.46	0.000678515
1304.14	0.00083954
1312.81	0.00053897
1321.49	0.000354747
1330.17	4.22723e-05
1338.85	1.42457e-05
1347.53	3.14239e-05
1356.21	4.87412e-05
1364.88	3.07166e-05
1373.56	1.72809e-05
1382.24	1.74426e-05
1390.92	2.54801e-05
1399.6	1.42332e-05
1408.27	8.34609e-06
1416.95	6.54296e-06
1425.63	1.21478e-05
1434.31	1.76373e-05
1442.99	2.63477e-05
1451.67	2.22043e-05
1460.34	1.16936e-05
1469.02	3.28313e-06
1477.7	1.67116e-06
1486.38	5.22042e-07
1495.06	9.2853e-07
1503.73	1.83012e-06
1512.41	5.75487e-07
1521.09	-3.677e-06
1529.77	1.73674e-06
1538.45	-2.39845e-06
1547.13	2.7418e-06
1555.8	4.06191e-06
1564.48	3.18694e-06
1573.16	3.75049e-06
1581.84	3.87648e-06
1590.52	2.46396e-06
1599.19	1.47736e-06
1607.87	9.81116e-07
1616.55	-5.69192e-06
1625.23	1.34302e-06
1633.91	2.05661e-06
1642.59	2.44945e-06
1651.26	1.01909e-06
1659.94	1.65441e-06
1668.62	2.86812e-08
1677.3	1.76914e-06
1685.98	5.24254e-07
1694.65	3.30107e-07
1703.33	2.29465e-06
1712.01	5.23132e-06
1720.69	7.14726e-06
1729.37	4.64439e-06
1738.05	2.22829e-06
1746.72	6.61185e-07
1755.4	8.68832e-07
1764.08	1.38164e-06
1772.76	-2.38754e-06
1781.44	2.11121e-06
1790.11	2.61667e-06
1798.79	2.78027e-06
1807.47	2.21277e-06
1816.15	1.35052e-06
1824.83	-3.38729e-07
1833.51	8.85196e-07
1842.18	5.03263e-07
1850.86	5.42567e-07
1859.54	1.30526e-06
1868.22	1.17768e-06
1876.9	1.12066e-06
1885.57	4.08023e-07
1894.25	1.92263e-07
1902.93	3.21798e-07
1911.61	1.10875e-06
1920.29	2.64514e-06
1928.96	5.60361e-06
1937.64	6.21344e-06
1946.32	3.96588e-06
1955	1.7635e-06
1963.68	3.06682e-07
1972.36	2.71078e-07
1981.03	1.76333e-07
1989.71	4.16067e-08
1998.39	3.5718e-07
2007.07	4.79552e-07
2015.75	3.49006e-07
2024.42	3.13958e-07
2033.1	5.27226e-07
2041.78	8.20965e-07
2050.46	1.91795e-06
2059.14	3.71697e-06
2067.82	3.20048e-06
2076.49	2.64834e-06
2085.17	1.41352e-06
2093.85	7.06316e-07
2102.53	3.7912e-07
2111.21	6.46579e-07
2119.88	6.05619e-07
2128.56	2.19518e-07
2137.24	3.7725e-07
2145.92	1.23531e-06
2154.6	3.29897e-06
2163.28	4.21268e-06
2171.95	3.5087e-06
2180.63	1.96739e-06
2189.31	4.05342e-07
2197.99	-4.97374e-08
2206.67	2.23978e-07
2215.34	3.79237e-07
2224.02	3.24995e-07
2232.7	7.40829e-07
2241.38	1.96642e-06
2250.06	4.05743e-06
2258.74	5.90097e-06
2267.41	7.12033e-06
2276.09	1.28734e-05
2284.77	1.21704e-05
2293.45	3.80714e-06
2302.13	2.12986e-06
2310.8	5.74395e-07
2319.48	-3.35713e-07
2328.16	-1.5673e-06
2336.84	-7.6361e-07
2345.52	-7.47698e-07
2354.2	-2.17929e-06
2362.87	-3.87112e-06
2371.55	-1.63487e-06
2380.23	2.00976e-07
2388.91	2.16332e-06
2397.59	4.67421e-06
2406.26	6.477e-06
2414.94	6.25546e-06
2423.62	2.48886e-06
2432.3	1.08504e-06
2440.98	1.24433e-06
2449.66	9.23714e-07
2458.33	-1.8275e-07
2467.01	-7.07703e-07
2475.69	-5.30606e-07
2484.37	1.07607e-06
2493.05	3.47374e-06
2501.72	5.8712e-06
2510.4	4.20685e-06
2519.08	1.25122e-06
2527.76	1.79443e-07
2536.44	-1.15212e-08
2545.12	3.87691e-08
2553.79	5.06432e-08
2562.47	1.18348e-06
2571.15	1.19761e-06
2579.83	7.12483e-07
2588.51	6.10607e-07
2597.18	2.00174e-06
2605.86	2.28725e-06
2614.54	-5.34575e-07
2623.22	-4.94362e-07
2631.9	-6.62738e-07
2640.58	-5.14072e-08
2649.25	7.28773e-07
2657.93	1.25329e-06
2666.61	1.21548e-06
2675.29	1.16469e-06
2683.97	6.84664e-07
2692.64	2.19784e-07
2701.32	-1.55848e-07
2710	-3.05827e-07
2718.68	-4.09435e-07
2727.36	-2.36514e-07
2736.03	2.56563e-07
2744.71	2.30974e-07
2753.39	-5.27903e-07
2762.07	-4.5652e-07
2770.75	2.61481e-07
2779.43	4.7229e-07
2788.1	7.47854e-07
2796.78	6.99881e-07
2805.46	-1.3183e-07
2814.14	5.10252e-07
2822.82	1.7957e-07
2831.49	1.09877e-06
2840.17	2.32317e-06
2848.85	2.70253e-06
2857.53	1.45093e-06
2866.21	8.63594e-07
2874.89	4.62457e-07
2883.56	2.65607e-07
2892.24	-3.1959e-07
2900.92	-5.46602e-07
2909.6	-3.18611e-07
2918.28	-5.50301e-07
2926.95	-6.06907e-07
2935.63	-2.86059e-07
2944.31	-2.02631e-08
2952.99	1.04386e-07
2961.67	-5.29453e-07
2970.35	1.72312e-06
2979.02	9.99577e-06
2987.7	4.40564e-05
2996.38	6.89611e-05
3005.06	6.41546e-05
3013.74	4.4065e-05
3022.41	7.03267e-06
3031.09	1.35497e-07
3039.77	2.51161e-08
3048.45	-4.09147e-07
3057.13	-1.45832e-07
3065.81	3.76555e-07
3074.48	3.59712e-07
3083.16	-2.42015e-07
3091.84	-5.53252e-07
3100.52	-4.17966e-07
3109.2	-6.04586e-07
3117.87	-5.53052e-07
3126.55	-5.30551e-07
3135.23	1.17137e-07
3143.91	-3.60178e-07
3152.59	-2.78554e-07
3161.27	-6.49838e-07
3169.94	-4.30276e-07
3178.62	-6.39852e-07
3187.3	-1.52635e-07
3195.98	-2.58054e-07
3204.66	-7.67888e-08
3213.33	-1.78024e-07
3222.01	-5.94869e-08
3230.69	-6.98295e-08
3239.37	4.27235e-08
3248.05	2.25412e-07
3256.73	-3.86571e-07
3265.4	5.02794e-08
3274.08	3.57133e-08
3282.76	-9.73295e-07
3291.44	-5.52823e-07
3300.12	-1.06148e-06
3308.79	-7.62624e-07
3317.47	-3.46492e-07
3326.15	-9.47473e-07
3334.83	-4.54567e-07
3343.51	-1.0435e-06
3352.19	-7.76353e-07
3360.86	-9.20254e-07
3369.54	-1.55477e-07
3378.22	-3.8704e-07
3386.9	-8.8987e-07
3395.58	-1.10467e-06
3404.25	-8.73598e-07
3412.93	-9.22502e-07
3421.61	-1.2385e-06
3430.29	-1.00375e-06
3438.97	-1.02078e-06
3447.65	-1.17061e-06
3456.32	-7.50371e-07
3465	-1.00251e-06
3473.68	-9.38156e-07
3482.36	-1.56731e-06
3491.04	-1.6057e-06
3499.71	-1.0828e-06
3508.39	-8.58337e-07
3517.07	-1.38265e-06
3525.75	-1.4692e-06
3534.43	-1.174e-06
3543.1	-1.37699e-06
3551.78	-1.7509e-06
3560.46	-1.40098e-06
3569.14	-1.39138e-06
3577.82	-1.20371e-06
3586.5	-2.83687e-06
3595.17	-1.86983e-06
3603.85	-1.43093e-06
3612.53	-3.09662e-06
3621.21	-1.91036e-06
3629.89	-4.93073e-06
3638.56	-2.13002e-06
3647.24	-3.84549e-06
3655.92	-4.23903e-06
3664.6	-1.52735e-06
3673.28	-1.67693e-06
3681.96	-1.79533e-06
3690.63	-2.97972e-06
3699.31	-2.04864e-06
3707.99	-1.79601e-06
3716.67	-1.29613e-06
3725.35	-2.15831e-06
3734.02	-2.6432e-06
3742.7	-1.90752e-06
3751.38	-4.32381e-06
3760.06	-2.93064e-06
3768.74	-1.88659e-06
3777.42	-1.72708e-06
3786.09	-1.99011e-06
3794.77	-1.88667e-06
3803.45	-2.3053e-06
3812.13	-1.7452e-06
3820.81	-4.06755e-06
3829.48	-1.92255e-06
3838.16	-7.36066e-06
3846.84	-1.56459e-06
3855.52	-1.74695e-06
3864.2	-1.7335e-06
3872.88	-2.06556e-06
3881.55	-2.39699e-06
3890.23	-2.30761e-06
3898.91	-3.52328e-06
3907.59	-2.13538e-06
3916.27	-2.47378e-06
3924.94	-2.40898e-06
3933.62	-2.62307e-06
3942.3	-2.09447e-06
3950.98	-1.70541e-06
3959.66	-2.18176e-06
3968.34	-1.66735e-06
