Infrared Spectrum: Pentafluoroethane
Formula: C2 H F5
CAS: 354-33-6
State: gas
Melting point: -102.78 C
Boiling point: -48.55 C
Class: IUPAC A
Instrument: IFS66V (Bruker)
Instrument parameters: KBr Beam Splitter; MCT Detector; Multipass cell
Sampling: 1 L/min Flow
Resolution: 0.4820
Temperature: 23 C
Pressure: 101.3 Pa
Origin: NIST, Analytical Chemistry Division, 301-975-3108
cm-1	(micromol/mol)-1m-1 (base 10)
575.17	7.93614e-05
583.848	0.000109166
592.526	3.80114e-05
601.205	4.36491e-06
609.883	1.69667e-06
618.561	2.15117e-06
627.239	1.72569e-06
635.917	8.84745e-07
644.595	1.12481e-06
653.274	2.8659e-06
661.952	1.27371e-06
670.63	2.59788e-06
679.308	-1.32896e-06
687.986	6.50849e-07
696.664	3.4953e-06
705.343	3.11449e-05
714.021	0.00014057
722.699	0.000235819
731.377	0.000180659
740.055	7.88083e-05
748.733	7.31987e-06
757.412	2.22059e-06
766.09	2.52359e-06
774.768	3.33491e-06
783.446	4.37527e-06
792.124	4.64471e-06
800.802	2.91032e-06
809.481	3.02358e-06
818.159	2.86641e-06
826.837	2.83137e-06
835.515	5.55019e-06
844.193	2.56694e-05
852.872	0.00012732
861.55	0.000245498
870.228	0.000208838
878.906	0.000157143
887.584	2.69706e-05
896.262	1.50892e-05
904.941	1.12033e-05
913.619	4.20908e-06
922.297	5.49812e-06
930.975	7.04312e-06
939.653	8.5207e-06
948.331	4.69861e-06
957.01	1.99124e-06
965.688	1.84395e-06
974.366	2.14687e-06
983.044	2.61837e-06
991.722	1.83293e-06
1000.4	1.96293e-06
1009.08	1.40985e-06
1017.76	7.50037e-07
1026.43	9.32292e-07
1035.11	5.1907e-07
1043.79	1.64356e-06
1052.47	2.22585e-06
1061.15	7.90432e-06
1069.83	1.85542e-05
1078.5	2.45722e-05
1087.18	2.92024e-05
1095.86	5.52465e-05
1104.54	0.000114378
1113.22	0.00016313
1121.89	0.000183963
1130.57	0.000492616
1139.25	0.00168677
1147.93	0.0019365
1156.61	0.000467983
1165.29	9.05889e-05
1173.96	7.20142e-05
1182.64	0.000210117
1191.32	0.000628519
1200	0.00198763
1208.68	0.00293263
1217.35	0.0025141
1226.03	0.00185768
1234.71	0.000760753
1243.39	0.000130376
1252.07	6.00344e-05
1260.75	6.0136e-05
1269.42	6.96974e-05
1278.1	8.52973e-05
1286.78	0.00018216
1295.46	0.000679474
1304.14	0.000834546
1312.81	0.000538142
1321.49	0.000354878
1330.17	4.19862e-05
1338.85	1.42345e-05
1347.53	3.1536e-05
1356.21	4.91962e-05
1364.88	3.06155e-05
1373.56	1.70863e-05
1382.24	1.74381e-05
1390.92	2.53717e-05
1399.6	1.45723e-05
1408.27	8.2101e-06
1416.95	6.65186e-06
1425.63	1.23798e-05
1434.31	1.78931e-05
1442.99	2.6488e-05
1451.67	2.16343e-05
1460.34	1.16665e-05
1469.02	3.3191e-06
1477.7	1.67283e-06
1486.38	2.9813e-07
1495.06	1.37374e-06
1503.73	1.97344e-06
1512.41	-7.03639e-07
1521.09	-6.70197e-06
1529.77	1.77653e-06
1538.45	-2.94452e-08
1547.13	2.74174e-06
1555.8	3.92427e-06
1564.48	3.44115e-06
1573.16	3.62815e-06
1581.84	4.04111e-06
1590.52	2.66349e-06
1599.19	1.32381e-06
1607.87	8.73351e-07
1616.55	-9.94156e-06
1625.23	1.20661e-06
1633.91	2.14212e-06
1642.59	2.51718e-06
1651.26	1.24269e-06
1659.94	1.37278e-06
1668.62	9.18915e-07
1677.3	1.80257e-06
1685.98	9.64884e-07
1694.65	8.07199e-07
1703.33	2.42597e-06
1712.01	5.25549e-06
1720.69	7.18724e-06
1729.37	4.73539e-06
1738.05	2.30399e-06
1746.72	8.03267e-07
1755.4	1.05788e-06
1764.08	1.67672e-06
1772.76	-6.60344e-06
1781.44	2.32511e-06
1790.11	2.893e-06
1798.79	2.9714e-06
1807.47	2.15415e-06
1816.15	1.45338e-06
1824.83	9.9824e-09
1833.5	9.90273e-07
1842.18	4.34656e-07
1850.86	6.09483e-07
1859.54	1.24704e-06
1868.22	1.32759e-06
1876.9	1.32971e-06
1885.57	3.73772e-07
1894.25	2.84273e-07
1902.93	2.8663e-07
1911.61	1.24821e-06
1920.29	2.6294e-06
1928.96	5.62704e-06
1937.64	6.33612e-06
1946.32	4.03322e-06
1955	1.79622e-06
1963.68	2.46337e-07
1972.36	3.40613e-07
1981.03	1.1423e-08
1989.71	-1.31779e-07
1998.39	2.56457e-07
2007.07	5.18052e-07
2015.75	2.45871e-07
2024.42	2.68259e-07
2033.1	5.02965e-07
2041.78	7.06055e-07
2050.46	2.08285e-06
2059.14	3.85526e-06
2067.82	3.03838e-06
2076.49	2.55102e-06
2085.17	1.45175e-06
2093.85	7.77907e-07
2102.53	1.38273e-07
2111.21	6.11935e-07
2119.88	8.2114e-07
2128.56	7.67124e-08
2137.24	3.11815e-07
2145.92	1.25112e-06
2154.6	3.69336e-06
2163.28	4.2758e-06
2171.95	3.06871e-06
2180.63	1.88288e-06
2189.31	3.30398e-07
2197.99	-1.79487e-07
2206.67	2.93178e-07
2215.34	2.10336e-07
2224.02	3.58613e-07
2232.7	6.15354e-07
2241.38	1.95262e-06
2250.06	4.11569e-06
2258.74	5.77922e-06
2267.41	7.0246e-06
2276.09	1.29158e-05
2284.77	1.21661e-05
2293.45	3.83781e-06
2302.13	2.32694e-06
2310.8	6.85402e-07
2319.48	-9.9984e-08
2328.16	-1.69617e-07
2336.84	7.31025e-07
2345.52	-1.38036e-07
2354.2	-3.06082e-06
2362.87	-8.7322e-06
2371.55	-3.256e-06
2380.23	4.5318e-07
2388.91	2.45803e-06
2397.59	4.73473e-06
2406.26	6.35553e-06
2414.94	6.39874e-06
2423.62	2.63689e-06
2432.3	1.03707e-06
2440.98	1.19725e-06
2449.66	9.82044e-07
2458.33	-1.18559e-08
2467.01	-4.21469e-07
2475.69	-7.72181e-07
2484.37	1.29571e-06
2493.05	3.41788e-06
2501.72	6.10021e-06
2510.4	4.03322e-06
2519.08	1.33856e-06
2527.76	1.11429e-07
2536.44	2.86241e-07
2545.12	2.33302e-07
2553.79	-1.4473e-07
2562.47	1.25618e-06
2571.15	1.00971e-06
2579.83	5.60793e-07
2588.51	7.47421e-07
2597.18	2.1856e-06
2605.86	2.57399e-06
2614.54	-5.61051e-07
2623.22	-7.67433e-07
2631.9	-7.43925e-07
2640.58	-2.90825e-07
2649.25	7.42484e-07
2657.93	1.24668e-06
2666.61	1.13376e-06
2675.29	1.20901e-06
2683.97	6.96825e-07
2692.64	3.79215e-08
2701.32	-2.60641e-07
2710	-7.87605e-09
2718.68	-6.21626e-07
2727.36	-1.37345e-07
2736.03	1.57983e-07
2744.71	3.83853e-07
2753.39	-5.58418e-07
2762.07	-6.28756e-07
2770.75	1.28614e-07
2779.43	7.92e-07
2788.1	8.00127e-07
2796.78	1.04646e-06
2805.46	-4.01508e-07
2814.14	8.4898e-07
2822.82	2.18732e-07
2831.49	1.00612e-06
2840.17	2.04088e-06
2848.85	2.75551e-06
2857.53	1.34211e-06
2866.21	8.9747e-07
2874.89	3.86043e-07
2883.56	9.56906e-07
2892.24	-2.64559e-07
2900.92	-6.58642e-07
2909.6	-2.33881e-08
2918.28	-8.51982e-07
2926.95	-5.64271e-07
2935.63	-8.16392e-07
2944.31	2.50688e-07
2952.99	2.80704e-07
2961.67	-6.52665e-07
2970.35	1.84152e-06
2979.02	1.00696e-05
2987.7	4.42146e-05
2996.38	6.93299e-05
3005.06	6.4327e-05
3013.74	4.39135e-05
3022.41	7.18272e-06
3031.09	-6.44454e-08
3039.77	3.80113e-07
3048.45	-5.34622e-07
3057.13	-2.83392e-07
3065.81	5.69044e-07
3074.48	4.2777e-07
3083.16	-3.2178e-07
3091.84	-6.97505e-07
3100.52	-4.28134e-07
3109.2	-5.48985e-07
3117.87	-9.73422e-07
3126.55	-4.89174e-07
3135.23	-1.72589e-07
3143.91	-5.22883e-07
3152.59	-1.46978e-07
3161.27	-8.42909e-07
3169.94	-8.49806e-07
3178.62	-5.94611e-07
3187.3	-1.20524e-07
3195.98	-1.41001e-07
3204.66	-5.18146e-08
3213.33	-4.95798e-07
3222.01	2.8054e-07
3230.69	-4.11279e-07
3239.37	-4.16318e-07
3248.05	1.60806e-07
3256.73	-9.2017e-08
3265.4	3.02502e-07
3274.08	-4.91371e-08
3282.76	-1.17712e-06
3291.44	-5.76182e-07
3300.12	-1.08764e-06
3308.79	-8.73405e-07
3317.47	-3.88062e-07
3326.15	-1.054e-06
3334.83	-2.95536e-07
3343.51	-9.54763e-07
3352.19	-7.87478e-07
3360.86	-9.03265e-07
3369.54	-1.2446e-07
3378.22	-1.81386e-07
3386.9	-1.06574e-06
3395.58	-1.18576e-06
3404.25	-1.38873e-06
3412.93	-7.07924e-07
3421.61	-1.65374e-06
3430.29	-1.1515e-06
3438.97	-1.17819e-06
3447.65	-1.7989e-06
3456.32	-6.72651e-07
3465	-9.43984e-07
3473.68	-8.81681e-07
3482.36	-1.7608e-06
3491.04	-1.84463e-06
3499.71	-6.759e-07
3508.39	-7.59634e-07
3517.07	-1.32596e-06
3525.75	-1.51742e-06
3534.43	-5.75603e-07
3543.1	-1.72372e-06
3551.78	-2.22722e-06
3560.46	-1.77332e-06
3569.14	-1.12943e-06
3577.82	-1.52447e-06
3586.5	-4.40852e-06
3595.17	-2.23641e-06
3603.85	-1.00671e-06
3612.53	-4.76194e-06
3621.21	-2.39259e-06
3629.89	-5.6023e-06
3638.56	-1.84376e-06
3647.24	-4.54077e-06
3655.92	-3.44129e-06
3664.6	-1.2487e-06
3673.28	-1.46065e-06
3681.96	-1.84183e-06
3690.63	-2.80425e-06
3699.31	-1.89859e-06
3707.99	-1.46335e-06
3716.67	-1.40375e-06
3725.35	-1.7178e-06
3734.02	-2.05055e-06
3742.7	-1.47288e-06
3751.38	-3.26423e-06
3760.06	-3.08028e-06
3768.74	-1.86775e-06
3777.42	-2.0901e-06
3786.09	-2.06948e-06
3794.77	-2.20495e-06
3803.45	-2.4973e-06
3812.13	-1.69513e-06
3820.81	-5.70972e-06
3829.48	-2.10392e-06
3838.16	-7.45146e-06
3846.84	-1.3277e-06
3855.52	-1.07496e-06
3864.2	-1.43143e-06
3872.88	-2.08856e-06
3881.55	-2.75701e-06
3890.23	-2.04302e-06
3898.91	-3.18297e-06
3907.59	-2.15431e-06
3916.27	-2.94358e-06
3924.94	-2.32965e-06
3933.62	-3.0585e-06
3942.3	-1.83749e-06
3950.98	-1.31423e-06
3959.66	-2.39129e-06
3968.34	-1.85947e-06
