Infrared Spectrum: Pentafluoroethane
Formula: C2 H F5
CAS: 354-33-6
State: gas
Melting point: -102.78 C
Boiling point: -48.55 C
Class: IUPAC A
Instrument: IFS66V (Bruker)
Instrument parameters: KBr Beam Splitter; MCT Detector; Multipass cell
Sampling: 1 L/min Flow
Resolution: 1.9290
Temperature: 23 C
Pressure: 101.3 Pa
Origin: NIST, Analytical Chemistry Division, 301-975-3108
cm-1	(micromol/mol)-1m-1 (base 10)
575.652	8.64036e-05
584.33	0.000115564
593.008	3.24349e-05
601.687	4.10753e-06
610.365	1.91527e-06
619.043	1.59245e-06
627.721	1.60272e-06
636.399	1.39435e-06
645.077	2.35272e-06
653.756	2.21248e-06
662.434	2.24351e-06
671.112	1.74307e-06
679.79	1.05581e-06
688.468	7.54082e-07
697.146	3.73335e-06
705.825	3.49035e-05
714.503	0.000143106
723.181	0.000211641
731.859	0.000178022
740.537	7.19664e-05
749.215	6.80268e-06
757.894	2.23083e-06
766.572	2.55465e-06
775.25	3.45609e-06
783.928	4.839e-06
792.606	4.60131e-06
801.284	3.48964e-06
809.963	3.05929e-06
818.641	2.66994e-06
827.319	4.0439e-06
835.997	6.29849e-06
844.675	2.89869e-05
853.354	0.000136451
862.032	0.000252764
870.71	0.000218888
879.388	0.00014469
888.066	2.57973e-05
896.744	1.48254e-05
905.423	1.11512e-05
914.101	4.51001e-06
922.779	5.87984e-06
931.457	7.57434e-06
940.135	8.11258e-06
948.813	4.35783e-06
957.492	1.75832e-06
966.17	1.4368e-06
974.848	1.97956e-06
983.526	2.32796e-06
992.204	1.81105e-06
1000.88	1.82162e-06
1009.56	1.60209e-06
1018.24	1.25251e-06
1026.92	9.39582e-07
1035.6	7.81305e-07
1044.27	1.58136e-06
1052.95	2.87043e-06
1061.63	8.67248e-06
1070.31	1.83391e-05
1078.99	2.52504e-05
1087.66	3.01736e-05
1096.34	5.80051e-05
1105.02	0.000117503
1113.7	0.000162718
1122.38	0.000187424
1131.06	0.000543104
1139.73	0.00173238
1148.41	0.00194199
1157.09	0.00041444
1165.77	8.62658e-05
1174.45	7.51376e-05
1183.12	0.000224898
1191.8	0.000656356
1200.48	0.00171662
1209.16	0.00289562
1217.84	0.00255111
1226.51	0.0017664
1235.19	0.000700682
1243.87	0.000119602
1252.55	5.75835e-05
1261.23	6.03871e-05
1269.91	6.94745e-05
1278.58	8.79244e-05
1287.26	0.000198987
1295.94	0.000704945
1304.62	0.000888253
1313.3	0.000538717
1321.97	0.000328969
1330.65	3.76532e-05
1339.33	1.51761e-05
1348.01	3.11751e-05
1356.69	5.05121e-05
1365.37	2.99663e-05
1374.04	1.70071e-05
1382.72	1.76883e-05
1391.4	2.65452e-05
1400.08	1.44497e-05
1408.76	8.09989e-06
1417.43	6.46371e-06
1426.11	1.24587e-05
1434.79	1.8418e-05
1443.47	2.66262e-05
1452.15	2.14936e-05
1460.83	1.07747e-05
1469.5	3.08129e-06
1478.18	1.55832e-06
1486.86	2.77415e-07
1495.54	-6.48008e-07
1504.22	7.77932e-07
1512.89	1.43465e-06
1521.57	-1.8021e-06
1530.25	1.60493e-06
1538.93	-3.37014e-06
1547.61	2.7124e-06
1556.29	2.98058e-06
1564.96	3.41787e-06
1573.64	3.75804e-06
1582.32	3.80541e-06
1591	2.38634e-06
1599.68	1.40035e-06
1608.35	8.64278e-07
1617.03	-2.56191e-06
1625.71	1.30568e-06
1634.39	3.57573e-07
1643.07	2.43227e-06
1651.75	-2.678e-06
1660.42	1.55253e-06
1669.1	-2.79176e-07
1677.78	1.69603e-06
1686.46	2.15436e-07
1695.14	-2.64484e-06
1703.81	1.67337e-06
1712.49	5.08443e-06
1721.17	6.94406e-06
1729.85	4.5163e-06
1738.53	1.6248e-06
1747.21	5.74366e-07
1755.88	2.73046e-07
1764.56	1.25024e-06
1773.24	-1.17028e-07
1781.92	2.19792e-06
1790.6	2.33323e-06
1799.27	2.59634e-06
1807.95	2.28848e-06
1816.63	1.20249e-06
1825.31	1.2769e-08
1833.99	7.48418e-07
1842.67	1.04222e-07
1851.34	5.6963e-07
1860.02	1.26125e-06
1868.7	7.44282e-07
1877.38	9.66859e-07
1886.06	2.88864e-07
1894.73	3.79069e-08
1903.41	2.91971e-07
1912.09	1.15229e-06
1920.77	2.99311e-06
1929.45	5.76134e-06
1938.13	6.04646e-06
1946.8	3.82722e-06
1955.48	1.63422e-06
1964.16	3.5726e-07
1972.84	1.60915e-07
1981.52	1.56321e-07
1990.19	1.05685e-07
1998.87	2.36194e-07
2007.55	4.3215e-07
2016.23	3.4603e-07
2024.91	3.95123e-07
2033.59	4.79315e-07
2042.26	9.09551e-07
2050.94	1.98602e-06
2059.62	3.88882e-06
2068.3	3.32169e-06
2076.98	2.63256e-06
2085.65	1.44528e-06
2094.33	7.49404e-07
2103.01	4.56527e-07
2111.69	4.2037e-07
2120.37	2.92687e-07
2129.04	2.11719e-07
2137.72	4.91404e-07
2146.4	1.40017e-06
2155.08	3.29501e-06
2163.76	4.33044e-06
2172.44	3.35182e-06
2181.11	1.75902e-06
2189.79	4.17474e-07
2198.47	2.89213e-08
2207.15	1.35508e-07
2215.83	3.58526e-07
2224.5	4.09726e-07
2233.18	7.96638e-07
2241.86	1.98902e-06
2250.54	4.19151e-06
2259.22	5.92189e-06
2267.9	7.42816e-06
2276.57	1.2776e-05
2285.25	1.15057e-05
2293.93	3.64677e-06
2302.61	1.94742e-06
2311.29	7.82574e-07
2319.96	-2.33051e-07
2328.64	-1.77402e-06
2337.32	-2.07054e-06
2346	-7.03919e-07
2354.68	-1.90239e-06
2363.36	-3.29325e-06
2372.03	-1.25699e-06
2380.71	2.83349e-07
2389.39	2.10601e-06
2398.07	5.20963e-06
2406.75	6.72775e-06
2415.42	6.14131e-06
2424.1	2.13558e-06
2432.78	1.18355e-06
2441.46	1.29237e-06
2450.14	8.86451e-07
2458.82	-2.32949e-07
2467.49	-6.90091e-07
2476.17	-4.42947e-07
2484.85	1.10274e-06
2493.53	3.65651e-06
2502.21	5.85342e-06
2510.88	4.0501e-06
2519.56	1.16439e-06
2528.24	1.47972e-07
2536.92	-4.49826e-08
2545.6	4.2578e-08
2554.28	2.9236e-07
2562.95	1.23769e-06
2571.63	1.22319e-06
2580.31	8.24297e-07
2588.99	6.10472e-07
2597.67	1.91567e-06
2606.34	2.18886e-06
2615.02	-6.73332e-07
2623.7	-4.95122e-07
2632.38	-6.90499e-07
2641.06	1.15016e-07
2649.74	7.72413e-07
2658.41	1.28141e-06
2667.09	1.20943e-06
2675.77	9.10246e-07
2684.45	5.62896e-07
2693.13	1.99706e-07
2701.8	-1.28862e-07
2710.48	-3.13845e-07
2719.16	-3.71324e-07
2727.84	-2.53329e-07
2736.52	1.00926e-07
2745.2	1.01024e-07
2753.87	-2.64184e-07
2762.55	-4.27391e-07
2771.23	3.25163e-07
2779.91	3.93246e-07
2788.59	5.55991e-07
2797.26	4.33016e-07
2805.94	-2.92633e-08
2814.62	7.73927e-08
2823.3	1.53672e-07
2831.98	1.41562e-06
2840.66	2.55457e-06
2849.33	2.68102e-06
2858.01	1.47941e-06
2866.69	8.45528e-07
2875.37	5.31541e-07
2884.05	-9.61752e-08
2892.72	-3.26745e-07
2901.4	-4.81924e-07
2910.08	-4.37618e-07
2918.76	-4.78497e-07
2927.44	-5.44172e-07
2936.11	-2.24568e-08
2944.79	-1.69923e-07
2953.47	-7.01751e-09
2962.15	-1.9501e-07
2970.83	1.83359e-06
2979.51	1.11591e-05
2988.18	4.67144e-05
2996.86	7.19071e-05
3005.54	6.31604e-05
3014.22	4.14455e-05
3022.9	6.17556e-06
3031.57	1.57976e-07
3040.25	-2.26041e-07
3048.93	-3.1036e-07
3057.61	3.91438e-09
3066.29	2.30094e-07
3074.97	2.83425e-07
3083.64	-2.5657e-07
3092.32	-3.39223e-07
3101	-4.21574e-07
3109.68	-5.53321e-07
3118.36	-2.98304e-07
3127.03	-4.65433e-07
3135.71	6.93493e-08
3144.39	-1.12426e-07
3153.07	-3.41206e-07
3161.75	-6.12291e-07
3170.43	-4.11079e-07
3179.1	-4.71726e-07
3187.78	-1.8836e-07
3196.46	-2.6768e-07
3205.14	-5.375e-08
3213.82	-2.55119e-07
3222.49	-2.29973e-07
3231.17	-9.41925e-08
3239.85	1.16064e-07
3248.53	4.58666e-08
3257.21	-6.47641e-07
3265.89	-1.50213e-07
3274.56	1.48641e-07
3283.24	-8.81754e-07
3291.92	-5.74439e-07
3300.6	-8.52582e-07
3309.28	-6.32838e-07
3317.95	-5.47915e-07
3326.63	-7.65414e-07
3335.31	-4.61791e-07
3343.99	-8.33046e-07
3352.67	-8.11965e-07
3361.35	-6.69719e-07
3370.02	-3.96648e-07
3378.7	-5.21206e-07
3387.38	-5.57068e-07
3396.06	-9.49034e-07
3404.74	-5.64005e-07
3413.41	-9.74852e-07
3422.09	-9.93165e-07
3430.77	-1.13159e-06
3439.45	-1.10479e-06
3448.13	-8.73631e-07
3456.81	-9.52759e-07
3465.48	-1.26042e-06
3474.16	-1.18081e-06
3482.84	-1.43639e-06
3491.52	-1.18294e-06
3500.2	-1.19889e-06
3508.87	-1.05621e-06
3517.55	-1.39184e-06
3526.23	-1.38426e-06
3534.91	-1.33795e-06
3543.59	-1.36079e-06
3552.27	-1.53287e-06
3560.94	-1.18906e-06
3569.62	-1.33261e-06
3578.3	-1.10339e-06
3586.98	-2.39545e-06
3595.66	-1.60897e-06
3604.33	-1.3975e-06
3613.01	-2.342e-06
3621.69	-2.02873e-06
3630.37	-3.35977e-06
3639.05	-1.8467e-06
3647.73	-3.5578e-06
3656.4	-3.47481e-06
3665.08	-1.6785e-06
3673.76	-2.67645e-06
3682.44	-1.82397e-06
3691.12	-2.97358e-06
3699.79	-2.09054e-06
3708.47	-2.4084e-06
3717.15	-1.40883e-06
3725.83	-2.41437e-06
3734.51	-3.33565e-06
3743.19	-4.21247e-06
3751.86	-5.78482e-06
3760.54	-2.42084e-06
3769.22	-2.69755e-06
3777.9	-1.65699e-06
3786.58	-1.92686e-06
3795.25	-2.11649e-06
3803.93	-2.19075e-06
3812.61	-1.89063e-06
3821.29	-3.98978e-06
3829.97	-2.24281e-06
3838.64	-4.56698e-06
3847.32	-1.52293e-06
3856	-2.4632e-06
3864.68	-2.36881e-06
3873.36	-2.43716e-06
3882.04	-2.27514e-06
3890.71	-2.88699e-06
3899.39	-3.26824e-06
3908.07	-2.09579e-06
3916.75	-2.61722e-06
3925.43	-2.26937e-06
3934.1	-2.23367e-06
3942.78	-2.15707e-06
3951.46	-1.92038e-06
3960.14	-2.11375e-06
3968.82	-1.57891e-06
