Infrared Spectrum: Pentafluoroethane
Formula: C2 H F5
CAS: 354-33-6
State: gas
Melting point: -102.78 C
Boiling point: -48.55 C
Class: IUPAC A
Instrument: IFS66V (Bruker)
Instrument parameters: KBr Beam Splitter; MCT Detector; Multipass cell
Sampling: 1 L/min Flow
Resolution: 1.9290
Temperature: 23 C
Pressure: 101.3 Pa
Origin: NIST, Analytical Chemistry Division, 301-975-3108
cm-1	(micromol/mol)-1m-1 (base 10)
575.652	8.10327e-05
584.33	0.000116667
593.008	3.19751e-05
601.687	4.49075e-06
610.365	1.95036e-06
619.043	1.55843e-06
627.721	1.6166e-06
636.399	1.25877e-06
645.077	2.25532e-06
653.756	2.30097e-06
662.434	2.18303e-06
671.112	1.73141e-06
679.79	9.37068e-07
688.468	6.1514e-07
697.146	3.80015e-06
705.825	3.46561e-05
714.503	0.000143531
723.181	0.000210274
731.859	0.000176867
740.537	7.16455e-05
749.215	6.69431e-06
757.894	2.21404e-06
766.572	2.54742e-06
775.25	3.50726e-06
783.928	4.85382e-06
792.606	4.57956e-06
801.284	3.35656e-06
809.963	3.03989e-06
818.641	2.64451e-06
827.319	4.02933e-06
835.997	6.20315e-06
844.675	2.88253e-05
853.354	0.000136315
862.032	0.000252384
870.71	0.000213153
879.388	0.000144479
888.066	2.56922e-05
896.744	1.48176e-05
905.423	1.11826e-05
914.101	4.41808e-06
922.779	5.83669e-06
931.457	7.55963e-06
940.135	8.15079e-06
948.813	4.32673e-06
957.492	1.68852e-06
966.17	1.43675e-06
974.848	1.97986e-06
983.526	2.32766e-06
992.204	1.78156e-06
1000.88	1.83805e-06
1009.56	1.55899e-06
1018.24	1.19982e-06
1026.92	9.24674e-07
1035.6	8.61877e-07
1044.27	1.58623e-06
1052.95	2.80186e-06
1061.63	8.63425e-06
1070.31	1.83185e-05
1078.99	2.49966e-05
1087.66	3.02193e-05
1096.34	5.78705e-05
1105.02	0.000117884
1113.7	0.000162371
1122.38	0.000186385
1131.06	0.000540369
1139.73	0.00173546
1148.41	0.00194728
1157.09	0.000412583
1165.77	8.60787e-05
1174.45	7.47331e-05
1183.12	0.00022391
1191.8	0.000655288
1200.48	0.0016888
1209.16	0.00290568
1217.84	0.00254826
1226.51	0.0017511
1235.19	0.000699031
1243.87	0.000118674
1252.55	5.7674e-05
1261.23	6.02892e-05
1269.91	6.96097e-05
1278.58	8.83012e-05
1287.26	0.000198016
1295.94	0.000706165
1304.62	0.000878805
1313.3	0.000537739
1321.97	0.000328807
1330.65	3.70386e-05
1339.33	1.50821e-05
1348.01	3.12106e-05
1356.69	5.19451e-05
1365.37	3.0002e-05
1374.04	1.69464e-05
1382.72	1.76608e-05
1391.4	2.69911e-05
1400.08	1.4436e-05
1408.76	8.07733e-06
1417.43	6.5789e-06
1426.11	1.25039e-05
1434.79	1.86249e-05
1443.47	2.67639e-05
1452.15	2.18212e-05
1460.83	1.08483e-05
1469.5	3.0288e-06
1478.18	1.64923e-06
1486.86	1.16999e-07
1495.54	-8.43353e-07
1504.22	1.1097e-06
1512.89	1.35705e-06
1521.57	-2.25e-06
1530.25	1.74665e-06
1538.93	-4.04787e-06
1547.61	2.81476e-06
1556.29	3.47987e-06
1564.96	3.28264e-06
1573.64	3.82567e-06
1582.32	3.78572e-06
1591	2.36217e-06
1599.68	1.43816e-06
1608.35	8.77905e-07
1617.03	-3.2942e-06
1625.71	1.43215e-06
1634.39	5.1895e-07
1643.07	2.47459e-06
1651.75	-2.47838e-06
1660.42	1.61777e-06
1669.1	-7.04628e-07
1677.78	1.74234e-06
1686.46	8.65384e-07
1695.14	-3.00933e-06
1703.81	1.64853e-06
1712.49	5.14504e-06
1721.17	7.01242e-06
1729.85	4.35412e-06
1738.53	1.82902e-06
1747.21	5.75439e-07
1755.88	2.6632e-07
1764.56	1.25822e-06
1773.24	-3.20695e-07
1781.92	2.22072e-06
1790.6	2.40567e-06
1799.27	2.51463e-06
1807.95	2.25301e-06
1816.63	1.19084e-06
1825.31	-1.63633e-07
1833.99	7.29439e-07
1842.67	3.27065e-07
1851.34	5.39166e-07
1860.02	1.26747e-06
1868.7	6.73896e-07
1877.38	9.90495e-07
1886.06	2.75309e-07
1894.73	3.05365e-08
1903.41	2.96325e-07
1912.09	1.19051e-06
1920.77	2.9658e-06
1929.45	5.76116e-06
1938.13	6.03452e-06
1946.8	3.82246e-06
1955.48	1.6187e-06
1964.16	3.80757e-07
1972.84	1.5169e-07
1981.52	2.13836e-07
1990.19	9.44071e-08
1998.87	2.24142e-07
2007.55	3.97019e-07
2016.23	3.66849e-07
2024.91	3.84442e-07
2033.59	4.71948e-07
2042.26	9.00962e-07
2050.94	1.97622e-06
2059.62	3.85796e-06
2068.3	3.31505e-06
2076.98	2.5801e-06
2085.65	1.43397e-06
2094.33	7.37606e-07
2103.01	5.41156e-07
2111.69	5.05086e-07
2120.37	3.17712e-07
2129.04	1.45298e-07
2137.72	4.79683e-07
2146.4	1.40268e-06
2155.08	3.37825e-06
2163.76	4.24572e-06
2172.44	3.2724e-06
2181.11	1.67179e-06
2189.79	4.71814e-07
2198.47	-2.88631e-08
2207.15	1.50376e-07
2215.83	3.48031e-07
2224.5	3.83449e-07
2233.18	7.8774e-07
2241.86	1.99609e-06
2250.54	4.19566e-06
2259.22	5.9819e-06
2267.9	7.42812e-06
2276.57	1.28425e-05
2285.25	1.14615e-05
2293.93	3.65028e-06
2302.61	1.93822e-06
2311.29	7.7679e-07
2319.96	-1.60773e-07
2328.64	-1.83313e-06
2337.32	-2.06763e-06
2346	-6.75616e-07
2354.68	-1.9007e-06
2363.36	-3.32571e-06
2372.03	-1.27402e-06
2380.71	2.68539e-07
2389.39	2.12506e-06
2398.07	5.22115e-06
2406.75	6.67552e-06
2415.42	6.11701e-06
2424.1	2.12205e-06
2432.78	1.2138e-06
2441.46	1.29051e-06
2450.14	8.97321e-07
2458.82	-2.54118e-07
2467.49	-6.7439e-07
2476.17	-4.82844e-07
2484.85	1.14079e-06
2493.53	3.64793e-06
2502.21	5.89746e-06
2510.88	4.05558e-06
2519.56	1.14324e-06
2528.24	1.46749e-07
2536.92	-4.53755e-08
2545.6	6.31358e-08
2554.28	3.00545e-07
2562.95	1.22338e-06
2571.63	1.20843e-06
2580.31	8.26618e-07
2588.99	6.15682e-07
2597.67	1.92466e-06
2606.34	2.1723e-06
2615.02	-7.92593e-07
2623.7	-5.12951e-07
2632.38	-6.72288e-07
2641.06	1.3027e-07
2649.74	6.94191e-07
2658.41	1.26985e-06
2667.09	1.16433e-06
2675.77	9.54512e-07
2684.45	5.39071e-07
2693.13	2.14105e-07
2701.8	-1.46869e-07
2710.48	-3.0168e-07
2719.16	-3.95767e-07
2727.84	-2.54096e-07
2736.52	9.16787e-08
2745.2	1.06827e-07
2753.87	-3.12539e-07
2762.55	-4.48495e-07
2771.23	3.11437e-07
2779.91	4.30043e-07
2788.59	5.50254e-07
2797.26	4.85925e-07
2805.94	-3.8067e-08
2814.62	1.54713e-07
2823.3	1.19665e-07
2831.98	1.42392e-06
2840.66	2.4948e-06
2849.33	2.56662e-06
2858.01	1.40928e-06
2866.69	8.08276e-07
2875.37	4.7117e-07
2884.05	-3.68337e-08
2892.72	-3.71757e-07
2901.4	-5.32989e-07
2910.08	-4.00496e-07
2918.76	-5.09266e-07
2927.44	-6.59941e-07
2936.11	8.74915e-09
2944.79	-1.53934e-07
2953.47	2.91614e-08
2962.15	-2.22981e-07
2970.83	1.86391e-06
2979.51	1.11227e-05
2988.18	4.68763e-05
2996.86	7.12564e-05
3005.54	6.25657e-05
3014.22	4.15235e-05
3022.9	6.03712e-06
3031.57	1.5691e-07
3040.25	-2.01314e-07
3048.93	-2.57127e-07
3057.61	7.37075e-08
3066.29	2.98584e-07
3074.97	3.57646e-07
3083.64	-2.65167e-07
3092.32	-3.36739e-07
3101	-3.62218e-07
3109.68	-5.28136e-07
3118.36	-3.15511e-07
3127.03	-4.75645e-07
3135.71	3.89255e-08
3144.39	-9.03836e-08
3153.07	-3.94523e-07
3161.75	-5.65413e-07
3170.43	-4.00162e-07
3179.1	-4.93867e-07
3187.78	-1.85478e-07
3196.46	-2.74978e-07
3205.14	-8.31806e-08
3213.82	-3.27946e-07
3222.49	-2.89646e-07
3231.17	-1.16958e-07
3239.85	1.07202e-07
3248.53	6.1255e-08
3257.21	-6.6539e-07
3265.89	-5.21457e-08
3274.56	2.55286e-07
3283.24	-8.60793e-07
3291.92	-5.1684e-07
3300.6	-8.50465e-07
3309.28	-6.91037e-07
3317.95	-5.05828e-07
3326.63	-8.49744e-07
3335.31	-3.54382e-07
3343.99	-8.85847e-07
3352.67	-8.47332e-07
3361.35	-7.05556e-07
3370.02	-3.55201e-07
3378.7	-5.40872e-07
3387.38	-4.9749e-07
3396.06	-9.13702e-07
3404.74	-5.61226e-07
3413.41	-1.03001e-06
3422.09	-1.03387e-06
3430.77	-1.18548e-06
3439.45	-1.06644e-06
3448.13	-8.35316e-07
3456.81	-1.01321e-06
3465.48	-1.29586e-06
3474.16	-1.16048e-06
3482.84	-1.49582e-06
3491.52	-1.20008e-06
3500.2	-1.27412e-06
3508.87	-9.3131e-07
3517.55	-1.45337e-06
3526.23	-1.33605e-06
3534.91	-1.34948e-06
3543.59	-1.30949e-06
3552.27	-1.58893e-06
3560.94	-1.13005e-06
3569.62	-1.21654e-06
3578.3	-1.06372e-06
3586.98	-2.46428e-06
3595.66	-1.72498e-06
3604.33	-1.35233e-06
3613.01	-2.37187e-06
3621.69	-2.03389e-06
3630.37	-3.25707e-06
3639.05	-1.96325e-06
3647.73	-3.44253e-06
3656.4	-3.85876e-06
3665.08	-1.64839e-06
3673.76	-2.43946e-06
3682.44	-1.86134e-06
3691.12	-3.22076e-06
3699.79	-2.04813e-06
3708.47	-2.44211e-06
3717.15	-1.33471e-06
3725.83	-2.41769e-06
3734.51	-3.42823e-06
3743.19	-3.57733e-06
3751.86	-6.39185e-06
3760.54	-2.50414e-06
3769.22	-2.7738e-06
3777.9	-1.49072e-06
3786.58	-1.85596e-06
3795.25	-2.09895e-06
3803.93	-2.09835e-06
3812.61	-1.77054e-06
3821.29	-4.28225e-06
3829.97	-2.163e-06
3838.64	-4.62765e-06
3847.32	-1.55203e-06
3856	-1.8297e-06
3864.68	-2.65678e-06
3873.36	-2.46199e-06
3882.04	-2.17903e-06
3890.71	-2.99983e-06
3899.39	-3.58399e-06
3908.07	-2.08684e-06
3916.75	-2.7033e-06
3925.43	-2.23481e-06
3934.1	-2.24174e-06
3942.78	-2.14148e-06
3951.46	-1.807e-06
3960.14	-2.07869e-06
3968.82	-1.5999e-06
