Infrared Spectrum: Pentafluoroethane
Formula: C2 H F5
CAS: 354-33-6
State: gas
Melting point: -102.78 C
Boiling point: -48.55 C
Class: IUPAC A
Instrument: IFS66V (Bruker)
Instrument parameters: KBr Beam Splitter; MCT Detector; Multipass cell
Sampling: 1 L/min Flow
Resolution: 0.9640
Temperature: 23 C
Pressure: 101.3 Pa
Origin: NIST, Analytical Chemistry Division, 301-975-3108
cm-1	(micromol/mol)-1m-1 (base 10)
575.17	8.08227e-05
583.848	0.000111039
592.526	3.71733e-05
601.205	4.72153e-06
609.883	1.77987e-06
618.561	1.91232e-06
627.239	1.20457e-06
635.917	2.66334e-07
644.595	1.93536e-06
653.274	2.93445e-06
661.952	1.76408e-06
670.63	2.62772e-06
679.308	-2.3821e-08
687.986	5.62285e-07
696.664	3.42196e-06
705.343	3.04453e-05
714.021	0.00013964
722.699	0.000230939
731.377	0.00018065
740.055	7.91242e-05
748.733	7.21943e-06
757.412	2.37151e-06
766.09	2.60947e-06
774.768	3.46517e-06
783.446	4.48914e-06
792.124	4.64931e-06
800.802	2.82378e-06
809.481	3.00184e-06
818.159	2.95316e-06
826.837	3.18179e-06
835.515	5.81153e-06
844.193	2.56787e-05
852.872	0.000127372
861.55	0.000244433
870.228	0.00020848
878.906	0.000157228
887.584	2.69789e-05
896.262	1.49072e-05
904.941	1.14305e-05
913.619	4.2265e-06
922.297	5.7086e-06
930.975	7.18239e-06
939.653	8.42598e-06
948.331	4.53377e-06
957.01	1.74269e-06
965.688	1.66784e-06
974.366	2.06414e-06
983.044	2.47905e-06
991.722	1.98943e-06
1000.4	1.85396e-06
1009.08	1.6215e-06
1017.76	8.61524e-07
1026.43	7.4152e-07
1035.11	6.84736e-07
1043.79	1.64432e-06
1052.47	2.53245e-06
1061.15	7.79532e-06
1069.83	1.80457e-05
1078.5	2.47526e-05
1087.18	2.94784e-05
1095.86	5.51023e-05
1104.54	0.000114276
1113.22	0.00016336
1121.89	0.000185201
1130.57	0.00049304
1139.25	0.00168379
1147.93	0.00192983
1156.61	0.00046678
1165.29	9.04393e-05
1173.96	7.20024e-05
1182.64	0.000209744
1191.32	0.000629513
1200	0.00195314
1208.68	0.0029285
1217.35	0.00251765
1226.03	0.00186077
1234.71	0.000761232
1243.39	0.000129709
1252.07	5.95496e-05
1260.75	5.99633e-05
1269.42	6.9386e-05
1278.1	8.52124e-05
1286.78	0.000182664
1295.46	0.000678587
1304.14	0.000836599
1312.81	0.000539962
1321.49	0.000355213
1330.17	4.23592e-05
1338.85	1.43782e-05
1347.53	3.15937e-05
1356.21	4.90165e-05
1364.88	3.0782e-05
1373.56	1.72567e-05
1382.24	1.7517e-05
1390.92	2.54238e-05
1399.6	1.42495e-05
1408.27	8.33504e-06
1416.95	6.6602e-06
1425.63	1.22047e-05
1434.31	1.76896e-05
1442.99	2.64001e-05
1451.67	2.2175e-05
1460.34	1.17788e-05
1469.02	3.29994e-06
1477.7	1.7259e-06
1486.38	5.58843e-07
1495.06	1.18445e-06
1503.73	1.87775e-06
1512.41	2.74782e-07
1521.09	-4.47454e-06
1529.77	1.79619e-06
1538.45	-1.86228e-06
1547.13	2.77984e-06
1555.8	4.14285e-06
1564.48	3.11533e-06
1573.16	3.70285e-06
1581.84	3.88929e-06
1590.52	2.51875e-06
1599.19	1.48289e-06
1607.87	1.03598e-06
1616.55	-6.95222e-06
1625.23	1.3663e-06
1633.91	2.23664e-06
1642.59	2.47541e-06
1651.26	1.28721e-06
1659.94	1.67442e-06
1668.62	3.31071e-07
1677.3	1.78317e-06
1685.98	8.76352e-07
1694.65	6.17603e-07
1703.33	2.44274e-06
1712.01	5.34148e-06
1720.69	7.1735e-06
1729.37	4.68202e-06
1738.05	2.2533e-06
1746.72	6.62429e-07
1755.4	9.38073e-07
1764.08	1.46126e-06
1772.76	-3.29223e-06
1781.44	2.21544e-06
1790.11	2.78021e-06
1798.79	2.89837e-06
1807.47	2.16387e-06
1816.15	1.38083e-06
1824.83	-3.80688e-07
1833.51	9.44188e-07
1842.18	4.90189e-07
1850.86	5.81202e-07
1859.54	1.31682e-06
1868.22	1.2362e-06
1876.9	1.16173e-06
1885.57	4.50052e-07
1894.25	2.75502e-07
1902.93	3.32126e-07
1911.61	1.14911e-06
1920.29	2.63336e-06
1928.96	5.5968e-06
1937.64	6.24287e-06
1946.32	4.01455e-06
1955	1.77202e-06
1963.68	3.16748e-07
1972.36	3.08323e-07
1981.03	1.52926e-07
1989.71	2.62402e-08
1998.39	3.90925e-07
2007.07	4.76958e-07
2015.75	3.52884e-07
2024.42	3.04329e-07
2033.1	5.29776e-07
2041.78	7.93448e-07
2050.46	1.94862e-06
2059.14	3.75537e-06
2067.82	3.17481e-06
2076.49	2.62486e-06
2085.17	1.40285e-06
2093.85	7.20297e-07
2102.53	3.13529e-07
2111.21	7.18707e-07
2119.88	6.99434e-07
2128.56	1.82073e-07
2137.24	3.85468e-07
2145.92	1.24407e-06
2154.6	3.38883e-06
2163.28	4.24835e-06
2171.95	3.37899e-06
2180.63	1.90763e-06
2189.31	3.79295e-07
2197.99	-7.1874e-08
2206.67	2.99818e-07
2215.34	3.55758e-07
2224.02	3.08174e-07
2232.7	7.14123e-07
2241.38	1.98268e-06
2250.06	4.07043e-06
2258.74	5.89234e-06
2267.41	7.09409e-06
2276.09	1.2924e-05
2284.77	1.21765e-05
2293.45	3.81188e-06
2302.13	2.17003e-06
2310.8	5.18379e-07
2319.48	-4.57451e-07
2328.16	-1.42898e-06
2336.84	1.85966e-07
2345.52	-6.38248e-07
2354.2	-2.58189e-06
2362.87	-4.776e-06
2371.55	-1.95426e-06
2380.23	2.37449e-07
2388.91	2.21864e-06
2397.59	4.65503e-06
2406.26	6.4279e-06
2414.94	6.27262e-06
2423.62	2.51499e-06
2432.3	1.06531e-06
2440.98	1.23901e-06
2449.66	9.40183e-07
2458.33	-1.67973e-07
2467.01	-6.57776e-07
2475.69	-5.22748e-07
2484.37	1.15393e-06
2493.05	3.45033e-06
2501.72	5.92796e-06
2510.4	4.23027e-06
2519.08	1.23226e-06
2527.76	1.77606e-07
2536.44	4.37858e-08
2545.12	7.91352e-08
2553.79	-1.53556e-08
2562.47	1.19281e-06
2571.15	1.17514e-06
2579.83	6.72873e-07
2588.51	6.20327e-07
2597.18	2.02213e-06
2605.86	2.35429e-06
2614.54	-5.46336e-07
2623.22	-5.34353e-07
2631.9	-6.73677e-07
2640.58	-1.28512e-07
2649.25	7.32699e-07
2657.93	1.2647e-06
2666.61	1.1812e-06
2675.29	1.21022e-06
2683.97	7.0966e-07
2692.64	1.902e-07
2701.32	-1.49605e-07
2710	-2.7795e-07
2718.68	-4.51332e-07
2727.36	-2.10784e-07
2736.03	2.4888e-07
2744.71	2.72515e-07
2753.39	-5.45721e-07
2762.07	-4.8324e-07
2770.75	2.46781e-07
2779.43	5.76258e-07
2788.1	7.91796e-07
2796.78	7.44507e-07
2805.46	-2.00714e-07
2814.14	6.491e-07
2822.82	1.76445e-07
2831.49	1.05594e-06
2840.17	2.25739e-06
2848.85	2.63408e-06
2857.53	1.43837e-06
2866.21	8.50432e-07
2874.89	4.30415e-07
2883.56	4.1276e-07
2892.24	-3.02739e-07
2900.92	-5.74774e-07
2909.6	-2.52758e-07
2918.28	-6.22368e-07
2926.95	-6.04161e-07
2935.63	-3.76483e-07
2944.31	8.04922e-08
2952.99	1.26992e-07
2961.67	-6.20131e-07
2970.35	1.7463e-06
2979.02	9.94216e-06
2987.7	4.40737e-05
2996.38	6.89715e-05
3005.06	6.41035e-05
3013.74	4.40474e-05
3022.41	7.03915e-06
3031.09	1.06223e-07
3039.77	1.37833e-07
3048.45	-4.32721e-07
3057.13	-1.52453e-07
3065.81	4.79417e-07
3074.48	4.23077e-07
3083.16	-2.53169e-07
3091.84	-6.17341e-07
3100.52	-4.25882e-07
3109.2	-5.90242e-07
3117.87	-6.665e-07
3126.55	-5.22402e-07
3135.23	8.75206e-08
3143.91	-4.17351e-07
3152.59	-2.1667e-07
3161.27	-6.57954e-07
3169.94	-4.6946e-07
3178.62	-6.82408e-07
3187.3	-1.35355e-07
3195.98	-2.58611e-07
3204.66	-1.00573e-07
3213.33	-2.69157e-07
3222.01	4.19268e-08
3230.69	-1.24951e-07
3239.37	-7.71999e-08
3248.05	2.5645e-07
3256.73	-3.18655e-07
3265.4	6.91274e-08
3274.08	7.94517e-09
3282.76	-1.04301e-06
3291.44	-5.6597e-07
3300.12	-1.07331e-06
3308.79	-7.86558e-07
3317.47	-3.36229e-07
3326.15	-9.80167e-07
3334.83	-4.45475e-07
3343.51	-1.12317e-06
3352.19	-7.55865e-07
3360.86	-9.37523e-07
3369.54	-1.52224e-07
3378.22	-3.42155e-07
3386.9	-1.01315e-06
3395.58	-1.10365e-06
3404.25	-1.0187e-06
3412.93	-8.19295e-07
3421.61	-1.31039e-06
3430.29	-1.01396e-06
3438.97	-1.01446e-06
3447.65	-1.29668e-06
3456.32	-7.36424e-07
3465	-9.88392e-07
3473.68	-9.06798e-07
3482.36	-1.5938e-06
3491.04	-1.67698e-06
3499.71	-1.02815e-06
3508.39	-7.92993e-07
3517.07	-1.40394e-06
3525.75	-1.45187e-06
3534.43	-1.02244e-06
3543.1	-1.43062e-06
3551.78	-1.88272e-06
3560.46	-1.48068e-06
3569.14	-1.25624e-06
3577.82	-1.27141e-06
3586.5	-3.21629e-06
3595.17	-1.99869e-06
3603.85	-1.37237e-06
3612.53	-3.4444e-06
3621.21	-1.97156e-06
3629.89	-5.31108e-06
3638.56	-2.14988e-06
3647.24	-4.14245e-06
3655.92	-4.39518e-06
3664.6	-1.44424e-06
3673.28	-1.49266e-06
3681.96	-1.81782e-06
3690.63	-2.94526e-06
3699.31	-2.04369e-06
3707.99	-1.74737e-06
3716.67	-1.28831e-06
3725.35	-2.11236e-06
3734.02	-2.46499e-06
3742.7	-1.75279e-06
3751.38	-3.7056e-06
3760.06	-3.05554e-06
3768.74	-1.79344e-06
3777.42	-1.8278e-06
3786.09	-1.99319e-06
3794.77	-1.98969e-06
3803.45	-2.34543e-06
3812.13	-1.69482e-06
3820.81	-4.19253e-06
3829.48	-1.91249e-06
3838.16	-7.999e-06
3846.84	-1.56534e-06
3855.52	-1.35045e-06
3864.2	-1.4994e-06
3872.88	-2.07736e-06
3881.55	-2.43721e-06
3890.23	-2.18577e-06
3898.91	-3.56093e-06
3907.59	-2.13216e-06
3916.27	-2.49686e-06
3924.94	-2.4411e-06
3933.62	-2.76363e-06
3942.3	-2.05143e-06
3950.98	-1.53561e-06
3959.66	-2.24479e-06
3968.34	-1.68261e-06
