Infrared Spectrum: Pentafluoroethane
Formula: C2 H F5
CAS: 354-33-6
State: gas
Melting point: -102.78 C
Boiling point: -48.55 C
Class: IUPAC A
Instrument: IFS66V (Bruker)
Instrument parameters: KBr Beam Splitter; MCT Detector; Multipass cell
Sampling: 1 L/min Flow
Resolution: 0.2410
Temperature: 23 C
Pressure: 101.3 Pa
Origin: NIST, Analytical Chemistry Division, 301-975-3108
cm-1	(micromol/mol)-1m-1 (base 10)
575.049	7.69574e-05
583.607	0.000104596
592.164	3.84089e-05
600.722	2.75026e-06
609.28	-8.96928e-07
617.837	6.31667e-06
626.395	4.62482e-06
634.953	5.42866e-06
643.51	4.39771e-06
652.068	-7.62187e-07
660.625	3.41676e-06
669.183	3.40285e-06
677.741	8.31249e-07
686.298	2.73173e-06
694.856	1.4423e-06
703.414	1.75916e-05
711.971	0.000117739
720.529	0.000349479
729.087	0.000248686
737.644	0.000120424
746.202	1.41834e-05
754.76	7.83083e-07
763.317	4.01035e-06
771.875	3.40713e-06
780.432	4.84704e-06
788.99	7.16864e-06
797.548	3.03336e-06
806.105	2.83426e-06
814.663	1.69681e-06
823.221	4.44668e-06
831.778	4.54875e-06
840.336	1.23881e-05
848.894	6.57186e-05
857.451	0.000196817
866.009	0.000354054
874.567	0.00023707
883.124	6.29595e-05
891.682	1.95901e-05
900.239	1.47263e-05
908.797	7.52329e-06
917.355	5.59673e-06
925.912	7.65679e-06
934.47	8.3082e-06
943.028	7.42572e-06
951.585	3.92699e-06
960.143	5.98711e-07
968.701	9.73186e-07
977.258	1.08384e-06
985.816	2.31413e-06
994.374	1.2142e-06
1002.93	2.99647e-07
1011.49	3.14315e-09
1020.05	1.90919e-06
1028.6	9.06343e-07
1037.16	1.32544e-06
1045.72	1.06775e-06
1054.28	5.50187e-06
1062.83	1.07161e-05
1071.39	2.18695e-05
1079.95	2.58154e-05
1088.51	3.21456e-05
1097.07	6.17955e-05
1105.62	0.000122255
1114.18	0.000166426
1122.74	0.000186101
1131.3	0.000561454
1139.85	0.00174984
1148.41	0.00196517
1156.97	0.000419912
1165.53	8.80845e-05
1174.08	7.13757e-05
1182.64	0.000209888
1191.2	0.000623709
1199.76	0.00211082
1208.31	0.00292924
1216.87	0.0025048
1225.43	0.00204937
1233.99	0.000859378
1242.55	0.000149102
1251.1	5.75413e-05
1259.66	5.80153e-05
1268.22	6.71759e-05
1276.78	7.85245e-05
1285.33	0.000146866
1293.89	0.00057251
1302.45	0.000811271
1311.01	0.000539967
1319.56	0.000455451
1328.12	7.68643e-05
1336.68	1.21193e-05
1345.24	2.9488e-05
1353.79	3.94287e-05
1362.35	3.29277e-05
1370.91	1.9759e-05
1379.47	1.72875e-05
1388.03	2.43217e-05
1396.58	1.71722e-05
1405.14	1.10217e-05
1413.7	5.84517e-06
1422.26	8.96762e-06
1430.81	1.54942e-05
1439.37	2.28534e-05
1447.93	1.85853e-05
1456.49	6.45585e-06
1465.04	2.87214e-06
1473.6	-6.38037e-06
1482.16	1.62834e-06
1490.72	-2.41467e-06
1499.27	1.10441e-06
1507.83	5.47253e-07
1516.39	8.95178e-07
1524.95	-3.02691e-07
1533.51	2.78743e-07
1542.06	-9.1251e-06
1550.62	3.08446e-06
1559.18	2.74948e-06
1567.74	3.24793e-06
1576.29	-1.08408e-05
1584.85	3.37614e-06
1593.41	1.68078e-06
1601.97	1.27755e-06
1610.52	4.01246e-07
1619.08	1.33376e-06
1627.64	1.34519e-07
1636.2	2.12357e-06
1644.75	1.48888e-06
1653.31	-2.42935e-05
1661.87	2.12932e-06
1670.43	2.09212e-06
1678.99	2.09324e-06
1687.54	1.49423e-06
1696.1	-5.02429e-06
1704.66	1.84215e-06
1713.22	5.24127e-06
1721.77	6.25558e-06
1730.33	4.10506e-06
1738.89	2.46116e-06
1747.45	1.5154e-06
1756	3.497e-07
1764.56	4.58252e-07
1773.12	8.9874e-07
1781.68	2.6214e-06
1790.23	2.32299e-06
1798.79	2.598e-06
1807.35	2.44043e-06
1815.91	9.19439e-07
1824.47	3.37954e-07
1833.02	8.24366e-07
1841.58	7.60405e-07
1850.14	4.90174e-07
1858.7	1.72107e-06
1867.25	1.80223e-06
1875.81	7.27005e-07
1884.37	3.92169e-07
1892.93	3.58453e-07
1901.48	-3.90288e-07
1910.04	8.61964e-08
1918.6	2.84872e-06
1927.16	5.84966e-06
1935.71	6.29597e-06
1944.27	4.49377e-06
1952.83	1.28105e-06
1961.39	-2.3152e-07
1969.95	3.15471e-07
1978.5	-1.81749e-07
1987.06	-7.62999e-07
1995.62	4.64465e-07
2004.18	1.62141e-08
2012.73	4.89137e-07
2021.29	-6.50715e-07
2029.85	6.59562e-07
2038.41	5.36819e-07
2046.96	1.23609e-06
2055.52	2.14154e-06
2064.08	5.42277e-06
2072.64	3.68844e-06
2081.19	8.82082e-07
2089.75	1.15899e-06
2098.31	2.95383e-07
2106.87	-2.14203e-07
2115.43	5.78321e-07
2123.98	1.53494e-07
2132.54	3.15635e-07
2141.1	4.47625e-07
2149.66	2.3507e-06
2158.21	4.33464e-06
2166.77	4.57474e-06
2175.33	2.04994e-06
2183.89	6.81633e-07
2192.44	3.13307e-07
2201	4.49623e-07
2209.56	-1.52828e-07
2218.12	1.36421e-09
2226.67	-3.93326e-07
2235.23	1.45919e-06
2243.79	2.36018e-06
2252.35	4.52111e-06
2260.9	5.63824e-06
2269.46	7.59661e-06
2278.02	1.24478e-05
2286.58	1.04517e-05
2295.14	3.00787e-06
2303.69	2.23322e-06
2312.25	1.70107e-06
2320.81	-9.46349e-07
2329.37	1.03231e-06
2337.92	-9.28574e-07
2346.48	5.88354e-07
2355.04	1.0594e-06
2363.6	-4.98119e-07
2372.15	9.84699e-07
2380.71	-3.7355e-07
2389.27	1.90674e-06
2397.83	4.41206e-06
2406.38	6.22811e-06
2414.94	6.58783e-06
2423.5	2.78378e-06
2432.06	1.49974e-06
2440.62	1.58475e-06
2449.17	8.6327e-07
2457.73	-4.52005e-07
2466.29	-1.17585e-06
2474.85	-4.1376e-07
2483.4	1.1863e-06
2491.96	3.18459e-06
2500.52	5.42386e-06
2509.08	3.76638e-06
2517.63	1.81012e-06
2526.19	-4.00875e-07
2534.75	2.00466e-07
2543.31	-3.68337e-07
2551.86	-7.24521e-07
2560.42	1.31499e-06
2568.98	2.06066e-06
2577.54	1.2168e-06
2586.1	1.01386e-06
2594.65	1.30511e-06
2603.21	2.07221e-06
2611.77	6.20029e-07
2620.33	2.02238e-07
2628.88	-3.99045e-07
2637.44	-9.476e-07
2646	-1.35766e-07
2654.56	5.28027e-07
2663.11	5.03456e-07
2671.67	-3.94694e-07
2680.23	1.18903e-06
2688.79	1.23845e-06
2697.34	9.57568e-08
2705.9	4.47469e-07
2714.46	-5.1131e-07
2723.02	-1.40475e-06
2731.58	-3.42799e-08
2740.13	-2.42473e-07
2748.69	-5.10685e-07
2757.25	7.26943e-07
2765.81	1.08598e-06
2774.36	4.73971e-07
2782.92	5.16476e-07
2791.48	-3.4703e-07
2800.04	3.19837e-07
2808.59	-1.947e-08
2817.15	-9.79214e-08
2825.71	-1.26926e-06
2834.27	1.4838e-06
2842.82	4.66161e-06
2851.38	2.00193e-06
2859.94	2.52663e-06
2868.5	1.8135e-06
2877.06	-4.72221e-07
2885.61	-2.75793e-07
2894.17	2.48265e-07
2902.73	-6.84726e-08
2911.29	-9.48935e-07
2919.84	-1.0236e-06
2928.4	-4.57611e-07
2936.96	9.37054e-07
2945.52	1.07036e-06
2954.07	3.77996e-07
2962.63	8.37583e-07
2971.19	2.84032e-06
2979.75	1.16499e-05
2988.3	4.77561e-05
2996.86	7.0083e-05
3005.42	6.25137e-05
3013.98	4.21e-05
3022.54	7.28898e-06
3031.09	1.36821e-07
3039.65	1.09269e-06
3048.21	-1.11334e-06
3056.77	-1.00104e-06
3065.32	1.82353e-07
3073.88	-1.28832e-06
3082.44	-9.50067e-07
3091	9.28934e-07
3099.55	-1.39722e-06
3108.11	-7.38694e-07
3116.67	-1.11408e-06
3125.23	2.52703e-07
3133.78	-1.02888e-06
3142.34	2.63533e-07
3150.9	-9.24896e-07
3159.46	-2.14385e-07
3168.02	-5.13937e-07
3176.57	1.11393e-06
3185.13	-2.15593e-06
3193.69	-4.51223e-07
3202.25	-9.37287e-07
3210.8	-1.31419e-06
3219.36	-2.12631e-06
3227.92	8.60305e-07
3236.48	-3.15781e-07
3245.03	-1.79887e-06
3253.59	-3.68661e-07
3262.15	-5.39388e-07
3270.71	3.23722e-07
3279.26	6.78992e-07
3287.82	-7.56858e-07
3296.38	-5.11671e-08
3304.94	-2.60455e-07
3313.5	-1.20278e-06
3322.05	-1.99648e-06
3330.61	-2.22268e-07
3339.17	-1.89895e-07
3347.73	-3.63561e-07
3356.28	-4.06695e-07
3364.84	1.37783e-06
3373.4	3.06664e-07
3381.96	8.17582e-07
3390.51	-1.39792e-06
3399.07	9.15088e-07
3407.63	-1.36299e-06
3416.19	-3.93914e-06
3424.74	-1.13859e-06
3433.3	-4.23633e-08
3441.86	1.27905e-06
3450.42	-8.31733e-08
3458.98	-1.26802e-06
3467.53	-2.56617e-06
3476.09	-2.74938e-06
3484.65	-1.9507e-06
3493.21	4.24918e-07
3501.76	9.41627e-07
3510.32	-1.95739e-06
3518.88	-1.55225e-06
3527.44	-1.16383e-06
3535.99	-3.93894e-07
3544.55	-9.15834e-07
3553.11	-8.80517e-07
3561.67	-2.21406e-06
3570.22	-6.51475e-08
3578.78	-1.4647e-06
3587.34	-1.23101e-06
3595.9	-2.00309e-06
3604.46	-2.055e-06
3613.01	-2.15394e-06
3621.57	1.07867e-07
3630.13	-2.15315e-06
3638.69	-1.4246e-06
3647.24	-4.10375e-06
3655.8	-3.3752e-06
3664.36	-1.23938e-06
3672.92	-3.17659e-06
3681.47	-4.90418e-07
3690.03	-2.9303e-06
3698.59	-3.87502e-07
3707.15	-8.43189e-07
3715.7	-1.63871e-06
3724.26	-2.22406e-06
3732.82	-1.88414e-06
3741.38	-4.33035e-06
3749.94	-2.93554e-06
3758.49	-1.05923e-06
3767.05	-1.18996e-06
3775.61	-9.70966e-07
3784.17	-1.93618e-06
3792.72	-1.03654e-06
3801.28	-1.21159e-05
3809.84	-1.63115e-06
3818.4	-1.58156e-06
3826.95	-1.63053e-06
3835.51	-1.42095e-06
3844.07	-2.74777e-06
3852.63	-5.18258e-06
3861.18	-5.5136e-07
3869.74	-3.17632e-06
3878.3	-4.56818e-07
3886.86	-2.77375e-06
3895.42	-1.09914e-06
3903.97	-4.70061e-06
3912.53	-4.01012e-06
3921.09	-1.24442e-06
3929.65	-1.25111e-06
3938.2	-1.64409e-06
3946.76	-1.50717e-06
3955.32	-3.66785e-06
3963.88	-2.40208e-06
3972.43	-1.7417e-06
