Infrared Spectrum: Pentafluoroethane
Formula: C2 H F5
CAS: 354-33-6
State: gas
Melting point: -102.78 C
Boiling point: -48.55 C
Class: IUPAC A
Instrument: IFS66V (Bruker)
Instrument parameters: KBr Beam Splitter; MCT Detector; Multipass cell
Sampling: 1 L/min Flow
Resolution: 1.9290
Temperature: 23 C
Pressure: 101.3 Pa
Origin: NIST, Analytical Chemistry Division, 301-975-3108
cm-1	(micromol/mol)-1m-1 (base 10)
575.652	8.25126e-05
584.33	0.000113241
593.008	3.32802e-05
601.687	5.28523e-06
610.365	2.41703e-06
619.043	1.82514e-06
627.721	1.8572e-06
636.399	1.52656e-06
645.077	2.44292e-06
653.756	2.59946e-06
662.434	2.3931e-06
671.112	1.95379e-06
679.79	1.44196e-06
688.468	1.34205e-06
697.146	5.11515e-06
705.825	3.66522e-05
714.503	0.000142473
723.181	0.000210648
731.859	0.000177174
740.537	7.26136e-05
749.215	8.61348e-06
757.894	3.08661e-06
766.572	3.15945e-06
775.25	3.92368e-06
783.928	5.22289e-06
792.606	4.88112e-06
801.284	3.84406e-06
809.963	3.46367e-06
818.641	3.29677e-06
827.319	4.77509e-06
835.997	7.62241e-06
844.675	3.10063e-05
853.354	0.000135763
862.032	0.000250455
870.71	0.000218202
879.388	0.000143851
888.066	2.81775e-05
896.744	1.60017e-05
905.423	1.18213e-05
914.101	5.18562e-06
922.779	6.34643e-06
931.457	7.97515e-06
940.135	8.46464e-06
948.813	4.77154e-06
957.492	2.19474e-06
966.17	1.88493e-06
974.848	2.43125e-06
983.526	2.78773e-06
992.204	2.29161e-06
1000.88	2.31952e-06
1009.56	2.14363e-06
1018.24	1.8143e-06
1026.92	1.68963e-06
1035.6	1.6832e-06
1044.27	2.57558e-06
1052.95	3.96622e-06
1061.63	9.98701e-06
1070.31	1.9669e-05
1078.99	2.68091e-05
1087.66	3.27795e-05
1096.34	6.11144e-05
1105.02	0.000120909
1113.7	0.00016685
1122.38	0.000197105
1131.06	0.000553221
1139.73	0.00169543
1148.41	0.00188648
1157.09	0.000431776
1165.77	0.000102009
1174.45	8.91451e-05
1183.12	0.000239764
1191.8	0.000671905
1200.48	0.00167346
1209.16	0.00283625
1217.84	0.00251426
1226.51	0.00173865
1235.19	0.000710347
1243.87	0.000136598
1252.55	6.73547e-05
1261.23	6.67295e-05
1269.91	7.49739e-05
1278.58	9.4635e-05
1287.26	0.000207449
1295.94	0.000694844
1304.62	0.000885207
1313.3	0.000548611
1321.97	0.000330316
1330.65	4.51379e-05
1339.33	1.94082e-05
1348.01	3.32439e-05
1356.69	5.19128e-05
1365.37	3.10348e-05
1374.04	1.82608e-05
1382.72	1.86179e-05
1391.4	2.702e-05
1400.08	1.51349e-05
1408.76	8.83515e-06
1417.43	7.36116e-06
1426.11	1.29224e-05
1434.79	1.8885e-05
1443.47	2.6512e-05
1452.15	2.17367e-05
1460.83	1.10792e-05
1469.5	3.38042e-06
1478.18	1.93246e-06
1486.86	4.51911e-07
1495.54	-4.48306e-07
1504.22	1.28946e-06
1512.89	1.51237e-06
1521.57	-1.70429e-06
1530.25	1.78007e-06
1538.93	-3.45915e-06
1547.61	2.77042e-06
1556.29	3.54869e-06
1564.96	3.26233e-06
1573.64	3.77159e-06
1582.32	3.83773e-06
1591	2.5165e-06
1599.68	1.54903e-06
1608.35	1.04869e-06
1617.03	-2.86119e-06
1625.71	1.49434e-06
1634.39	7.71355e-07
1643.07	2.36123e-06
1651.75	-2.00896e-06
1660.42	1.59768e-06
1669.1	-4.70599e-07
1677.78	1.6382e-06
1686.46	9.65044e-07
1695.14	-2.57367e-06
1703.81	1.63357e-06
1712.49	5.04481e-06
1721.17	6.85531e-06
1729.85	4.34154e-06
1738.53	1.92358e-06
1747.21	7.09081e-07
1755.88	3.53429e-07
1764.56	1.26693e-06
1773.24	-1.20815e-07
1781.92	2.25129e-06
1790.6	2.43047e-06
1799.27	2.55424e-06
1807.95	2.24802e-06
1816.63	1.28329e-06
1825.31	-6.38488e-08
1833.99	7.89781e-07
1842.67	4.1567e-07
1851.34	6.15042e-07
1860.02	1.29402e-06
1868.7	7.91007e-07
1877.38	1.02106e-06
1886.06	3.43174e-07
1894.73	9.2148e-08
1903.41	3.87389e-07
1912.09	1.24874e-06
1920.77	3.00954e-06
1929.45	5.70142e-06
1938.13	5.98266e-06
1946.8	3.81685e-06
1955.48	1.67717e-06
1964.16	4.29665e-07
1972.84	2.13919e-07
1981.52	2.47439e-07
1990.19	1.48943e-07
1998.87	2.5856e-07
2007.55	4.53224e-07
2016.23	3.9958e-07
2024.91	4.50288e-07
2033.59	5.00179e-07
2042.26	9.64338e-07
2050.94	1.99439e-06
2059.62	3.84629e-06
2068.3	3.34491e-06
2076.98	2.60703e-06
2085.65	1.44502e-06
2094.33	8.01771e-07
2103.01	5.57912e-07
2111.69	5.30839e-07
2120.37	3.50141e-07
2129.04	2.0947e-07
2137.72	5.21311e-07
2146.4	1.4564e-06
2155.08	3.34846e-06
2163.76	4.25364e-06
2172.44	3.29035e-06
2181.11	1.70794e-06
2189.79	5.30449e-07
2198.47	4.17558e-08
2207.15	1.75845e-07
2215.83	3.9927e-07
2224.5	4.20756e-07
2233.18	8.72569e-07
2241.86	2.04631e-06
2250.54	4.22544e-06
2259.22	5.96193e-06
2267.9	7.46042e-06
2276.57	1.25905e-05
2285.25	1.12336e-05
2293.93	3.73451e-06
2302.61	1.98681e-06
2311.29	8.36732e-07
2319.96	-1.60646e-07
2328.64	-1.7239e-06
2337.32	-2.01187e-06
2346	-6.71516e-07
2354.68	-1.82338e-06
2363.36	-3.19873e-06
2372.03	-1.21414e-06
2380.71	3.12841e-07
2389.39	2.18099e-06
2398.07	5.15411e-06
2406.75	6.62035e-06
2415.42	5.98064e-06
2424.1	2.18318e-06
2432.78	1.23828e-06
2441.46	1.33703e-06
2450.14	9.03243e-07
2458.82	-1.88028e-07
2467.49	-6.29298e-07
2476.17	-4.06546e-07
2484.85	1.14923e-06
2493.53	3.60765e-06
2502.21	5.72799e-06
2510.88	4.00419e-06
2519.56	1.17373e-06
2528.24	2.36151e-07
2536.92	-8.43629e-09
2545.6	1.12047e-07
2554.28	3.16326e-07
2562.95	1.24382e-06
2571.63	1.21088e-06
2580.31	8.70942e-07
2588.99	6.54909e-07
2597.67	1.89227e-06
2606.34	2.08328e-06
2615.02	-6.43221e-07
2623.7	-4.87253e-07
2632.38	-6.12411e-07
2641.06	1.32816e-07
2649.74	7.28748e-07
2658.41	1.24762e-06
2667.09	1.16847e-06
2675.77	9.44774e-07
2684.45	5.70481e-07
2693.13	2.21865e-07
2701.8	-1.1463e-07
2710.48	-2.78074e-07
2719.16	-3.69298e-07
2727.84	-2.45456e-07
2736.52	1.11534e-07
2745.2	9.28247e-08
2753.87	-2.64745e-07
2762.55	-4.08212e-07
2771.23	3.17974e-07
2779.91	4.27129e-07
2788.59	5.66814e-07
2797.26	4.72985e-07
2805.94	1.56393e-08
2814.62	1.56033e-07
2823.3	1.99324e-07
2831.98	1.4065e-06
2840.66	2.4929e-06
2849.33	2.51872e-06
2858.01	1.44764e-06
2866.69	8.33377e-07
2875.37	5.06781e-07
2884.05	-1.19432e-08
2892.72	-3.13492e-07
2901.4	-5.10896e-07
2910.08	-3.29685e-07
2918.76	-4.82422e-07
2927.44	-5.55242e-07
2936.11	5.50487e-08
2944.79	-6.71702e-08
2953.47	1.24089e-07
2962.15	5.0163e-08
2970.83	2.23609e-06
2979.51	1.17027e-05
2988.18	4.62997e-05
2996.86	7.12634e-05
3005.54	6.34593e-05
3014.22	4.11092e-05
3022.9	6.74913e-06
3031.57	5.54216e-07
3040.25	-5.29751e-08
3048.93	-1.18868e-07
3057.61	1.10196e-07
3066.29	3.53557e-07
3074.97	3.67235e-07
3083.64	-1.91324e-07
3092.32	-3.24926e-07
3101	-3.09134e-07
3109.68	-5.0756e-07
3118.36	-2.85932e-07
3127.03	-4.51758e-07
3135.71	3.16897e-08
3144.39	-9.33813e-08
3153.07	-3.58068e-07
3161.75	-5.11521e-07
3170.43	-3.45517e-07
3179.1	-4.68805e-07
3187.78	-1.61381e-07
3196.46	-2.68364e-07
3205.14	-8.93395e-08
3213.82	-3.39976e-07
3222.49	-2.78056e-07
3231.17	-1.15569e-07
3239.85	1.03767e-07
3248.53	5.09379e-08
3257.21	-5.75567e-07
3265.89	-6.30594e-08
3274.56	2.46355e-07
3283.24	-7.99108e-07
3291.92	-4.51427e-07
3300.6	-7.92597e-07
3309.28	-6.29822e-07
3317.95	-5.13773e-07
3326.63	-8.08098e-07
3335.31	-3.55856e-07
3343.99	-8.26927e-07
3352.67	-8.47256e-07
3361.35	-6.63084e-07
3370.02	-3.7888e-07
3378.7	-5.29405e-07
3387.38	-5.18845e-07
3396.06	-8.524e-07
3404.74	-5.93643e-07
3413.41	-1.0085e-06
3422.09	-1.03659e-06
3430.77	-1.16162e-06
3439.45	-1.06297e-06
3448.13	-8.56362e-07
3456.81	-1.03277e-06
3465.48	-1.26626e-06
3474.16	-1.16878e-06
3482.84	-1.45225e-06
3491.52	-1.2064e-06
3500.2	-1.26324e-06
3508.87	-9.53639e-07
3517.55	-1.40397e-06
3526.23	-1.31217e-06
3534.91	-1.30728e-06
3543.59	-1.30272e-06
3552.27	-1.53085e-06
3560.94	-1.15787e-06
3569.62	-1.18997e-06
3578.3	-1.08569e-06
3586.98	-2.32046e-06
3595.66	-1.75621e-06
3604.33	-1.38929e-06
3613.01	-2.32295e-06
3621.69	-2.02134e-06
3630.37	-3.13703e-06
3639.05	-1.93688e-06
3647.73	-3.30087e-06
3656.4	-3.73018e-06
3665.08	-1.68703e-06
3673.76	-2.56882e-06
3682.44	-1.87919e-06
3691.12	-3.27185e-06
3699.79	-2.03013e-06
3708.47	-2.39494e-06
3717.15	-1.42738e-06
3725.83	-2.37024e-06
3734.51	-3.41571e-06
3743.19	-3.36002e-06
3751.86	-6.25869e-06
3760.54	-2.45328e-06
3769.22	-2.72159e-06
3777.9	-1.47544e-06
3786.58	-1.8716e-06
3795.25	-2.04207e-06
3803.93	-2.31935e-06
3812.61	-1.84034e-06
3821.29	-4.13354e-06
3829.97	-2.12107e-06
3838.64	-4.40206e-06
3847.32	-1.67892e-06
3856	-1.79433e-06
3864.68	-2.63199e-06
3873.36	-2.46336e-06
3882.04	-2.14495e-06
3890.71	-2.94786e-06
3899.39	-3.51664e-06
3908.07	-2.11174e-06
3916.75	-2.65649e-06
3925.43	-2.22936e-06
3934.1	-2.20883e-06
3942.78	-2.12993e-06
3951.46	-1.7702e-06
3960.14	-2.05735e-06
3968.82	-1.59676e-06
