Infrared Spectrum: Pentafluoroethane
Formula: C2 H F5
CAS: 354-33-6
State: gas
Melting point: -102.78 C
Boiling point: -48.55 C
Class: IUPAC A
Instrument: IFS66V (Bruker)
Instrument parameters: KBr Beam Splitter; MCT Detector; Multipass cell
Sampling: 1 L/min Flow
Resolution: 0.1250
Temperature: 23 C
Pressure: 101.3 Pa
Origin: NIST, Analytical Chemistry Division, 301-975-3108
cm-1	(micromol/mol)-1m-1 (base 10)
575.049	7.79539e-05
583.607	0.000108679
592.164	4.02701e-05
600.722	3.31729e-06
609.28	-9.39935e-07
617.837	4.76017e-06
626.395	4.23207e-06
634.953	3.79518e-06
643.51	4.73726e-06
652.068	3.76032e-07
660.625	3.30056e-06
669.183	3.50561e-06
677.741	1.0358e-06
686.298	2.40323e-06
694.856	2.07474e-06
703.414	1.79999e-05
711.971	0.000117377
720.529	0.000345011
729.087	0.000248439
737.644	0.000120663
746.202	1.43834e-05
754.76	1.31434e-06
763.317	3.28757e-06
771.875	3.88256e-06
780.432	4.21258e-06
788.99	6.48531e-06
797.548	3.43297e-06
806.105	2.05085e-06
814.663	1.56883e-06
823.221	3.99286e-06
831.778	4.35484e-06
840.336	1.25933e-05
848.894	6.61753e-05
857.451	0.000196488
866.009	0.00035508
874.567	0.000237496
883.124	6.2921e-05
891.682	1.92831e-05
900.239	1.41584e-05
908.797	7.01349e-06
917.355	5.34588e-06
925.912	7.56375e-06
934.47	8.94521e-06
943.028	7.62257e-06
951.585	3.87405e-06
960.143	1.10506e-06
968.701	8.46205e-07
977.258	1.24664e-06
985.816	2.57083e-06
994.374	1.41907e-06
1002.93	5.70819e-07
1011.49	6.50573e-07
1020.05	1.95304e-06
1028.6	8.35327e-07
1037.16	8.15031e-07
1045.72	1.21131e-06
1054.28	4.85671e-06
1062.83	1.06138e-05
1071.39	2.16049e-05
1079.95	2.5627e-05
1088.51	3.1335e-05
1097.07	6.16832e-05
1105.62	0.000122745
1114.18	0.000165669
1122.74	0.00018645
1131.3	0.000561495
1139.85	0.0017505
1148.41	0.00196559
1156.97	0.000419619
1165.53	8.80758e-05
1174.08	7.15443e-05
1182.64	0.000209861
1191.2	0.000623317
1199.76	0.00211216
1208.31	0.00292878
1216.87	0.00250494
1225.43	0.0020492
1233.99	0.000859303
1242.55	0.000149016
1251.1	5.77289e-05
1259.66	5.76746e-05
1268.22	6.75499e-05
1276.78	7.78257e-05
1285.33	0.00014766
1293.89	0.000571405
1302.45	0.000813508
1311.01	0.000548007
1319.56	0.000454122
1328.12	7.75769e-05
1336.68	1.18724e-05
1345.24	2.98055e-05
1353.79	3.9004e-05
1362.35	3.38096e-05
1370.91	1.96917e-05
1379.47	1.72353e-05
1388.03	2.40258e-05
1396.58	1.75855e-05
1405.14	1.08787e-05
1413.7	6.29627e-06
1422.26	9.21709e-06
1430.81	1.54208e-05
1439.37	2.22415e-05
1447.93	1.93271e-05
1456.49	7.15563e-06
1465.04	2.23596e-06
1473.6	-6.01154e-06
1482.16	1.69311e-06
1490.72	-2.49923e-06
1499.27	1.18219e-06
1507.83	7.27482e-07
1516.39	1.02655e-06
1524.95	1.38429e-07
1533.51	2.68215e-07
1542.06	-8.78466e-06
1550.62	3.05885e-06
1559.18	2.42734e-06
1567.74	3.41062e-06
1576.29	-1.09879e-05
1584.85	3.40698e-06
1593.41	1.66764e-06
1601.97	1.49844e-06
1610.52	6.38219e-07
1619.08	1.25908e-06
1627.64	-1.07398e-07
1636.2	2.26898e-06
1644.75	1.7789e-06
1653.31	-2.32511e-05
1661.87	1.94322e-06
1670.43	1.94687e-06
1678.99	1.89814e-06
1687.54	1.56796e-06
1696.1	-7.13594e-06
1704.66	1.53559e-06
1713.22	4.89971e-06
1721.77	6.49374e-06
1730.33	4.04175e-06
1738.89	2.48812e-06
1747.45	1.51847e-06
1756	3.93861e-07
1764.56	2.30028e-07
1773.12	5.19718e-07
1781.68	2.41647e-06
1790.23	2.55882e-06
1798.79	2.82095e-06
1807.35	2.44787e-06
1815.91	9.74346e-07
1824.47	2.30083e-07
1833.02	9.32976e-07
1841.58	7.18562e-07
1850.14	6.33115e-07
1858.7	1.82168e-06
1867.25	1.80318e-06
1875.81	8.33999e-07
1884.37	3.35065e-07
1892.93	4.59958e-07
1901.48	-2.11107e-08
1910.04	4.56156e-08
1918.6	2.95386e-06
1927.16	5.59845e-06
1935.71	6.10551e-06
1944.27	4.60256e-06
1952.83	1.26405e-06
1961.39	-7.5079e-08
1969.95	2.95925e-07
1978.5	-8.32133e-08
1987.06	-6.39747e-07
1995.62	4.8124e-07
2004.18	-4.41386e-08
2012.73	5.83988e-07
2021.29	-5.10485e-07
2029.85	5.88496e-07
2038.41	5.88918e-07
2046.96	1.10228e-06
2055.52	2.28989e-06
2064.08	5.44524e-06
2072.64	3.4673e-06
2081.19	9.33216e-07
2089.75	1.11275e-06
2098.31	4.6484e-07
2106.87	-7.62613e-08
2115.43	6.21997e-07
2123.98	-1.70021e-07
2132.54	1.49023e-07
2141.1	7.39007e-07
2149.66	2.37392e-06
2158.21	4.16079e-06
2166.77	4.75187e-06
2175.33	1.90771e-06
2183.89	6.12008e-07
2192.44	2.74294e-07
2201	4.45526e-07
2209.56	-2.31571e-07
2218.12	-9.2359e-08
2226.67	-7.318e-08
2235.23	1.32723e-06
2243.79	2.4314e-06
2252.35	4.59636e-06
2260.9	5.75757e-06
2269.46	7.64507e-06
2278.02	1.26031e-05
2286.58	1.04297e-05
2295.14	3.19423e-06
2303.69	2.42917e-06
2312.25	1.57466e-06
2320.81	-5.46958e-07
2329.37	4.28279e-07
2337.92	-7.97457e-07
2346.48	7.00558e-07
2355.04	1.04606e-06
2363.6	1.68344e-07
2372.15	5.27765e-07
2380.71	-3.67457e-07
2389.27	1.94166e-06
2397.83	4.49464e-06
2406.38	6.29896e-06
2414.94	6.4725e-06
2423.5	2.78199e-06
2432.06	1.38142e-06
2440.62	1.55344e-06
2449.17	1.1091e-06
2457.73	-3.13623e-07
2466.29	-9.57313e-07
2474.85	-6.2326e-07
2483.4	1.13746e-06
2491.96	3.07104e-06
2500.52	5.40678e-06
2509.08	3.71203e-06
2517.63	2.06155e-06
2526.19	-1.31248e-07
2534.75	1.87861e-07
2543.31	-5.07964e-07
2551.86	-9.03829e-07
2560.42	1.23621e-06
2568.98	1.88069e-06
2577.54	1.3752e-06
2586.1	8.9309e-07
2594.65	1.50655e-06
2603.21	1.81124e-06
2611.77	1.00808e-06
2620.33	-6.11385e-08
2628.88	-3.75177e-07
2637.44	-6.1968e-07
2646	-4.35347e-08
2654.56	5.71656e-07
2663.11	3.87487e-07
2671.67	-1.48215e-07
2680.23	1.16067e-06
2688.79	1.25035e-06
2697.34	1.02945e-07
2705.9	1.47608e-07
2714.46	-5.48926e-07
2723.02	-1.31069e-06
2731.58	1.71709e-08
2740.13	-3.11659e-07
2748.69	-5.00568e-07
2757.25	3.95876e-07
2765.81	8.83955e-07
2774.36	1.09188e-07
2782.92	5.67905e-07
2791.48	-2.99941e-07
2800.04	7.31262e-07
2808.59	1.37003e-07
2817.15	-8.22893e-08
2825.71	-8.56558e-07
2834.27	1.51973e-06
2842.82	4.64537e-06
2851.38	1.79978e-06
2859.94	2.21192e-06
2868.5	1.46308e-06
2877.06	-3.38816e-07
2885.61	-8.20252e-07
2894.17	2.79067e-07
2902.73	2.33964e-07
2911.29	-1.70297e-07
2919.84	-1.35718e-06
2928.4	-5.28882e-07
2936.96	9.15332e-07
2945.52	1.13431e-06
2954.07	2.45598e-07
2962.63	8.66777e-07
2971.19	2.49631e-06
2979.75	1.18696e-05
2988.3	4.79971e-05
2996.86	7.0006e-05
3005.42	6.24975e-05
3013.98	4.22156e-05
3022.54	6.82977e-06
3031.09	1.43472e-07
3039.65	8.71834e-07
3048.21	-9.11068e-07
3056.77	-6.30848e-07
3065.32	2.7739e-08
3073.88	-9.68471e-07
3082.44	-6.13968e-07
3091	7.47206e-07
3099.55	-1.10849e-06
3108.11	-9.48575e-07
3116.67	-9.04651e-07
3125.23	2.7683e-07
3133.78	-7.69703e-07
3142.34	-2.9336e-07
3150.9	-9.91266e-07
3159.46	-1.08082e-07
3168.02	-2.34324e-07
3176.57	1.26416e-06
3185.13	-2.10151e-06
3193.69	-7.17685e-08
3202.25	-1.02383e-06
3210.8	-1.27885e-06
3219.36	-1.55677e-06
3227.92	7.3156e-07
3236.48	-1.18697e-07
3245.03	-1.51172e-06
3253.59	-1.66849e-07
3262.15	-9.85052e-07
3270.71	-2.40582e-07
3279.26	5.78157e-07
3287.82	-5.42575e-07
3296.38	-2.42786e-07
3304.94	-5.36314e-07
3313.5	-1.36072e-06
3322.05	-1.62683e-06
3330.61	5.95415e-08
3339.17	-2.88915e-07
3347.73	-6.77512e-07
3356.28	-1.91099e-07
3364.84	1.17069e-06
3373.4	-3.43913e-07
3381.96	9.84121e-07
3390.51	-8.0936e-07
3399.07	6.93711e-07
3407.63	-1.47347e-06
3416.19	-2.9671e-06
3424.74	-1.72237e-06
3433.3	-1.1749e-07
3441.86	6.17093e-07
3450.42	-2.67069e-07
3458.98	-1.16106e-06
3467.53	-2.80338e-06
3476.09	-3.03605e-06
3484.65	-2.65385e-06
3493.21	-1.61741e-07
3501.76	1.02575e-06
3510.32	-2.32349e-06
3518.88	-1.24948e-06
3527.44	-1.36849e-06
3535.99	-9.22812e-07
3544.55	-6.151e-07
3553.11	-4.75313e-07
3561.67	-1.53009e-06
3570.22	6.01454e-08
3578.78	-1.37922e-06
3587.34	-1.39327e-06
3595.9	-1.75605e-06
3604.46	-1.60056e-06
3613.01	-2.00064e-06
3621.57	-4.48666e-07
3630.13	-2.10381e-06
3638.69	-1.22378e-06
3647.24	-4.28061e-06
3655.8	-2.81696e-06
3664.36	-1.56593e-06
3672.92	-2.69616e-06
3681.47	-9.74666e-07
3690.03	-2.50388e-06
3698.59	-1.21212e-06
3707.15	-1.17407e-06
3715.7	-1.4311e-06
3724.26	-2.15504e-06
3732.82	-1.51652e-06
3741.38	-4.22395e-06
3749.94	-3.1925e-06
3758.49	-1.2945e-06
3767.05	-8.97241e-07
3775.61	-7.23957e-07
3784.17	-1.74365e-06
3792.72	-9.85085e-07
3801.28	-1.24848e-05
3809.84	-1.77859e-06
3818.4	-1.06956e-06
3826.95	-2.10792e-06
3835.51	-1.31903e-06
3844.07	-2.78438e-06
3852.63	-4.76385e-06
3861.18	-6.38579e-07
3869.74	-2.72376e-06
3878.3	-8.77738e-07
3886.86	-2.15335e-06
3895.42	-1.30587e-06
3903.97	-4.8696e-06
3912.53	-3.72063e-06
3921.09	-1.59169e-06
3929.65	-2.22584e-06
3938.2	-2.20225e-06
3946.76	-1.86411e-06
3955.32	-3.58391e-06
3963.88	-2.50115e-06
3972.43	-1.89691e-06
