Infrared Spectrum: Pentafluoroethane
Formula: C2 H F5
CAS: 354-33-6
State: gas
Melting point: -102.78 C
Boiling point: -48.55 C
Class: IUPAC A
Instrument: IFS66V (Bruker)
Instrument parameters: KBr Beam Splitter; MCT Detector; Multipass cell
Sampling: 1 L/min Flow
Resolution: 0.2410
Temperature: 23 C
Pressure: 101.3 Pa
Origin: NIST, Analytical Chemistry Division, 301-975-3108
cm-1	(micromol/mol)-1m-1 (base 10)
575.049	8.054e-05
583.607	0.000108951
592.164	3.9359e-05
600.722	3.59589e-06
609.28	1.50981e-06
617.837	3.68045e-06
626.395	2.24872e-06
634.953	3.83706e-06
643.51	4.25859e-06
652.068	5.59043e-07
660.625	3.39049e-06
669.183	2.77609e-06
677.741	1.64395e-06
686.298	1.56255e-06
694.856	2.24289e-06
703.414	1.75205e-05
711.971	0.000116406
720.529	0.000338877
729.087	0.00024851
737.644	0.000120963
746.202	1.5537e-05
754.76	1.56065e-06
763.317	2.81082e-06
771.875	3.33026e-06
780.432	3.77616e-06
788.99	4.69749e-06
797.548	3.80058e-06
806.105	2.64205e-06
814.663	2.46669e-06
823.221	2.98944e-06
831.778	4.10514e-06
840.336	1.25522e-05
848.894	6.62863e-05
857.451	0.000196971
866.009	0.000355119
874.567	0.000237024
883.124	6.37308e-05
891.682	1.93572e-05
900.239	1.40954e-05
908.797	7.64478e-06
917.355	4.79146e-06
925.912	7.01774e-06
934.47	8.94039e-06
943.028	7.53551e-06
951.585	3.733e-06
960.143	1.57303e-06
968.701	1.08786e-06
977.258	1.24782e-06
985.816	2.63228e-06
994.374	1.70055e-06
1002.93	1.35932e-06
1011.49	1.04138e-06
1020.05	1.90415e-06
1028.6	8.19251e-07
1037.16	3.43432e-07
1045.72	1.15488e-06
1054.28	4.48663e-06
1062.83	1.05495e-05
1071.39	2.10916e-05
1079.95	2.58092e-05
1088.51	3.1221e-05
1097.07	6.14176e-05
1105.62	0.000123238
1114.18	0.000164407
1122.74	0.000185989
1131.3	0.000561247
1139.85	0.00175288
1148.41	0.00196682
1156.97	0.000420137
1165.53	8.80372e-05
1174.08	7.2424e-05
1182.64	0.000210082
1191.2	0.000622939
1199.76	0.00211075
1208.31	0.00292917
1216.87	0.00250492
1225.43	0.00205007
1233.99	0.000859655
1242.55	0.000148582
1251.1	5.82787e-05
1259.66	5.77876e-05
1268.22	6.78439e-05
1276.78	7.84559e-05
1285.33	0.000148208
1293.89	0.000571842
1302.45	0.000812162
1311.01	0.000548187
1319.56	0.000454501
1328.12	7.76073e-05
1336.68	1.20691e-05
1345.24	2.9666e-05
1353.79	3.93606e-05
1362.35	3.40803e-05
1370.91	2.04599e-05
1379.47	1.6701e-05
1388.03	2.37043e-05
1396.58	1.77912e-05
1405.14	1.03517e-05
1413.7	6.91751e-06
1422.26	9.73765e-06
1430.81	1.54762e-05
1439.37	2.21721e-05
1447.93	2.05769e-05
1456.49	9.7742e-06
1465.04	1.33466e-06
1473.6	-5.59579e-06
1482.16	1.66137e-06
1490.72	-2.18799e-06
1499.27	1.28598e-06
1507.83	1.05629e-06
1516.39	8.36419e-07
1524.95	5.81238e-07
1533.51	1.94311e-07
1542.06	-8.27947e-06
1550.62	2.99396e-06
1559.18	2.11769e-06
1567.74	3.39957e-06
1576.29	-1.0803e-05
1584.85	3.17742e-06
1593.41	1.92402e-06
1601.97	1.43609e-06
1610.52	6.53887e-07
1619.08	1.189e-06
1627.64	-1.22732e-07
1636.2	1.96123e-06
1644.75	1.94511e-06
1653.31	-1.82648e-05
1661.87	1.62612e-06
1670.43	1.89995e-06
1678.99	1.93594e-06
1687.54	1.64429e-06
1696.1	-1.06859e-05
1704.66	7.3865e-07
1713.22	5.1102e-06
1721.77	6.55775e-06
1730.33	4.00543e-06
1738.89	2.43972e-06
1747.45	1.16339e-06
1756	5.06716e-07
1764.56	7.48058e-07
1773.12	6.37404e-07
1781.68	2.18583e-06
1790.23	2.87983e-06
1798.79	2.97184e-06
1807.35	2.38408e-06
1815.91	1.15156e-06
1824.47	3.04034e-07
1833.02	1.05397e-06
1841.58	6.89568e-07
1850.14	5.04799e-07
1858.7	1.5807e-06
1867.25	1.53578e-06
1875.81	1.09478e-06
1884.37	2.86586e-07
1892.93	3.4301e-07
1901.48	-2.99519e-07
1910.04	1.79607e-07
1918.6	2.93475e-06
1927.16	5.4455e-06
1935.71	5.79675e-06
1944.27	4.21441e-06
1952.83	1.56649e-06
1961.39	1.78021e-07
1969.95	4.79744e-07
1978.5	-1.51377e-07
1987.06	-2.20067e-07
1995.62	1.70559e-07
2004.18	-6.01709e-09
2012.73	3.46099e-07
2021.29	-2.43434e-07
2029.85	4.76339e-07
2038.41	6.38284e-07
2046.96	1.25022e-06
2055.52	2.70951e-06
2064.08	5.13577e-06
2072.64	3.67968e-06
2081.19	1.13468e-06
2089.75	1.06347e-06
2098.31	2.67753e-07
2106.87	6.80433e-08
2115.43	7.85383e-07
2123.98	2.38963e-07
2132.54	2.1321e-07
2141.1	1.1741e-06
2149.66	2.17402e-06
2158.21	4.43457e-06
2166.77	4.92742e-06
2175.33	2.20738e-06
2183.89	7.05309e-07
2192.44	1.90899e-07
2201	2.82712e-07
2209.56	-1.36385e-07
2218.12	1.2896e-07
2226.67	2.09325e-07
2235.23	1.10679e-06
2243.79	2.35917e-06
2252.35	4.73004e-06
2260.9	5.99213e-06
2269.46	7.71185e-06
2278.02	1.24787e-05
2286.58	1.0123e-05
2295.14	3.34093e-06
2303.69	2.18279e-06
2312.25	1.39628e-06
2320.81	-6.317e-07
2329.37	1.90946e-07
2337.92	-1.7568e-06
2346.48	6.64077e-07
2355.04	8.76439e-07
2363.6	7.2889e-08
2372.15	2.64708e-07
2380.71	-3.27506e-07
2389.27	2.20574e-06
2397.83	4.68335e-06
2406.38	6.15594e-06
2414.94	6.46137e-06
2423.5	2.79541e-06
2432.06	9.89727e-07
2440.62	1.12753e-06
2449.17	1.03206e-06
2457.73	-2.236e-07
2466.29	-1.0602e-06
2474.85	-6.65652e-07
2483.4	7.17885e-07
2491.96	3.04198e-06
2500.52	5.55602e-06
2509.08	3.98002e-06
2517.63	2.13066e-06
2526.19	-1.0921e-08
2534.75	2.43627e-07
2543.31	-4.61904e-07
2551.86	-6.36636e-07
2560.42	1.03265e-06
2568.98	1.75775e-06
2577.54	1.49223e-06
2586.1	1.09379e-06
2594.65	1.39295e-06
2603.21	2.11148e-06
2611.77	1.44143e-06
2620.33	-1.10785e-07
2628.88	-4.37836e-07
2637.44	-5.6565e-07
2646	1.17792e-07
2654.56	1.06968e-06
2663.11	7.51867e-07
2671.67	6.07369e-07
2680.23	9.84609e-07
2688.79	8.58348e-07
2697.34	1.45003e-07
2705.9	1.50427e-08
2714.46	-6.33835e-07
2723.02	-3.12059e-07
2731.58	-4.58026e-07
2740.13	-1.71425e-07
2748.69	-1.40765e-07
2757.25	1.40641e-08
2765.81	3.27411e-07
2774.36	1.60548e-07
2782.92	2.47184e-07
2791.48	8.80299e-08
2800.04	7.28708e-08
2808.59	4.15241e-07
2817.15	-2.92007e-07
2825.71	-3.6208e-08
2834.27	1.50648e-06
2842.82	3.36872e-06
2851.38	1.84661e-06
2859.94	1.80083e-06
2868.5	1.27148e-06
2877.06	-2.32775e-07
2885.61	-8.8604e-07
2894.17	-1.65994e-07
2902.73	4.81876e-08
2911.29	-2.03726e-07
2919.84	-9.63723e-07
2928.4	-3.63426e-08
2936.96	3.80292e-07
2945.52	7.21887e-07
2954.07	-8.34571e-08
2962.63	7.43347e-07
2971.19	1.79872e-06
2979.75	1.1975e-05
2988.3	4.74101e-05
2996.86	7.02626e-05
3005.42	6.21633e-05
3013.98	4.24733e-05
3022.54	6.92834e-06
3031.09	-1.82885e-07
3039.65	6.04841e-07
3048.21	-4.12192e-07
3056.77	-3.29303e-07
3065.32	-5.27859e-08
3073.88	-6.22863e-07
3082.44	-1.64513e-07
3091	4.26726e-08
3099.55	-1.48407e-06
3108.11	-9.28203e-07
3116.67	-7.16925e-07
3125.23	-5.17382e-08
3133.78	-4.11512e-07
3142.34	-4.02967e-07
3150.9	-1.85533e-07
3159.46	-3.6948e-07
3168.02	-1.35002e-08
3176.57	4.34936e-07
3185.13	-1.04603e-06
3193.69	-4.77376e-07
3202.25	-3.67472e-07
3210.8	-9.52249e-07
3219.36	-1.08399e-06
3227.92	-2.33786e-07
3236.48	3.54994e-07
3245.03	-8.36728e-07
3253.59	2.60994e-07
3262.15	-1.12562e-06
3270.71	-8.07687e-08
3279.26	1.34086e-07
3287.82	-1.9669e-07
3296.38	-5.57894e-07
3304.94	-4.70548e-07
3313.5	-8.30322e-07
3322.05	-5.41814e-07
3330.61	1.27981e-08
3339.17	-4.81774e-07
3347.73	-2.98661e-07
3356.28	-2.1655e-07
3364.84	-5.49683e-07
3373.4	-4.6528e-07
3381.96	-2.19362e-07
3390.51	-5.10288e-08
3399.07	4.67663e-07
3407.63	-1.00184e-06
3416.19	-1.77475e-06
3424.74	-1.38577e-06
3433.3	-8.89921e-07
3441.86	9.0209e-08
3450.42	2.56072e-08
3458.98	-1.04418e-06
3467.53	-2.2607e-06
3476.09	-1.98808e-06
3484.65	-1.81241e-06
3493.21	-6.4652e-07
3501.76	3.79026e-07
3510.32	-2.3542e-06
3518.88	-1.78613e-06
3527.44	-1.45541e-06
3535.99	-1.19203e-06
3544.55	-6.42209e-07
3553.11	-1.19429e-06
3561.67	-1.16276e-06
3570.22	-3.96658e-07
3578.78	-1.16774e-06
3587.34	-1.60142e-06
3595.9	-1.65101e-06
3604.46	-1.76626e-06
3613.01	-1.71381e-06
3621.57	-1.32605e-06
3630.13	-1.72611e-06
3638.69	-1.51903e-06
3647.24	-4.46976e-06
3655.8	-2.48369e-06
3664.36	-1.61227e-06
3672.92	-1.5401e-06
3681.47	-1.64088e-06
3690.03	-2.0177e-06
3698.59	-1.61012e-06
3707.15	-1.18788e-06
3715.7	-1.22305e-06
3724.26	-2.03814e-06
3732.82	-1.90502e-06
3741.38	-3.30864e-06
3749.94	-3.16451e-06
3758.49	-1.4866e-06
3767.05	-1.27594e-06
3775.61	-1.56725e-06
3784.17	-2.10495e-06
3792.72	-1.52989e-06
3801.28	-1.33554e-05
3809.84	-1.81826e-06
3818.4	-1.40671e-06
3826.95	-2.75502e-06
3835.51	-1.79507e-06
3844.07	-2.48695e-06
3852.63	-3.83698e-06
3861.18	-1.1687e-06
3869.74	-2.92337e-06
3878.3	-1.67917e-06
3886.86	-1.89972e-06
3895.42	-1.6825e-06
3903.97	-5.39091e-06
3912.53	-2.98798e-06
3921.09	-1.69561e-06
3929.65	-1.91515e-06
3938.2	-2.14082e-06
3946.76	-2.18063e-06
3955.32	-2.91751e-06
3963.88	-3.04651e-06
3972.43	-1.31415e-06
