Infrared Spectrum: Pentafluoroethane
Formula: C2 H F5
CAS: 354-33-6
State: gas
Melting point: -102.78 C
Boiling point: -48.55 C
Class: IUPAC A
Instrument: IFS66V (Bruker)
Instrument parameters: KBr Beam Splitter; MCT Detector; Multipass cell
Sampling: 1 L/min Flow
Resolution: 0.2410
Temperature: 23 C
Pressure: 101.3 Pa
Origin: NIST, Analytical Chemistry Division, 301-975-3108
cm-1	(micromol/mol)-1m-1 (base 10)
575.049	8.00933e-05
583.607	0.000108711
592.164	3.99119e-05
600.722	3.44605e-06
609.28	1.34575e-06
617.837	4.14965e-06
626.395	2.58638e-06
634.953	3.74525e-06
643.51	4.58123e-06
652.068	7.27951e-07
660.625	3.41179e-06
669.183	2.78063e-06
677.741	1.80252e-06
686.298	1.93574e-06
694.856	2.21308e-06
703.414	1.7811e-05
711.971	0.000116338
720.529	0.000334738
729.087	0.000247269
737.644	0.000120904
746.202	1.55567e-05
754.76	1.64175e-06
763.317	3.02567e-06
771.875	3.43621e-06
780.432	3.93106e-06
788.99	5.26586e-06
797.548	3.73356e-06
806.105	2.81684e-06
814.663	2.25685e-06
823.221	3.29992e-06
831.778	4.30005e-06
840.336	1.27774e-05
848.894	6.63574e-05
857.451	0.000196566
866.009	0.000354466
874.567	0.000236344
883.124	6.39695e-05
891.682	1.95813e-05
900.239	1.41447e-05
908.797	7.70955e-06
917.355	4.9486e-06
925.912	7.06403e-06
934.47	8.91521e-06
943.028	7.54715e-06
951.585	3.82526e-06
960.143	1.43735e-06
968.701	1.15817e-06
977.258	1.31493e-06
985.816	2.70779e-06
994.374	1.69697e-06
1002.93	1.30235e-06
1011.49	1.00374e-06
1020.05	1.88189e-06
1028.6	8.73805e-07
1037.16	6.11291e-07
1045.72	1.32642e-06
1054.28	4.70264e-06
1062.83	1.08074e-05
1071.39	2.12413e-05
1079.95	2.60549e-05
1088.51	3.17573e-05
1097.07	6.20346e-05
1105.62	0.000123332
1114.18	0.000165363
1122.74	0.000187644
1131.3	0.000563085
1139.85	0.00174675
1148.41	0.00195697
1156.97	0.000422885
1165.53	9.01618e-05
1174.08	7.41449e-05
1182.64	0.000211987
1191.2	0.000625116
1199.76	0.00209145
1208.31	0.0029173
1216.87	0.00250224
1225.43	0.00204483
1233.99	0.000860414
1242.55	0.000151255
1251.1	5.97302e-05
1259.66	5.86478e-05
1268.22	6.84536e-05
1276.78	7.92833e-05
1285.33	0.000149187
1293.89	0.000571217
1302.45	0.000812065
1311.01	0.000561069
1319.56	0.000453653
1328.12	7.88317e-05
1336.68	1.27429e-05
1345.24	2.99894e-05
1353.79	3.95108e-05
1362.35	3.411e-05
1370.91	2.056e-05
1379.47	1.69622e-05
1388.03	2.36639e-05
1396.58	1.78274e-05
1405.14	1.05669e-05
1413.7	6.76596e-06
1422.26	9.69804e-06
1430.81	1.55621e-05
1439.37	2.23047e-05
1447.93	2.03192e-05
1456.49	9.23779e-06
1465.04	1.94949e-06
1473.6	-5.36586e-06
1482.16	1.68457e-06
1490.72	-2.0655e-06
1499.27	1.24169e-06
1507.83	8.74005e-07
1516.39	8.48002e-07
1524.95	3.91907e-07
1533.51	1.5186e-07
1542.06	-7.90755e-06
1550.62	2.96412e-06
1559.18	1.87723e-06
1567.74	3.37895e-06
1576.29	-1.00516e-05
1584.85	3.2334e-06
1593.41	1.9083e-06
1601.97	1.44108e-06
1610.52	5.75989e-07
1619.08	1.22951e-06
1627.64	9.36614e-08
1636.2	1.80037e-06
1644.75	1.86322e-06
1653.31	-1.85344e-05
1661.87	1.66092e-06
1670.43	1.84317e-06
1678.99	1.95109e-06
1687.54	1.59274e-06
1696.1	-8.82284e-06
1704.66	1.11338e-06
1713.22	5.0657e-06
1721.77	6.54385e-06
1730.33	4.08112e-06
1738.89	2.36616e-06
1747.45	1.21051e-06
1756	4.78882e-07
1764.56	6.68584e-07
1773.12	4.65426e-07
1781.68	2.25854e-06
1790.23	2.73379e-06
1798.79	2.93702e-06
1807.35	2.42339e-06
1815.91	1.11144e-06
1824.47	3.12426e-07
1833.02	1.01615e-06
1841.58	6.8904e-07
1850.14	5.34015e-07
1858.7	1.56784e-06
1867.25	1.53149e-06
1875.81	1.0832e-06
1884.37	3.1482e-07
1892.93	3.14933e-07
1901.48	-2.60677e-07
1910.04	1.88963e-07
1918.6	2.89233e-06
1927.16	5.52218e-06
1935.71	5.89753e-06
1944.27	4.3047e-06
1952.83	1.60505e-06
1961.39	1.42704e-07
1969.95	4.67925e-07
1978.5	-1.4453e-07
1987.06	-2.4785e-07
1995.62	2.40356e-07
2004.18	3.23046e-08
2012.73	4.23015e-07
2021.29	-2.86947e-07
2029.85	5.15476e-07
2038.41	6.59057e-07
2046.96	1.26123e-06
2055.52	2.64184e-06
2064.08	5.10605e-06
2072.64	3.70596e-06
2081.19	1.1306e-06
2089.75	1.1001e-06
2098.31	3.27669e-07
2106.87	4.11265e-08
2115.43	6.85715e-07
2123.98	2.07524e-07
2132.54	2.42532e-07
2141.1	1.03794e-06
2149.66	2.2342e-06
2158.21	4.40056e-06
2166.77	4.87808e-06
2175.33	2.21693e-06
2183.89	7.47454e-07
2192.44	2.44561e-07
2201	3.77425e-07
2209.56	-1.15951e-07
2218.12	1.09206e-07
2226.67	1.20927e-07
2235.23	1.16801e-06
2243.79	2.36598e-06
2252.35	4.72133e-06
2260.9	5.9146e-06
2269.46	7.69593e-06
2278.02	1.25005e-05
2286.58	1.01809e-05
2295.14	3.33857e-06
2303.69	2.18219e-06
2312.25	1.39116e-06
2320.81	-6.10232e-07
2329.37	1.23696e-07
2337.92	-1.30319e-06
2346.48	5.63121e-07
2355.04	6.3449e-07
2363.6	-1.92772e-07
2372.15	1.7694e-07
2380.71	-2.6509e-07
2389.27	2.17404e-06
2397.83	4.61361e-06
2406.38	6.25792e-06
2414.94	6.44033e-06
2423.5	2.78164e-06
2432.06	1.07652e-06
2440.62	1.23594e-06
2449.17	9.79606e-07
2457.73	-2.97886e-07
2466.29	-1.05826e-06
2474.85	-6.61552e-07
2483.4	8.2015e-07
2491.96	3.07436e-06
2500.52	5.49499e-06
2509.08	4.00742e-06
2517.63	2.09569e-06
2526.19	-7.48425e-08
2534.75	2.0779e-07
2543.31	-4.05397e-07
2551.86	-5.96783e-07
2560.42	1.08322e-06
2568.98	1.76305e-06
2577.54	1.48576e-06
2586.1	1.08923e-06
2594.65	1.3264e-06
2603.21	2.05196e-06
2611.77	1.35182e-06
2620.33	-6.4078e-08
2628.88	-4.29043e-07
2637.44	-6.61494e-07
2646	5.81555e-08
2654.56	1.02869e-06
2663.11	7.16615e-07
2671.67	3.88259e-07
2680.23	9.67307e-07
2688.79	9.21822e-07
2697.34	1.24871e-07
2705.9	6.61989e-08
2714.46	-5.75487e-07
2723.02	-5.31559e-07
2731.58	-3.88524e-07
2740.13	-2.07673e-07
2748.69	-2.52481e-07
2757.25	7.00041e-08
2765.81	4.37163e-07
2774.36	1.769e-07
2782.92	3.33534e-07
2791.48	7.14775e-08
2800.04	1.59387e-07
2808.59	3.55954e-07
2817.15	-2.48723e-07
2825.71	-2.37802e-07
2834.27	1.57715e-06
2842.82	3.63036e-06
2851.38	1.89661e-06
2859.94	1.8539e-06
2868.5	1.34922e-06
2877.06	-2.24877e-07
2885.61	-7.59328e-07
2894.17	-4.12647e-08
2902.73	-1.29691e-08
2911.29	-3.76373e-07
2919.84	-1.02524e-06
2928.4	-1.51537e-07
2936.96	4.37105e-07
2945.52	7.41851e-07
2954.07	-6.17352e-09
2962.63	7.38483e-07
2971.19	2.03495e-06
2979.75	1.19717e-05
2988.3	4.7378e-05
2996.86	7.03448e-05
3005.42	6.2395e-05
3013.98	4.22774e-05
3022.54	7.08493e-06
3031.09	-1.12291e-07
3039.65	7.0473e-07
3048.21	-5.55253e-07
3056.77	-4.27872e-07
3065.32	-3.03328e-08
3073.88	-6.15191e-07
3082.44	-3.16348e-07
3091	2.59997e-07
3099.55	-1.43449e-06
3108.11	-8.7382e-07
3116.67	-7.40589e-07
3125.23	-5.05304e-09
3133.78	-4.71155e-07
3142.34	-3.79418e-07
3150.9	-3.14802e-07
3159.46	-2.7333e-07
3168.02	-9.79068e-08
3176.57	5.23065e-07
3185.13	-1.23156e-06
3193.69	-4.08078e-07
3202.25	-4.43464e-07
3210.8	-9.88163e-07
3219.36	-1.19562e-06
3227.92	-2.91541e-08
3236.48	2.21384e-07
3245.03	-9.50125e-07
3253.59	2.1106e-07
3262.15	-9.36981e-07
3270.71	-1.17722e-07
3279.26	1.24176e-07
3287.82	-2.61889e-07
3296.38	-4.23106e-07
3304.94	-4.63167e-07
3313.5	-9.91284e-07
3322.05	-7.69096e-07
3330.61	-8.24057e-08
3339.17	-5.00037e-07
3347.73	-3.68803e-07
3356.28	-2.67844e-07
3364.84	-2.09583e-07
3373.4	-4.07176e-07
3381.96	-1.5803e-08
3390.51	-3.3043e-07
3399.07	4.51634e-07
3407.63	-1.11959e-06
3416.19	-2.1041e-06
3424.74	-1.3644e-06
3433.3	-7.59288e-07
3441.86	2.68481e-07
3450.42	-6.2088e-08
3458.98	-1.05035e-06
3467.53	-2.40154e-06
3476.09	-2.09697e-06
3484.65	-1.84409e-06
3493.21	-4.0982e-07
3501.76	3.3799e-07
3510.32	-2.22373e-06
3518.88	-1.74728e-06
3527.44	-1.30076e-06
3535.99	-9.98098e-07
3544.55	-7.25932e-07
3553.11	-1.0834e-06
3561.67	-1.41369e-06
3570.22	-4.83888e-07
3578.78	-1.2153e-06
3587.34	-1.6465e-06
3595.9	-1.72077e-06
3604.46	-1.86905e-06
3613.01	-1.91239e-06
3621.57	-1.09672e-06
3630.13	-2.01147e-06
3638.69	-1.53801e-06
3647.24	-4.31122e-06
3655.8	-2.69236e-06
3664.36	-1.66255e-06
3672.92	-1.79516e-06
3681.47	-1.53262e-06
3690.03	-2.24784e-06
3698.59	-1.47527e-06
3707.15	-1.18062e-06
3715.7	-1.32525e-06
3724.26	-2.18878e-06
3732.82	-2.06297e-06
3741.38	-3.43002e-06
3749.94	-3.38822e-06
3758.49	-1.4312e-06
3767.05	-1.2529e-06
3775.61	-1.45072e-06
3784.17	-2.09996e-06
3792.72	-1.47647e-06
3801.28	-1.24394e-05
3809.84	-1.76188e-06
3818.4	-1.52679e-06
3826.95	-2.47116e-06
3835.51	-1.85777e-06
3844.07	-2.54161e-06
3852.63	-4.23036e-06
3861.18	-1.12755e-06
3869.74	-3.09179e-06
3878.3	-1.53997e-06
3886.86	-2.01344e-06
3895.42	-1.56676e-06
3903.97	-5.10941e-06
3912.53	-3.17504e-06
3921.09	-1.63242e-06
3929.65	-1.86377e-06
3938.2	-1.99965e-06
3946.76	-2.15024e-06
3955.32	-3.02885e-06
3963.88	-2.92912e-06
3972.43	-1.40109e-06
