Infrared Spectrum: Pentafluoroethane
Formula: C2 H F5
CAS: 354-33-6
State: gas
Melting point: -102.78 C
Boiling point: -48.55 C
Class: IUPAC A
Instrument: IFS66V (Bruker)
Instrument parameters: KBr Beam Splitter; MCT Detector; Multipass cell
Sampling: 1 L/min Flow
Resolution: 0.1250
Temperature: 23 C
Pressure: 101.3 Pa
Origin: NIST, Analytical Chemistry Division, 301-975-3108
cm-1	(micromol/mol)-1m-1 (base 10)
575.049	7.83641e-05
583.607	0.000108785
592.164	4.00553e-05
600.722	3.52165e-06
609.28	-9.2717e-07
617.837	4.26209e-06
626.395	4.04789e-06
634.953	3.56382e-06
643.51	4.45972e-06
652.068	6.38761e-07
660.625	3.23178e-06
669.183	3.33514e-06
677.741	1.11315e-06
686.298	2.24193e-06
694.856	2.10963e-06
703.414	1.81884e-05
711.971	0.000117082
720.529	0.000341233
729.087	0.000248172
737.644	0.000120569
746.202	1.46076e-05
754.76	1.55897e-06
763.317	3.25332e-06
771.875	3.8817e-06
780.432	4.22974e-06
788.99	6.28739e-06
797.548	3.57665e-06
806.105	2.17481e-06
814.663	1.77414e-06
823.221	3.96052e-06
831.778	4.32024e-06
840.336	1.27218e-05
848.894	6.63784e-05
857.451	0.000196381
866.009	0.00035486
874.567	0.000237124
883.124	6.3208e-05
891.682	1.93745e-05
900.239	1.41698e-05
908.797	7.06939e-06
917.355	5.32618e-06
925.912	7.60552e-06
934.47	8.99059e-06
943.028	7.62179e-06
951.585	3.86662e-06
960.143	1.19279e-06
968.701	8.86731e-07
977.258	1.32065e-06
985.816	2.54051e-06
994.374	1.49106e-06
1002.93	6.75161e-07
1011.49	7.71479e-07
1020.05	1.93031e-06
1028.6	9.1164e-07
1037.16	7.87471e-07
1045.72	1.34902e-06
1054.28	4.80328e-06
1062.83	1.06021e-05
1071.39	2.15542e-05
1079.95	2.57554e-05
1088.51	3.13927e-05
1097.07	6.19347e-05
1105.62	0.000122878
1114.18	0.00016559
1122.74	0.000187239
1131.3	0.000562504
1139.85	0.0017478
1148.41	0.00196119
1156.97	0.000421145
1165.53	8.91238e-05
1174.08	7.25575e-05
1182.64	0.000210857
1191.2	0.00062435
1199.76	0.0021014
1208.31	0.00292289
1216.87	0.00250354
1225.43	0.00204692
1233.99	0.00085972
1242.55	0.000150401
1251.1	5.85584e-05
1259.66	5.81898e-05
1268.22	6.79826e-05
1276.78	7.82446e-05
1285.33	0.000148337
1293.89	0.000571031
1302.45	0.000812898
1311.01	0.000554671
1319.56	0.000453771
1328.12	7.82611e-05
1336.68	1.23004e-05
1345.24	2.99134e-05
1353.79	3.90016e-05
1362.35	3.38447e-05
1370.91	1.98079e-05
1379.47	1.72593e-05
1388.03	2.39442e-05
1396.58	1.76385e-05
1405.14	1.09765e-05
1413.7	6.37366e-06
1422.26	9.30668e-06
1430.81	1.54387e-05
1439.37	2.21684e-05
1447.93	1.97211e-05
1456.49	7.59899e-06
1465.04	2.33643e-06
1473.6	-5.43079e-06
1482.16	1.67395e-06
1490.72	-2.2928e-06
1499.27	1.12181e-06
1507.83	6.88938e-07
1516.39	1.02873e-06
1524.95	1.79807e-07
1533.51	1.51195e-07
1542.06	-8.15692e-06
1550.62	3.02772e-06
1559.18	2.16127e-06
1567.74	3.45875e-06
1576.29	-1.01892e-05
1584.85	3.44626e-06
1593.41	1.71378e-06
1601.97	1.4994e-06
1610.52	7.08336e-07
1619.08	1.21583e-06
1627.64	-7.23251e-08
1636.2	2.12227e-06
1644.75	1.79394e-06
1653.31	-2.17249e-05
1661.87	1.88516e-06
1670.43	1.88713e-06
1678.99	1.8557e-06
1687.54	1.54372e-06
1696.1	-7.22337e-06
1704.66	1.43334e-06
1713.22	4.88431e-06
1721.77	6.50507e-06
1730.33	4.01731e-06
1738.89	2.43175e-06
1747.45	1.40594e-06
1756	3.86298e-07
1764.56	3.20797e-07
1773.12	4.10373e-07
1781.68	2.38682e-06
1790.23	2.58543e-06
1798.79	2.8106e-06
1807.35	2.43353e-06
1815.91	1.02152e-06
1824.47	2.36973e-07
1833.02	9.38578e-07
1841.58	7.1157e-07
1850.14	6.45025e-07
1858.7	1.79425e-06
1867.25	1.79956e-06
1875.81	8.61229e-07
1884.37	3.54284e-07
1892.93	4.79293e-07
1901.48	2.73388e-08
1910.04	9.77358e-08
1918.6	2.89639e-06
1927.16	5.52911e-06
1935.71	6.11473e-06
1944.27	4.58991e-06
1952.83	1.31696e-06
1961.39	-6.45363e-09
1969.95	2.78314e-07
1978.5	-4.97847e-08
1987.06	-6.0097e-07
1995.62	4.68842e-07
2004.18	-2.6593e-08
2012.73	5.49377e-07
2021.29	-4.2809e-07
2029.85	5.95608e-07
2038.41	5.93207e-07
2046.96	1.09527e-06
2055.52	2.32711e-06
2064.08	5.4132e-06
2072.64	3.43197e-06
2081.19	9.97305e-07
2089.75	1.08942e-06
2098.31	4.71272e-07
2106.87	-2.67167e-08
2115.43	6.38059e-07
2123.98	-1.34002e-07
2132.54	1.57299e-07
2141.1	7.51055e-07
2149.66	2.35471e-06
2158.21	4.10025e-06
2166.77	4.79355e-06
2175.33	1.91822e-06
2183.89	6.09301e-07
2192.44	2.51215e-07
2201	4.00125e-07
2209.56	-1.941e-07
2218.12	-8.29987e-08
2226.67	5.79154e-09
2235.23	1.28623e-06
2243.79	2.47116e-06
2252.35	4.59928e-06
2260.9	5.78345e-06
2269.46	7.67582e-06
2278.02	1.25885e-05
2286.58	1.03874e-05
2295.14	3.18556e-06
2303.69	2.39242e-06
2312.25	1.52961e-06
2320.81	-6.24424e-07
2329.37	3.30882e-07
2337.92	-1.09441e-06
2346.48	6.13244e-07
2355.04	8.81663e-07
2363.6	-3.46364e-08
2372.15	3.70615e-07
2380.71	-3.15955e-07
2389.27	1.94307e-06
2397.83	4.5595e-06
2406.38	6.32035e-06
2414.94	6.45275e-06
2423.5	2.75736e-06
2432.06	1.38183e-06
2440.62	1.53037e-06
2449.17	1.12396e-06
2457.73	-2.66822e-07
2466.29	-9.12902e-07
2474.85	-5.90187e-07
2483.4	1.10032e-06
2491.96	3.03839e-06
2500.52	5.38352e-06
2509.08	3.66516e-06
2517.63	2.02624e-06
2526.19	-8.98816e-08
2534.75	1.87192e-07
2543.31	-5.01896e-07
2551.86	-8.50199e-07
2560.42	1.25476e-06
2568.98	1.82312e-06
2577.54	1.34655e-06
2586.1	8.28703e-07
2594.65	1.53416e-06
2603.21	1.82122e-06
2611.77	1.04044e-06
2620.33	-6.40125e-08
2628.88	-3.93064e-07
2637.44	-5.69302e-07
2646	6.94657e-08
2654.56	6.10691e-07
2663.11	4.43391e-07
2671.67	8.68003e-09
2680.23	1.17009e-06
2688.79	1.25567e-06
2697.34	1.10432e-07
2705.9	1.128e-07
2714.46	-5.56457e-07
2723.02	-1.18782e-06
2731.58	2.0365e-08
2740.13	-2.75938e-07
2748.69	-4.18297e-07
2757.25	3.06235e-07
2765.81	8.29412e-07
2774.36	7.24924e-08
2782.92	5.92767e-07
2791.48	-2.51452e-07
2800.04	6.87596e-07
2808.59	1.16151e-07
2817.15	-4.91007e-08
2825.71	-7.53449e-07
2834.27	1.52968e-06
2842.82	4.4989e-06
2851.38	1.8623e-06
2859.94	2.15727e-06
2868.5	1.3749e-06
2877.06	-2.69066e-07
2885.61	-8.48242e-07
2894.17	2.25961e-07
2902.73	1.79308e-07
2911.29	-1.1319e-07
2919.84	-1.31488e-06
2928.4	-5.08011e-07
2936.96	9.02628e-07
2945.52	1.02924e-06
2954.07	2.86401e-07
2962.63	8.27513e-07
2971.19	2.46286e-06
2979.75	1.18877e-05
2988.3	4.80103e-05
2996.86	7.00675e-05
3005.42	6.26226e-05
3013.98	4.22825e-05
3022.54	6.82962e-06
3031.09	2.06793e-07
3039.65	8.07985e-07
3048.21	-8.52702e-07
3056.77	-5.95215e-07
3065.32	1.9561e-08
3073.88	-8.57071e-07
3082.44	-5.86691e-07
3091	6.24587e-07
3099.55	-1.02499e-06
3108.11	-9.09973e-07
3116.67	-8.69182e-07
3125.23	2.46264e-07
3133.78	-7.47548e-07
3142.34	-2.93247e-07
3150.9	-9.65266e-07
3159.46	-8.63856e-08
3168.02	-2.0162e-07
3176.57	1.20587e-06
3185.13	-1.96958e-06
3193.69	-4.01333e-08
3202.25	-9.74783e-07
3210.8	-1.22455e-06
3219.36	-1.41648e-06
3227.92	5.72511e-07
3236.48	-1.39059e-07
3245.03	-1.38216e-06
3253.59	-1.73943e-07
3262.15	-1.03061e-06
3270.71	-2.51466e-07
3279.26	5.37554e-07
3287.82	-5.33091e-07
3296.38	-2.10714e-07
3304.94	-5.78121e-07
3313.5	-1.24867e-06
3322.05	-1.53658e-06
3330.61	1.04211e-07
3339.17	-2.84662e-07
3347.73	-6.54778e-07
3356.28	-2.5346e-07
3364.84	1.0618e-06
3373.4	-3.80201e-07
3381.96	8.92835e-07
3390.51	-7.52991e-07
3399.07	5.52604e-07
3407.63	-1.41615e-06
3416.19	-2.75039e-06
3424.74	-1.7291e-06
3433.3	-2.04708e-07
3441.86	4.5254e-07
3450.42	-3.31602e-07
3458.98	-1.06387e-06
3467.53	-2.62415e-06
3476.09	-2.95427e-06
3484.65	-2.61848e-06
3493.21	-2.81239e-07
3501.76	8.95331e-07
3510.32	-2.28261e-06
3518.88	-1.23543e-06
3527.44	-1.40197e-06
3535.99	-1.01665e-06
3544.55	-6.54371e-07
3553.11	-5.72773e-07
3561.67	-1.40625e-06
3570.22	2.51124e-08
3578.78	-1.35096e-06
3587.34	-1.40101e-06
3595.9	-1.71693e-06
3604.46	-1.4765e-06
3613.01	-2.03409e-06
3621.57	-6.4727e-07
3630.13	-2.25099e-06
3638.69	-1.25891e-06
3647.24	-4.25606e-06
3655.8	-2.87044e-06
3664.36	-1.55226e-06
3672.92	-2.65558e-06
3681.47	-1.03176e-06
3690.03	-2.46743e-06
3698.59	-1.32168e-06
3707.15	-1.27731e-06
3715.7	-1.44421e-06
3724.26	-2.07983e-06
3732.82	-1.56378e-06
3741.38	-4.11951e-06
3749.94	-3.45293e-06
3758.49	-1.37587e-06
3767.05	-9.5723e-07
3775.61	-8.0267e-07
3784.17	-1.72386e-06
3792.72	-1.05942e-06
3801.28	-1.20761e-05
3809.84	-1.78314e-06
3818.4	-1.06871e-06
3826.95	-2.18593e-06
3835.51	-1.40704e-06
3844.07	-2.80415e-06
3852.63	-4.7435e-06
3861.18	-7.52503e-07
3869.74	-2.84802e-06
3878.3	-9.16773e-07
3886.86	-2.15392e-06
3895.42	-1.32713e-06
3903.97	-4.81782e-06
3912.53	-3.58556e-06
3921.09	-1.63547e-06
3929.65	-2.34075e-06
3938.2	-2.32358e-06
3946.76	-1.92612e-06
3955.32	-3.47386e-06
3963.88	-2.43322e-06
3972.43	-1.96747e-06
