Infrared Spectrum: Pentafluoroethane
Formula: C2 H F5
CAS: 354-33-6
State: gas
Melting point: -102.78 C
Boiling point: -48.55 C
Class: IUPAC A
Instrument: IFS66V (Bruker)
Instrument parameters: KBr Beam Splitter; MCT Detector; Multipass cell
Sampling: 1 L/min Flow
Resolution: 1.9290
Temperature: 23 C
Pressure: 101.3 Pa
Origin: NIST, Analytical Chemistry Division, 301-975-3108
cm-1	(micromol/mol)-1m-1 (base 10)
575.652	8.18689e-05
584.33	0.000116604
593.008	3.20002e-05
601.687	4.49415e-06
610.365	1.93359e-06
619.043	1.56166e-06
627.721	1.59861e-06
636.399	1.25722e-06
645.077	2.25163e-06
653.756	2.29923e-06
662.434	2.1938e-06
671.112	1.73758e-06
679.79	9.44188e-07
688.468	6.19764e-07
697.146	3.79218e-06
705.825	3.46748e-05
714.503	0.000143509
723.181	0.000210711
731.859	0.00017703
740.537	7.16817e-05
749.215	6.7018e-06
757.894	2.22418e-06
766.572	2.54136e-06
775.25	3.50525e-06
783.928	4.85187e-06
792.606	4.58983e-06
801.284	3.35568e-06
809.963	3.04753e-06
818.641	2.632e-06
827.319	4.0376e-06
835.997	6.20299e-06
844.675	2.88502e-05
853.354	0.000136311
862.032	0.000252502
870.71	0.000214148
879.388	0.000144476
888.066	2.57144e-05
896.744	1.48041e-05
905.423	1.11815e-05
914.101	4.42534e-06
922.779	5.83989e-06
931.457	7.55916e-06
940.135	8.14656e-06
948.813	4.3322e-06
957.492	1.70095e-06
966.17	1.43487e-06
974.848	1.97365e-06
983.526	2.32887e-06
992.204	1.78056e-06
1000.88	1.83257e-06
1009.56	1.55369e-06
1018.24	1.20361e-06
1026.92	9.21695e-07
1035.6	8.65831e-07
1044.27	1.58269e-06
1052.95	2.80903e-06
1061.63	8.63206e-06
1070.31	1.83239e-05
1078.99	2.50027e-05
1087.66	3.02313e-05
1096.34	5.78732e-05
1105.02	0.000117898
1113.7	0.000162389
1122.38	0.000186515
1131.06	0.00054061
1139.73	0.00173557
1148.41	0.00194753
1157.09	0.000412631
1165.77	8.61397e-05
1174.45	7.47815e-05
1183.12	0.000223966
1191.8	0.000655404
1200.48	0.00168991
1209.16	0.00290441
1217.84	0.00254869
1226.51	0.00175254
1235.19	0.00069924
1243.87	0.000118747
1252.55	5.7718e-05
1261.23	6.02676e-05
1269.91	6.96321e-05
1278.58	8.82048e-05
1287.26	0.000198177
1295.94	0.000705947
1304.62	0.000880164
1313.3	0.000537564
1321.97	0.000328808
1330.65	3.71099e-05
1339.33	1.50933e-05
1348.01	3.12101e-05
1356.69	5.18353e-05
1365.37	2.99869e-05
1374.04	1.69636e-05
1382.72	1.76555e-05
1391.4	2.69581e-05
1400.08	1.44385e-05
1408.76	8.08211e-06
1417.43	6.55405e-06
1426.11	1.25023e-05
1434.79	1.8585e-05
1443.47	2.67524e-05
1452.15	2.17956e-05
1460.83	1.0842e-05
1469.5	3.01023e-06
1478.18	1.63634e-06
1486.86	1.25562e-07
1495.54	-8.13889e-07
1504.22	1.09209e-06
1512.89	1.36545e-06
1521.57	-2.21729e-06
1530.25	1.75121e-06
1538.93	-4.00505e-06
1547.61	2.8023e-06
1556.29	3.40882e-06
1564.96	3.29209e-06
1573.64	3.78859e-06
1582.32	3.78495e-06
1591	2.36114e-06
1599.68	1.44259e-06
1608.35	8.72208e-07
1617.03	-3.25138e-06
1625.71	1.40796e-06
1634.39	5.40436e-07
1643.07	2.46843e-06
1651.75	-2.45815e-06
1660.42	1.60661e-06
1669.1	-6.92904e-07
1677.78	1.71996e-06
1686.46	8.33297e-07
1695.14	-2.96337e-06
1703.81	1.65476e-06
1712.49	5.12723e-06
1721.17	7.00969e-06
1729.85	4.36311e-06
1738.53	1.83624e-06
1747.21	5.69451e-07
1755.88	2.75043e-07
1764.56	1.25115e-06
1773.24	-3.05776e-07
1781.92	2.22162e-06
1790.6	2.39077e-06
1799.27	2.51234e-06
1807.95	2.25711e-06
1816.63	1.18986e-06
1825.31	-1.49925e-07
1833.99	7.26074e-07
1842.67	3.2055e-07
1851.34	5.40577e-07
1860.02	1.26895e-06
1868.7	6.80182e-07
1877.38	9.93059e-07
1886.06	2.73479e-07
1894.73	3.48256e-08
1903.41	2.90123e-07
1912.09	1.18952e-06
1920.77	2.96474e-06
1929.45	5.76505e-06
1938.13	6.02819e-06
1946.8	3.82662e-06
1955.48	1.61461e-06
1964.16	3.83275e-07
1972.84	1.48503e-07
1981.52	2.13679e-07
1990.19	8.88121e-08
1998.87	2.29177e-07
2007.55	3.97441e-07
2016.23	3.70164e-07
2024.91	3.83929e-07
2033.59	4.73927e-07
2042.26	8.98405e-07
2050.94	1.9807e-06
2059.62	3.85918e-06
2068.3	3.32248e-06
2076.98	2.57802e-06
2085.65	1.43809e-06
2094.33	7.3447e-07
2103.01	5.40697e-07
2111.69	4.99164e-07
2120.37	3.16556e-07
2129.04	1.43719e-07
2137.72	4.84346e-07
2146.4	1.39967e-06
2155.08	3.37582e-06
2163.76	4.24877e-06
2172.44	3.27745e-06
2181.11	1.67401e-06
2189.79	4.72425e-07
2198.47	-2.799e-08
2207.15	1.53327e-07
2215.83	3.42472e-07
2224.5	3.86476e-07
2233.18	7.8702e-07
2241.86	2.00023e-06
2250.54	4.19268e-06
2259.22	5.98206e-06
2267.9	7.42572e-06
2276.57	1.2842e-05
2285.25	1.14587e-05
2293.93	3.6565e-06
2302.61	1.92717e-06
2311.29	7.73883e-07
2319.96	-1.51078e-07
2328.64	-1.83498e-06
2337.32	-2.0689e-06
2346	-6.74208e-07
2354.68	-1.90115e-06
2363.36	-3.31977e-06
2372.03	-1.27804e-06
2380.71	2.69608e-07
2389.39	2.12261e-06
2398.07	5.2221e-06
2406.75	6.67487e-06
2415.42	6.12084e-06
2424.1	2.118e-06
2432.78	1.21551e-06
2441.46	1.28949e-06
2450.14	8.97375e-07
2458.82	-2.56254e-07
2467.49	-6.72295e-07
2476.17	-4.83892e-07
2484.85	1.14125e-06
2493.53	3.64187e-06
2502.21	5.89923e-06
2510.88	4.05049e-06
2519.56	1.15104e-06
2528.24	1.4469e-07
2536.92	-4.15666e-08
2545.6	5.84938e-08
2554.28	3.03415e-07
2562.95	1.22144e-06
2571.63	1.2107e-06
2580.31	8.22249e-07
2588.99	6.20702e-07
2597.67	1.92084e-06
2606.34	2.17264e-06
2615.02	-7.85666e-07
2623.7	-5.08e-07
2632.38	-6.75496e-07
2641.06	1.32092e-07
2649.74	6.97691e-07
2658.41	1.27422e-06
2667.09	1.16136e-06
2675.77	9.5492e-07
2684.45	5.34146e-07
2693.13	2.15302e-07
2701.8	-1.53396e-07
2710.48	-2.99108e-07
2719.16	-3.98401e-07
2727.84	-2.49742e-07
2736.52	9.18824e-08
2745.2	1.10447e-07
2753.87	-3.14154e-07
2762.55	-4.40266e-07
2771.23	3.07814e-07
2779.91	4.35169e-07
2788.59	5.45077e-07
2797.26	4.8284e-07
2805.94	-3.81507e-08
2814.62	1.53716e-07
2823.3	1.18785e-07
2831.98	1.42818e-06
2840.66	2.4974e-06
2849.33	2.57049e-06
2858.01	1.41024e-06
2866.69	8.14089e-07
2875.37	4.71101e-07
2884.05	-3.34287e-08
2892.72	-3.74234e-07
2901.4	-5.27434e-07
2910.08	-4.06604e-07
2918.76	-5.03813e-07
2927.44	-6.5611e-07
2936.11	1.01643e-08
2944.79	-1.5723e-07
2953.47	2.77717e-08
2962.15	-2.23916e-07
2970.83	1.86914e-06
2979.51	1.1126e-05
2988.18	4.68651e-05
2996.86	7.13157e-05
3005.54	6.26253e-05
3014.22	4.1514e-05
3022.9	6.05187e-06
3031.57	1.55528e-07
3040.25	-1.99528e-07
3048.93	-2.66902e-07
3057.61	6.73303e-08
3066.29	2.91789e-07
3074.97	3.57413e-07
3083.64	-2.67844e-07
3092.32	-3.30183e-07
3101	-3.65016e-07
3109.68	-5.31042e-07
3118.36	-3.17985e-07
3127.03	-4.71013e-07
3135.71	2.89359e-08
3144.39	-8.89321e-08
3153.07	-3.97473e-07
3161.75	-5.59047e-07
3170.43	-4.00897e-07
3179.1	-4.82698e-07
3187.78	-1.93089e-07
3196.46	-2.74396e-07
3205.14	-9.046e-08
3213.82	-3.23857e-07
3222.49	-2.95521e-07
3231.17	-1.16125e-07
3239.85	1.06594e-07
3248.53	6.57478e-08
3257.21	-6.59486e-07
3265.89	-5.45794e-08
3274.56	2.44558e-07
3283.24	-8.49326e-07
3291.92	-5.19045e-07
3300.6	-8.43556e-07
3309.28	-6.86163e-07
3317.95	-5.04715e-07
3326.63	-8.47096e-07
3335.31	-3.5905e-07
3343.99	-8.84755e-07
3352.67	-8.40377e-07
3361.35	-7.05687e-07
3370.02	-3.59676e-07
3378.7	-5.45539e-07
3387.38	-4.96981e-07
3396.06	-9.16591e-07
3404.74	-5.60699e-07
3413.41	-1.02906e-06
3422.09	-1.03252e-06
3430.77	-1.19124e-06
3439.45	-1.06688e-06
3448.13	-8.35898e-07
3456.81	-1.00962e-06
3465.48	-1.3024e-06
3474.16	-1.1626e-06
3482.84	-1.49795e-06
3491.52	-1.19274e-06
3500.2	-1.27391e-06
3508.87	-9.31768e-07
3517.55	-1.45335e-06
3526.23	-1.3304e-06
3534.91	-1.3536e-06
3543.59	-1.30944e-06
3552.27	-1.59241e-06
3560.94	-1.12793e-06
3569.62	-1.22112e-06
3578.3	-1.06769e-06
3586.98	-2.46522e-06
3595.66	-1.71778e-06
3604.33	-1.36045e-06
3613.01	-2.36435e-06
3621.69	-2.04968e-06
3630.37	-3.25071e-06
3639.05	-1.96142e-06
3647.73	-3.43647e-06
3656.4	-3.83534e-06
3665.08	-1.64283e-06
3673.76	-2.45927e-06
3682.44	-1.86791e-06
3691.12	-3.22048e-06
3699.79	-2.05287e-06
3708.47	-2.43241e-06
3717.15	-1.34061e-06
3725.83	-2.41083e-06
3734.51	-3.45958e-06
3743.19	-3.59491e-06
3751.86	-6.38369e-06
3760.54	-2.49899e-06
3769.22	-2.75735e-06
3777.9	-1.50862e-06
3786.58	-1.85442e-06
3795.25	-2.10597e-06
3803.93	-2.11876e-06
3812.61	-1.75365e-06
3821.29	-4.24815e-06
3829.97	-2.16853e-06
3838.64	-4.58911e-06
3847.32	-1.55824e-06
3856	-1.88543e-06
3864.68	-2.64052e-06
3873.36	-2.44668e-06
3882.04	-2.18305e-06
3890.71	-2.98294e-06
3899.39	-3.59158e-06
3908.07	-2.08672e-06
3916.75	-2.69756e-06
3925.43	-2.23497e-06
3934.1	-2.24508e-06
3942.78	-2.13934e-06
3951.46	-1.81444e-06
3960.14	-2.07682e-06
3968.82	-1.60691e-06
