Infrared Spectrum: Pentafluoroethane
Formula: C2 H F5
CAS: 354-33-6
State: gas
Melting point: -102.78 C
Boiling point: -48.55 C
Class: IUPAC A
Instrument: IFS66V (Bruker)
Instrument parameters: KBr Beam Splitter; MCT Detector; Multipass cell
Sampling: 1 L/min Flow
Resolution: 0.1250
Temperature: 23 C
Pressure: 101.3 Pa
Origin: NIST, Analytical Chemistry Division, 301-975-3108
cm-1	(micromol/mol)-1m-1 (base 10)
575.049	7.79749e-05
583.607	0.000108689
592.164	4.02644e-05
600.722	3.32164e-06
609.28	-1.00641e-06
617.837	4.775e-06
626.395	4.271e-06
634.953	3.81643e-06
643.51	4.76661e-06
652.068	3.69181e-07
660.625	3.31612e-06
669.183	3.53162e-06
677.741	1.0403e-06
686.298	2.43896e-06
694.856	2.05643e-06
703.414	1.80047e-05
711.971	0.00011739
720.529	0.000345142
729.087	0.000248434
737.644	0.000120652
746.202	1.43521e-05
754.76	1.31335e-06
763.317	3.31887e-06
771.875	3.91626e-06
780.432	4.23083e-06
788.99	6.53987e-06
797.548	3.41962e-06
806.105	2.0455e-06
814.663	1.55427e-06
823.221	4.01553e-06
831.778	4.36379e-06
840.336	1.25724e-05
848.894	6.61685e-05
857.451	0.000196477
866.009	0.00035507
874.567	0.000237513
883.124	6.29002e-05
891.682	1.92928e-05
900.239	1.41628e-05
908.797	6.99898e-06
917.355	5.36604e-06
925.912	7.59295e-06
934.47	8.93788e-06
943.028	7.63257e-06
951.585	3.88165e-06
960.143	1.08534e-06
968.701	8.37179e-07
977.258	1.25256e-06
985.816	2.54949e-06
994.374	1.41798e-06
1002.93	5.50804e-07
1011.49	6.34923e-07
1020.05	1.94721e-06
1028.6	8.4109e-07
1037.16	8.35622e-07
1045.72	1.23272e-06
1054.28	4.86155e-06
1062.83	1.0618e-05
1071.39	2.1618e-05
1079.95	2.56241e-05
1088.51	3.13367e-05
1097.07	6.16864e-05
1105.62	0.000122733
1114.18	0.000165693
1122.74	0.000186443
1131.3	0.000561519
1139.85	0.00175044
1148.41	0.00196555
1156.97	0.000419609
1165.53	8.80835e-05
1174.08	7.1526e-05
1182.64	0.000209858
1191.2	0.000623329
1199.76	0.00211217
1208.31	0.00292881
1216.87	0.00250493
1225.43	0.00204918
1233.99	0.000859309
1242.55	0.00014903
1251.1	5.77169e-05
1259.66	5.76811e-05
1268.22	6.75457e-05
1276.78	7.78155e-05
1285.33	0.000147648
1293.89	0.000571392
1302.45	0.000813506
1311.01	0.000548006
1319.56	0.000454099
1328.12	7.75937e-05
1336.68	1.18764e-05
1345.24	2.98065e-05
1353.79	3.89883e-05
1362.35	3.37989e-05
1370.91	1.96827e-05
1379.47	1.7241e-05
1388.03	2.40278e-05
1396.58	1.75749e-05
1405.14	1.08936e-05
1413.7	6.27573e-06
1422.26	9.20253e-06
1430.81	1.54233e-05
1439.37	2.22432e-05
1447.93	1.93028e-05
1456.49	7.09723e-06
1465.04	2.2701e-06
1473.6	-6.01494e-06
1482.16	1.68886e-06
1490.72	-2.49966e-06
1499.27	1.1821e-06
1507.83	7.22516e-07
1516.39	1.03787e-06
1524.95	1.33005e-07
1533.51	2.61987e-07
1542.06	-8.78678e-06
1550.62	3.0579e-06
1559.18	2.42899e-06
1567.74	3.42211e-06
1576.29	-1.09782e-05
1584.85	3.41393e-06
1593.41	1.65681e-06
1601.97	1.50006e-06
1610.52	6.33566e-07
1619.08	1.25694e-06
1627.64	-9.94711e-08
1636.2	2.27827e-06
1644.75	1.77807e-06
1653.31	-2.33526e-05
1661.87	1.95174e-06
1670.43	1.9409e-06
1678.99	1.90438e-06
1687.54	1.56546e-06
1696.1	-7.04464e-06
1704.66	1.55214e-06
1713.22	4.8964e-06
1721.77	6.49145e-06
1730.33	4.04918e-06
1738.89	2.49453e-06
1747.45	1.51987e-06
1756	3.86516e-07
1764.56	2.20759e-07
1773.12	5.1353e-07
1781.68	2.42405e-06
1790.23	2.5491e-06
1798.79	2.81012e-06
1807.35	2.45602e-06
1815.91	9.74215e-07
1824.47	2.23491e-07
1833.02	9.31852e-07
1841.58	7.16332e-07
1850.14	6.32791e-07
1858.7	1.832e-06
1867.25	1.81139e-06
1875.81	8.27677e-07
1884.37	3.4034e-07
1892.93	4.58634e-07
1901.48	-1.19032e-08
1910.04	4.15921e-08
1918.6	2.95663e-06
1927.16	5.60185e-06
1935.71	6.11311e-06
1944.27	4.60889e-06
1952.83	1.2559e-06
1961.39	-8.27113e-08
1969.95	2.89202e-07
1978.5	-8.02921e-08
1987.06	-6.58369e-07
1995.62	4.86904e-07
2004.18	-4.97119e-08
2012.73	5.86975e-07
2021.29	-5.1218e-07
2029.85	5.85964e-07
2038.41	5.899e-07
2046.96	1.1031e-06
2055.52	2.28018e-06
2064.08	5.45413e-06
2072.64	3.4616e-06
2081.19	9.25384e-07
2089.75	1.10868e-06
2098.31	4.69529e-07
2106.87	-7.537e-08
2115.43	6.26908e-07
2123.98	-1.74863e-07
2132.54	1.54851e-07
2141.1	7.22367e-07
2149.66	2.37647e-06
2158.21	4.15602e-06
2166.77	4.74507e-06
2175.33	1.90367e-06
2183.89	6.02011e-07
2192.44	2.8058e-07
2201	4.47458e-07
2209.56	-2.25761e-07
2218.12	-9.69391e-08
2226.67	-7.9761e-08
2235.23	1.3273e-06
2243.79	2.43946e-06
2252.35	4.5923e-06
2260.9	5.75133e-06
2269.46	7.63781e-06
2278.02	1.26016e-05
2286.58	1.0433e-05
2295.14	3.194e-06
2303.69	2.43639e-06
2312.25	1.58411e-06
2320.81	-5.48748e-07
2329.37	4.43857e-07
2337.92	-7.88915e-07
2346.48	6.99532e-07
2355.04	1.05482e-06
2363.6	1.71072e-07
2372.15	5.30228e-07
2380.71	-3.69923e-07
2389.27	1.92787e-06
2397.83	4.50092e-06
2406.38	6.29994e-06
2414.94	6.47883e-06
2423.5	2.7818e-06
2432.06	1.39188e-06
2440.62	1.56119e-06
2449.17	1.11451e-06
2457.73	-3.14184e-07
2466.29	-9.57306e-07
2474.85	-6.14198e-07
2483.4	1.14578e-06
2491.96	3.07458e-06
2500.52	5.39821e-06
2509.08	3.71442e-06
2517.63	2.04964e-06
2526.19	-1.40005e-07
2534.75	1.90026e-07
2543.31	-5.05312e-07
2551.86	-9.08984e-07
2560.42	1.24103e-06
2568.98	1.88381e-06
2577.54	1.37415e-06
2586.1	8.94483e-07
2594.65	1.50072e-06
2603.21	1.80933e-06
2611.77	9.91979e-07
2620.33	-6.30848e-08
2628.88	-3.63797e-07
2637.44	-6.20124e-07
2646	-4.73836e-08
2654.56	5.60353e-07
2663.11	3.72666e-07
2671.67	-1.62847e-07
2680.23	1.16753e-06
2688.79	1.25585e-06
2697.34	1.0682e-07
2705.9	1.517e-07
2714.46	-5.42731e-07
2723.02	-1.33049e-06
2731.58	2.08743e-08
2740.13	-3.08439e-07
2748.69	-5.0004e-07
2757.25	3.99496e-07
2765.81	8.97954e-07
2774.36	1.08599e-07
2782.92	5.89871e-07
2791.48	-3.10073e-07
2800.04	7.29323e-07
2808.59	1.23598e-07
2817.15	-7.42022e-08
2825.71	-8.72441e-07
2834.27	1.52248e-06
2842.82	4.67544e-06
2851.38	1.80514e-06
2859.94	2.21472e-06
2868.5	1.46202e-06
2877.06	-3.46084e-07
2885.61	-8.08854e-07
2894.17	2.91625e-07
2902.73	2.36518e-07
2911.29	-1.78785e-07
2919.84	-1.3556e-06
2928.4	-5.34095e-07
2936.96	9.34067e-07
2945.52	1.1391e-06
2954.07	2.59848e-07
2962.63	8.75508e-07
2971.19	2.51886e-06
2979.75	1.18622e-05
2988.3	4.8003e-05
2996.86	6.99885e-05
3005.42	6.25152e-05
3013.98	4.2196e-05
3022.54	6.83312e-06
3031.09	1.62931e-07
3039.65	8.7768e-07
3048.21	-9.28323e-07
3056.77	-6.42369e-07
3065.32	2.11253e-08
3073.88	-9.74994e-07
3082.44	-6.33722e-07
3091	7.51361e-07
3099.55	-1.10674e-06
3108.11	-9.46109e-07
3116.67	-9.26231e-07
3125.23	2.74083e-07
3133.78	-7.83775e-07
3142.34	-2.86375e-07
3150.9	-9.91652e-07
3159.46	-9.96057e-08
3168.02	-2.38217e-07
3176.57	1.27602e-06
3185.13	-2.10597e-06
3193.69	-5.3921e-08
3202.25	-1.02723e-06
3210.8	-1.30162e-06
3219.36	-1.56851e-06
3227.92	7.46584e-07
3236.48	-1.40314e-07
3245.03	-1.53096e-06
3253.59	-1.81313e-07
3262.15	-9.86231e-07
3270.71	-2.44878e-07
3279.26	6.04666e-07
3287.82	-5.67953e-07
3296.38	-2.39192e-07
3304.94	-5.35604e-07
3313.5	-1.38118e-06
3322.05	-1.66959e-06
3330.61	6.85198e-08
3339.17	-2.93822e-07
3347.73	-6.76853e-07
3356.28	-1.89731e-07
3364.84	1.22847e-06
3373.4	-3.30649e-07
3381.96	1.00962e-06
3390.51	-8.34094e-07
3399.07	7.08823e-07
3407.63	-1.47966e-06
3416.19	-2.99179e-06
3424.74	-1.71941e-06
3433.3	-1.00759e-07
3441.86	6.30215e-07
3450.42	-2.86637e-07
3458.98	-1.17176e-06
3467.53	-2.80489e-06
3476.09	-3.0537e-06
3484.65	-2.66774e-06
3493.21	-1.52723e-07
3501.76	1.03931e-06
3510.32	-2.31982e-06
3518.88	-1.23964e-06
3527.44	-1.37267e-06
3535.99	-9.25998e-07
3544.55	-6.22259e-07
3553.11	-4.72974e-07
3561.67	-1.54474e-06
3570.22	6.29502e-08
3578.78	-1.3787e-06
3587.34	-1.37989e-06
3595.9	-1.76213e-06
3604.46	-1.59342e-06
3613.01	-2.00994e-06
3621.57	-4.257e-07
3630.13	-2.11158e-06
3638.69	-1.21113e-06
3647.24	-4.2706e-06
3655.8	-2.82793e-06
3664.36	-1.56129e-06
3672.92	-2.73001e-06
3681.47	-9.63418e-07
3690.03	-2.52237e-06
3698.59	-1.18784e-06
3707.15	-1.18416e-06
3715.7	-1.43506e-06
3724.26	-2.15926e-06
3732.82	-1.52622e-06
3741.38	-4.24569e-06
3749.94	-3.20646e-06
3758.49	-1.29263e-06
3767.05	-8.95236e-07
3775.61	-7.08885e-07
3784.17	-1.73387e-06
3792.72	-9.6552e-07
3801.28	-1.24598e-05
3809.84	-1.77276e-06
3818.4	-1.07564e-06
3826.95	-2.08917e-06
3835.51	-1.31631e-06
3844.07	-2.78577e-06
3852.63	-4.79372e-06
3861.18	-6.15918e-07
3869.74	-2.73045e-06
3878.3	-8.66038e-07
3886.86	-2.17053e-06
3895.42	-1.29522e-06
3903.97	-4.86237e-06
3912.53	-3.75039e-06
3921.09	-1.58162e-06
3929.65	-2.24223e-06
3938.2	-2.20739e-06
3946.76	-1.86097e-06
3955.32	-3.59532e-06
3963.88	-2.48431e-06
3972.43	-1.91352e-06
