Infrared Spectrum: Pentafluoroethane
Formula: C2 H F5
CAS: 354-33-6
State: gas
Melting point: -102.78 C
Boiling point: -48.55 C
Class: IUPAC A
Instrument: IFS66V (Bruker)
Instrument parameters: KBr Beam Splitter; MCT Detector; Multipass cell
Sampling: 1 L/min Flow
Resolution: 0.4820
Temperature: 23 C
Pressure: 101.3 Pa
Origin: NIST, Analytical Chemistry Division, 301-975-3108
cm-1	(micromol/mol)-1m-1 (base 10)
575.17	7.96597e-05
583.848	0.000109032
592.526	3.82901e-05
601.205	4.28847e-06
609.883	5.57945e-07
618.561	2.80827e-06
627.239	3.2463e-06
635.917	1.13811e-06
644.595	9.19865e-07
653.274	2.06162e-06
661.952	4.07088e-07
670.63	1.18278e-06
679.308	-3.63228e-06
687.986	2.38021e-07
696.664	4.06761e-06
705.343	3.22086e-05
714.021	0.000141233
722.699	0.000240461
731.377	0.000181284
740.055	7.86682e-05
748.733	8.07677e-06
757.412	1.63545e-06
766.09	2.2548e-06
774.768	3.40441e-06
783.446	4.63104e-06
792.124	4.11221e-06
800.802	3.15577e-06
809.481	2.523e-06
818.159	1.6057e-06
826.837	3.0892e-06
835.515	5.50802e-06
844.193	2.56093e-05
852.872	0.000127214
861.55	0.000247528
870.228	0.000205765
878.906	0.000156805
887.584	2.68367e-05
896.262	1.52585e-05
904.941	1.09998e-05
913.619	3.9053e-06
922.297	5.51316e-06
930.975	7.04135e-06
939.653	8.99623e-06
948.331	4.92872e-06
957.01	2.05522e-06
965.688	1.76025e-06
974.366	1.91542e-06
983.044	2.57753e-06
991.722	1.64963e-06
1000.4	2.08505e-06
1009.08	7.29261e-07
1017.76	5.13166e-07
1026.43	8.87397e-07
1035.11	5.97594e-07
1043.79	1.23467e-06
1052.47	1.95643e-06
1061.15	8.07199e-06
1069.83	1.89354e-05
1078.5	2.42742e-05
1087.18	2.91538e-05
1095.86	5.56104e-05
1104.54	0.000114226
1113.22	0.000160582
1121.89	0.000182903
1130.57	0.000492096
1139.25	0.00168668
1147.93	0.00194426
1156.61	0.00046838
1165.29	9.10089e-05
1173.96	7.21376e-05
1182.64	0.000209926
1191.32	0.00062835
1200	0.002005
1208.68	0.00293407
1217.35	0.00251196
1226.03	0.00185655
1234.71	0.000759767
1243.39	0.000130443
1252.07	5.98738e-05
1260.75	6.00666e-05
1269.42	6.97341e-05
1278.1	8.43998e-05
1286.78	0.000180473
1295.46	0.000679502
1304.14	0.000830355
1312.81	0.000542063
1321.49	0.000355981
1330.17	4.2361e-05
1338.85	1.47337e-05
1347.53	3.1602e-05
1356.21	4.98406e-05
1364.88	3.04839e-05
1373.56	1.79386e-05
1382.24	1.72484e-05
1390.92	2.54668e-05
1399.6	1.54909e-05
1408.27	7.99828e-06
1416.95	6.17953e-06
1425.63	1.27635e-05
1434.31	1.82311e-05
1442.99	2.67872e-05
1451.67	2.12033e-05
1460.34	1.15897e-05
1469.02	3.20455e-06
1477.7	1.77275e-06
1486.38	3.45517e-07
1495.06	1.64849e-06
1503.73	2.6059e-06
1512.41	-1.64797e-06
1521.09	-7.46409e-06
1529.77	1.79522e-06
1538.45	-3.54502e-07
1547.13	2.59738e-06
1555.8	3.7657e-06
1564.48	4.15316e-06
1573.16	3.33211e-06
1581.84	4.60908e-06
1590.52	2.87955e-06
1599.19	1.10268e-06
1607.87	6.19782e-07
1616.55	-1.11152e-05
1625.23	1.05304e-06
1633.91	1.84709e-06
1642.59	2.41438e-06
1651.26	5.09313e-07
1659.94	1.19612e-06
1668.62	1.4812e-06
1677.3	1.94348e-06
1685.98	8.02437e-07
1694.65	1.61121e-06
1703.33	1.91916e-06
1712.01	4.78673e-06
1720.69	7.32551e-06
1729.37	4.55584e-06
1738.05	2.91553e-06
1746.72	1.30188e-06
1755.4	1.11396e-06
1764.08	1.62418e-06
1772.76	-1.06973e-05
1781.44	2.20225e-06
1790.11	2.74459e-06
1798.79	3.12605e-06
1807.47	2.44202e-06
1816.15	1.77933e-06
1824.83	4.67481e-07
1833.5	1.00278e-06
1842.18	3.23991e-07
1850.86	6.77923e-07
1859.54	1.05878e-06
1868.22	1.53806e-06
1876.9	1.4367e-06
1885.57	8.70404e-08
1894.25	2.59677e-07
1902.93	3.96382e-07
1911.61	1.47548e-06
1920.29	2.68342e-06
1928.96	5.78206e-06
1937.64	6.52348e-06
1946.32	3.94066e-06
1955	1.99308e-06
1963.68	-1.16762e-07
1972.36	4.28323e-07
1981.03	-8.91795e-08
1989.71	-2.89861e-07
1998.39	-2.04996e-07
2007.07	5.59898e-07
2015.75	2.0234e-07
2024.42	2.40207e-07
2033.1	4.67528e-07
2041.78	6.73452e-07
2050.46	2.20713e-06
2059.14	4.08964e-06
2067.82	2.82454e-06
2076.49	2.51544e-06
2085.17	1.74816e-06
2093.85	8.74828e-07
2102.53	1.50827e-07
2111.21	-2.11107e-08
2119.88	8.18593e-07
2128.56	-1.30135e-07
2137.24	2.76e-07
2145.92	1.08909e-06
2154.6	4.03614e-06
2163.28	4.03037e-06
2171.95	2.64972e-06
2180.63	1.82211e-06
2189.31	3.67628e-07
2197.99	-2.91505e-07
2206.67	-1.29135e-07
2215.34	-4.35639e-08
2224.02	3.79127e-07
2232.7	6.08461e-07
2241.38	1.87844e-06
2250.06	4.24122e-06
2258.74	5.66366e-06
2267.41	6.90562e-06
2276.09	1.25713e-05
2284.77	1.18921e-05
2293.45	3.91463e-06
2302.13	2.54211e-06
2310.8	1.18086e-06
2319.48	1.15343e-06
2328.16	-2.18831e-07
2336.84	1.74287e-06
2345.52	1.22925e-08
2354.2	-1.80179e-06
2362.87	-1.33088e-05
2371.55	-3.9862e-06
2380.23	4.38323e-07
2388.91	2.98228e-06
2397.59	5.06541e-06
2406.26	6.27639e-06
2414.94	6.65934e-06
2423.62	2.82504e-06
2432.3	1.15754e-06
2440.98	1.42214e-06
2449.66	9.22477e-07
2458.33	4.23786e-07
2467.01	-1.11243e-07
2475.69	-1.50517e-06
2484.37	1.28659e-06
2493.05	3.38833e-06
2501.72	6.41003e-06
2510.4	3.83363e-06
2519.08	1.69814e-06
2527.76	4.8766e-08
2536.44	5.58832e-07
2545.12	5.48617e-07
2553.79	-1.95046e-07
2562.47	1.46988e-06
2571.15	1.1129e-06
2579.83	5.28387e-07
2588.51	1.01822e-06
2597.18	2.71071e-06
2605.86	3.00961e-06
2614.54	-4.25598e-07
2623.22	-9.58889e-07
2631.9	-7.19344e-07
2640.58	-4.96191e-07
2649.25	7.52038e-07
2657.93	1.32934e-06
2666.61	1.25124e-06
2675.29	1.02859e-06
2683.97	7.82178e-07
2692.64	4.4899e-08
2701.32	-3.94548e-07
2710	4.14069e-07
2718.68	-5.1401e-07
2727.36	-2.51724e-07
2736.03	3.98212e-07
2744.71	3.67392e-07
2753.39	-5.68255e-07
2762.07	-8.53993e-07
2770.75	-2.25404e-08
2779.43	9.07678e-07
2788.1	6.76347e-07
2796.78	1.42662e-06
2805.46	-2.94288e-07
2814.14	1.20963e-06
2822.82	1.87436e-07
2831.49	8.19783e-07
2840.17	2.14755e-06
2848.85	3.21773e-06
2857.53	1.25635e-06
2866.21	9.7547e-07
2874.89	4.2212e-07
2883.56	1.77162e-06
2892.24	-4.96391e-08
2900.92	-7.60492e-07
2909.6	4.67859e-07
2918.28	-1.01535e-06
2926.95	-4.40146e-07
2935.63	-1.19967e-06
2944.31	4.08525e-07
2952.99	7.24051e-07
2961.67	-1.83074e-07
2970.35	1.983e-06
2979.02	1.04795e-05
2987.7	4.43587e-05
2996.38	7.0025e-05
3005.06	6.48117e-05
3013.74	4.42189e-05
3022.41	7.46081e-06
3031.09	-9.09548e-08
3039.77	6.36633e-07
3048.45	-6.35796e-07
3057.13	-2.66196e-07
3065.81	4.3924e-07
3074.48	1.92227e-08
3083.16	-1.19512e-07
3091.84	-4.10482e-07
3100.52	-7.91178e-07
3109.2	-7.52219e-07
3117.87	-9.62352e-07
3126.55	-7.23909e-07
3135.23	-5.81191e-08
3143.91	-4.39527e-07
3152.59	-1.40627e-07
3161.27	-9.01959e-07
3169.94	-9.89112e-07
3178.62	-3.46434e-07
3187.3	-3.07628e-07
3195.98	1.58081e-07
3204.66	2.10642e-07
3213.33	-7.10085e-07
3222.01	6.04845e-07
3230.69	-5.17433e-07
3239.37	-1.26794e-06
3248.05	1.87905e-07
3256.73	1.2828e-07
3265.4	7.64403e-07
3274.08	-3.71997e-07
3282.76	-1.04131e-06
3291.44	-4.69533e-07
3300.12	-9.91582e-07
3308.79	-1.10958e-06
3317.47	-3.22518e-07
3326.15	-6.40016e-07
3334.83	-3.4539e-07
3343.51	-2.87889e-07
3352.19	-1.0616e-06
3360.86	-1.12682e-06
3369.54	1.94628e-09
3378.22	-4.63647e-07
3386.9	-7.95405e-07
3395.58	-1.21438e-06
3404.25	-1.88644e-06
3412.93	-1.28823e-06
3421.61	-1.89795e-06
3430.29	-1.29257e-06
3438.97	-2.26606e-06
3447.65	-1.95166e-06
3456.32	-9.5309e-07
3465	-8.14613e-07
3473.68	-8.16167e-07
3482.36	-2.13619e-06
3491.04	-1.49429e-06
3499.71	-1.15241e-07
3508.39	-9.72305e-07
3517.07	-1.36322e-06
3525.75	-1.39544e-06
3534.43	-2.03093e-07
3543.1	-2.01422e-06
3551.78	-2.65056e-06
3560.46	-1.92401e-06
3569.14	-1.16073e-06
3577.82	-1.58707e-06
3586.5	-5.68432e-06
3595.17	-2.35396e-06
3603.85	-9.69628e-07
3612.53	-6.45442e-06
3621.21	-3.23334e-06
3629.89	-4.29205e-06
3638.56	-1.25472e-06
3647.24	-4.24941e-06
3655.92	-1.532e-06
3664.6	-1.41294e-06
3673.28	-1.64343e-06
3681.96	-1.86206e-06
3690.63	-3.14731e-06
3699.31	-1.72933e-06
3707.99	-1.23393e-06
3716.67	-1.54085e-06
3725.35	-1.49195e-06
3734.02	-1.26676e-06
3742.7	-1.0377e-06
3751.38	-2.54078e-06
3760.06	-2.62903e-06
3768.74	-2.45031e-06
3777.42	-2.54575e-06
3786.09	-2.32591e-06
3794.77	-2.3773e-06
3803.45	-3.14487e-06
3812.13	-2.37602e-06
3820.81	-7.66917e-06
3829.48	-2.39073e-06
3838.16	-3.30903e-06
3846.84	-8.85956e-07
3855.52	-1.87205e-06
3864.2	-1.95341e-06
3872.88	-1.82767e-06
3881.55	-3.23676e-06
3890.23	-2.15552e-06
3898.91	-3.4302e-06
3907.59	-2.37332e-06
3916.27	-3.57546e-06
3924.94	-2.22697e-06
3933.62	-3.01204e-06
3942.3	-1.42473e-06
3950.98	-1.30067e-06
3959.66	-2.43062e-06
3968.34	-1.96215e-06
