Infrared Spectrum: 2,3,5-TRIMETHYL-PHENANTHRENE
Formula: C17 H16
CAS: 3674-73-5
State: SOLID (1% IN KBr)
Class: COBLENTZ
Instrument: Not specified, most likely a prism, grating, or hybrid spectrometer.
Sampling: TRANSMISSION
Resolution: 4
Origin: CENTRE D'ETUDES NUCLEAIRES DE GRENOBLE
MICROMETERS	TRANSMITTANCE
1.989	0.046
2.02917	0.05
2.06933	0.051
2.1095	0.053
2.14966	0.053
2.18983	0.053
2.22999	0.058
2.27016	0.06
2.31032	0.065
2.35049	0.075
2.39065	0.073
2.43082	0.065
2.47099	0.07
2.51115	0.071
2.55132	0.073
2.59148	0.075
2.63165	0.078
2.67181	0.081
2.71198	0.085
2.75214	0.088
2.79231	0.086
2.83247	0.086
2.87264	0.086
2.9128	0.085
2.95297	0.086
2.99314	0.09
3.0333	0.098
3.07347	0.108
3.11363	0.115
3.1538	0.125
3.19396	0.13
3.23413	0.133
3.27429	0.133
3.31446	0.108
3.35462	0.095
3.39479	0.083
3.43496	0.08
3.47512	0.086
3.51529	0.095
3.55545	0.113
3.59562	0.152
3.63578	0.16
3.67595	0.167
3.71611	0.175
3.75628	0.183
3.79644	0.192
3.83661	0.198
3.87678	0.204
3.91694	0.209
3.95711	0.214
3.99727	0.22
4.03744	0.227
4.0776	0.234
4.11777	0.239
4.15793	0.249
4.1981	0.249
4.23826	0.249
4.27843	0.25
4.3186	0.252
4.35876	0.252
4.39893	0.257
4.43909	0.289
4.47926	0.294
4.51942	0.295
4.55959	0.301
4.59975	0.306
4.63992	0.317
4.68008	0.321
4.72025	0.324
4.76041	0.329
4.80058	0.332
4.84075	0.339
4.88091	0.342
4.92108	0.346
4.96124	0.351
5.00141	0.357
5.04157	0.361
5.08174	0.366
5.1219	0.371
5.16207	0.377
5.20223	0.382
5.2424	0.377
5.28257	0.347
5.32273	0.381
5.3629	0.399
5.40306	0.406
5.44323	0.404
5.48339	0.397
5.52356	0.413
5.56372	0.423
5.60389	0.424
5.64405	0.421
5.68422	0.406
5.72439	0.389
5.76455	0.387
5.80472	0.394
5.84488	0.401
5.88505	0.414
5.92521	0.426
5.96538	0.439
6.00554	0.429
6.04571	0.426
6.08587	0.446
6.12604	0.426
6.16621	0.423
6.20637	0.414
6.24654	0.371
6.2867	0.387
6.32687	0.376
6.36703	0.426
6.4072	0.416
6.44736	0.449
6.48753	0.459
6.52769	0.481
6.56786	0.478
6.60802	0.464
6.64819	0.382
6.68836	0.389
6.72852	0.379
6.76869	0.431
6.80885	0.474
6.84902	0.459
6.88918	0.22
6.92935	0.188
6.96951	0.225
7.00968	0.324
7.04984	0.391
7.09001	0.438
7.13018	0.463
7.17034	0.473
7.21051	0.468
7.25067	0.471
7.29084	0.451
7.331	0.359
7.37117	0.456
7.41133	0.493
7.4515	0.508
7.49166	0.511
7.53183	0.494
7.572	0.526
7.61216	0.518
7.65233	0.515
7.69249	0.543
7.73266	0.546
7.77282	0.541
7.81299	0.528
7.85315	0.531
7.89332	0.505
7.93348	0.513
7.97365	0.531
8.01382	0.53
8.05398	0.528
8.09415	0.538
8.13431	0.536
8.17448	0.53
8.21464	0.531
8.25481	0.558
8.29497	0.531
8.33514	0.515
8.3753	0.548
8.41547	0.536
8.45563	0.566
8.4958	0.585
8.53597	0.598
8.57613	0.566
8.6163	0.456
8.65646	0.566
8.69663	0.581
8.73679	0.581
8.77696	0.61
8.81712	0.625
8.85729	0.622
8.89745	0.605
8.93762	0.612
8.97779	0.623
9.01795	0.632
9.05812	0.64
9.09828	0.638
9.13845	0.558
9.17861	0.585
9.21878	0.633
9.25894	0.645
9.29911	0.667
9.33927	0.677
9.37944	0.68
9.41961	0.68
9.45977	0.678
9.49994	0.673
9.5401	0.662
9.58027	0.648
9.62043	0.635
9.6606	0.566
9.70076	0.551
9.74093	0.513
9.78109	0.464
9.82126	0.541
9.86143	0.565
9.90159	0.62
9.94176	0.58
9.98192	0.551
10.0221	0.625
10.0623	0.682
10.1024	0.702
10.1426	0.715
10.1827	0.729
10.2229	0.739
10.2631	0.747
10.3032	0.752
10.3434	0.75
10.3836	0.662
10.4237	0.503
10.4639	0.598
10.5041	0.64
10.5442	0.68
10.5844	0.729
10.6246	0.745
10.6647	0.759
10.7049	0.765
10.7451	0.775
10.7852	0.78
10.8254	0.784
10.8656	0.785
10.9057	0.789
10.9459	0.792
10.9861	0.795
11.0262	0.795
11.0664	0.789
11.1066	0.78
11.1467	0.774
11.1869	0.695
11.227	0.403
11.2672	0.501
11.3074	0.625
11.3475	0.637
11.3877	0.377
11.4279	0.127
11.468	0.317
11.5082	0.52
11.5484	0.623
11.5885	0.692
11.6287	0.725
11.6689	0.762
11.709	0.777
11.7492	0.789
11.7894	0.795
11.8295	0.804
11.8697	0.811
11.9099	0.819
11.95	0.824
11.9902	0.824
12.0304	0.812
12.0705	0.802
12.1107	0.764
12.1509	0.744
12.191	0.61
12.2312	0.285
12.2714	0.09
12.3115	0.277
12.3517	0.51
12.3918	0.617
12.432	0.7
12.4722	0.75
12.5123	0.777
12.5525	0.742
12.5927	0.546
12.6328	0.685
12.673	0.785
12.7132	0.811
12.7533	0.832
12.7935	0.822
12.8337	0.78
12.8738	0.757
12.914	0.797
12.9542	0.816
12.9943	0.829
13.0345	0.832
13.0747	0.822
13.1148	0.801
13.155	0.603
13.1952	0.207
13.2353	0.225
13.2755	0.453
13.3157	0.608
13.3558	0.692
13.396	0.739
13.4361	0.737
13.4763	0.709
13.5165	0.744
13.5566	0.792
13.5968	0.824
13.637	0.852
13.6771	0.862
13.7173	0.874
13.7575	0.877
13.7976	0.881
13.8378	0.881
13.878	0.881
13.9181	0.877
13.9583	0.876
13.9985	0.867
14.0386	0.836
14.0788	0.434
14.119	0.27
14.1591	0.332
14.1993	0.464
14.2395	0.553
14.2796	0.627
14.3198	0.715
14.36	0.785
14.4001	0.827
14.4403	0.849
14.4805	0.864
14.5206	0.871
14.5608	0.876
14.6009	0.879
14.6411	0.884
14.6813	0.891
14.7214	0.894
14.7616	0.896
14.8018	0.896
14.8419	0.897
14.8821	0.899
14.9223	0.903
14.9624	0.899
15.0026	0.896
15.0428	0.897
15.0829	0.899
15.1231	0.901
15.1633	0.903
15.2034	0.903
15.2436	0.901
15.2838	0.903
15.3239	0.906
15.3641	0.903
15.4043	0.903
15.4444	0.901
15.4846	0.899
15.5248	0.901
15.5649	0.904
15.6051	0.908
15.6452	0.908
15.6854	0.908
15.7256	0.904
15.7657	0.901
15.8059	0.901
15.8461	0.896
15.8862	0.871
15.9264	0.862
