Infrared Spectrum: 2-n-DODECYL-PHENANTHRENE
Formula: C26 H34
CAS: 3674-72-4
State: SOLID (1% IN KI)
Class: COBLENTZ
Instrument: Not specified, most likely a prism, grating, or hybrid spectrometer.
Sampling: TRANSMISSION
Resolution: 4
Origin: CENTRE D'ETUDES NUCLEAIRES DE GRENOBLE
MICROMETERS	TRANSMITTANCE
2.013	0.554
2.05312	0.569
2.09323	0.575
2.13335	0.582
2.17346	0.592
2.21358	0.602
2.2537	0.608
2.29381	0.597
2.33393	0.595
2.37404	0.602
2.41416	0.608
2.45428	0.615
2.49439	0.635
2.53451	0.65
2.57462	0.657
2.61474	0.662
2.65485	0.67
2.69497	0.675
2.73509	0.672
2.7752	0.665
2.81532	0.647
2.85543	0.628
2.89555	0.62
2.93567	0.628
2.97578	0.648
3.0159	0.658
3.05601	0.678
3.09613	0.678
3.13625	0.677
3.17636	0.682
3.21648	0.678
3.25659	0.63
3.29671	0.489
3.33683	0.474
3.37694	0.434
3.41706	0.146
3.45717	0.051
3.49729	0.159
3.53741	0.099
3.57752	0.537
3.61764	0.727
3.65775	0.76
3.69787	0.775
3.73799	0.79
3.7781	0.787
3.81822	0.785
3.85833	0.798
3.89845	0.81
3.93856	0.818
3.97868	0.823
4.0188	0.826
4.05891	0.826
4.09903	0.83
4.13914	0.835
4.17926	0.833
4.21938	0.838
4.25949	0.843
4.29961	0.835
4.33972	0.82
4.37984	0.82
4.41996	0.836
4.46007	0.846
4.50019	0.851
4.5403	0.851
4.58042	0.855
4.62054	0.86
4.66065	0.86
4.70077	0.86
4.74088	0.863
4.781	0.861
4.82112	0.861
4.86123	0.861
4.90135	0.858
4.94146	0.86
4.98158	0.863
5.0217	0.865
5.06181	0.868
5.10193	0.865
5.14204	0.855
5.18216	0.845
5.22227	0.828
5.26239	0.823
5.30251	0.843
5.34262	0.863
5.38274	0.875
5.42285	0.875
5.46297	0.85
5.50309	0.866
5.5432	0.863
5.58332	0.86
5.62343	0.833
5.66355	0.803
5.70367	0.805
5.74378	0.846
5.7839	0.86
5.82401	0.836
5.86413	0.845
5.90425	0.861
5.94436	0.821
5.98448	0.831
6.02459	0.83
6.06471	0.836
6.10483	0.826
6.14494	0.83
6.18506	0.698
6.22517	0.665
6.26529	0.752
6.30541	0.762
6.34552	0.828
6.38564	0.855
6.42575	0.831
6.46587	0.846
6.50598	0.86
6.5461	0.835
6.58622	0.823
6.62633	0.82
6.66645	0.828
6.70656	0.768
6.74668	0.69
6.7868	0.723
6.82691	0.594
6.86703	0.256
6.90714	0.437
6.94726	0.693
6.98738	0.75
7.02749	0.678
7.06761	0.643
7.10772	0.762
7.14784	0.813
7.18796	0.825
7.22807	0.788
7.26819	0.805
7.3083	0.772
7.34842	0.797
7.38854	0.821
7.42865	0.828
7.46877	0.823
7.50888	0.836
7.549	0.856
7.58912	0.863
7.62923	0.828
7.66935	0.785
7.70946	0.693
7.74958	0.798
7.78969	0.838
7.82981	0.836
7.86993	0.836
7.91004	0.848
7.95016	0.825
7.99027	0.742
8.03039	0.539
8.07051	0.592
8.11062	0.733
8.15074	0.652
8.19085	0.74
8.23097	0.795
8.27109	0.826
8.3112	0.833
8.35132	0.797
8.39143	0.768
8.43155	0.787
8.47167	0.833
8.51178	0.86
8.5519	0.835
8.59201	0.793
8.63213	0.783
8.67225	0.8
8.71236	0.843
8.75248	0.806
8.79259	0.826
8.83271	0.861
8.87283	0.86
8.91294	0.831
8.95306	0.85
8.99317	0.851
9.03329	0.845
9.0734	0.818
9.11352	0.777
9.15364	0.835
9.19375	0.861
9.23387	0.86
9.27398	0.845
9.3141	0.86
9.35422	0.871
9.39433	0.883
9.43445	0.875
9.47456	0.875
9.51468	0.868
9.5548	0.873
9.59491	0.883
9.63503	0.85
9.67514	0.818
9.71526	0.85
9.75538	0.861
9.79549	0.87
9.83561	0.861
9.87572	0.85
9.91584	0.868
9.95596	0.878
9.99607	0.843
10.0362	0.803
10.0763	0.87
10.1164	0.885
10.1565	0.89
10.1967	0.896
10.2368	0.895
10.2769	0.888
10.317	0.89
10.3571	0.873
10.3972	0.863
10.4373	0.865
10.4775	0.85
10.5176	0.855
10.5577	0.841
10.5978	0.783
10.6379	0.765
10.678	0.856
10.7182	0.886
10.7583	0.895
10.7984	0.896
10.8385	0.9
10.8786	0.9
10.9187	0.901
10.9589	0.901
10.999	0.9
11.0391	0.895
11.0792	0.888
11.1193	0.868
11.1594	0.815
11.1995	0.71
11.2397	0.67
11.2798	0.535
11.3199	0.499
11.36	0.394
11.4001	0.364
11.4402	0.672
11.4804	0.805
11.5205	0.811
11.5606	0.762
11.6007	0.798
11.6408	0.866
11.6809	0.896
11.7211	0.905
11.7612	0.906
11.8013	0.901
11.8414	0.891
11.8815	0.881
11.9216	0.846
11.9618	0.777
12.0019	0.742
12.042	0.742
12.0821	0.652
12.1222	0.564
12.1623	0.52
12.2024	0.412
12.2426	0.381
12.2827	0.201
12.3228	0.049
12.3629	0.164
12.403	0.502
12.4431	0.698
12.4833	0.8
12.5234	0.85
12.5635	0.868
12.6036	0.885
12.6437	0.886
12.6838	0.88
12.724	0.866
12.7641	0.843
12.8042	0.811
12.8443	0.747
12.8844	0.69
12.9245	0.642
12.9647	0.7
13.0048	0.792
13.0449	0.83
13.085	0.843
13.1251	0.845
13.1652	0.84
13.2053	0.816
13.2455	0.79
13.2856	0.697
13.3257	0.412
13.3658	0.252
13.4059	0.405
13.446	0.474
13.4862	0.287
13.5263	0.079
13.5664	0.224
13.6065	0.467
13.6466	0.642
13.6867	0.72
13.7269	0.732
13.767	0.697
13.8071	0.567
13.8472	0.482
13.8873	0.492
13.9274	0.547
13.9675	0.564
14.0077	0.477
14.0478	0.394
14.0879	0.4
14.128	0.495
14.1681	0.64
14.2082	0.755
14.2484	0.823
14.2885	0.845
14.3286	0.861
14.3687	0.875
14.4088	0.87
14.4489	0.85
14.4891	0.838
14.5292	0.836
14.5693	0.846
14.6094	0.841
14.6495	0.848
14.6896	0.87
14.7298	0.88
14.7699	0.88
14.81	0.886
14.8501	0.883
14.8902	0.888
14.9303	0.885
14.9704	0.885
15.0106	0.885
15.0507	0.88
15.0908	0.88
15.1309	0.89
15.171	0.893
15.2111	0.89
15.2513	0.883
15.2914	0.881
15.3315	0.881
15.3716	0.885
15.4117	0.885
15.4518	0.883
15.492	0.878
15.5321	0.876
15.5722	0.88
15.6123	0.878
15.6524	0.875
15.6925	0.866
15.7327	0.863
15.7728	0.856
15.8129	0.848
15.853	0.841
15.8931	0.825
