Infrared Spectrum: 9-ETHYL-PHENANTHRENE
Formula: C16 H14
CAS: 3674-75-7
State: SOLID (1% IN KBr)
Class: COBLENTZ
Instrument: Not specified, most likely a prism, grating, or hybrid spectrometer.
Sampling: TRANSMISSION
Resolution: 4
Origin: CENTRE D'ETUDES NUCLEAIRES DE GRENOBLE
MICROMETERS	TRANSMITTANCE
1.998	0.155
2.03808	0.158
2.07816	0.165
2.11825	0.17
2.15833	0.182
2.19841	0.192
2.23849	0.204
2.27857	0.215
2.31865	0.224
2.35874	0.232
2.39882	0.24
2.4389	0.249
2.47898	0.257
2.51906	0.267
2.55914	0.29
2.59923	0.302
2.63931	0.309
2.67939	0.326
2.71947	0.331
2.75955	0.336
2.79963	0.339
2.83972	0.341
2.8798	0.344
2.91988	0.347
2.95996	0.352
3.00004	0.367
3.04012	0.382
3.08021	0.396
3.12029	0.411
3.16037	0.419
3.20045	0.428
3.24053	0.438
3.28061	0.362
3.3207	0.346
3.36078	0.423
3.40086	0.234
3.44094	0.277
3.48102	0.336
3.5211	0.364
3.56119	0.394
3.60127	0.448
3.64135	0.479
3.68143	0.493
3.72151	0.501
3.76159	0.516
3.80168	0.525
3.84176	0.53
3.88184	0.535
3.92192	0.543
3.962	0.55
4.00208	0.556
4.04217	0.563
4.08225	0.57
4.12233	0.578
4.16241	0.585
4.20249	0.593
4.24257	0.596
4.28266	0.6
4.32274	0.605
4.36282	0.612
4.4029	0.618
4.44298	0.627
4.48306	0.635
4.52315	0.642
4.56323	0.647
4.60331	0.652
4.64339	0.66
4.68347	0.667
4.72355	0.673
4.76364	0.677
4.80372	0.682
4.8438	0.688
4.88388	0.69
4.92396	0.693
4.96404	0.698
5.00413	0.704
5.04421	0.71
5.08429	0.715
5.12437	0.7
5.16445	0.647
5.20453	0.709
5.24462	0.647
5.2847	0.714
5.32478	0.678
5.36486	0.72
5.40494	0.742
5.44502	0.732
5.48511	0.697
5.52519	0.722
5.56527	0.704
5.60535	0.71
5.64543	0.727
5.68551	0.697
5.7256	0.745
5.76568	0.735
5.80576	0.725
5.84584	0.715
5.88592	0.709
5.926	0.704
5.96609	0.715
6.00617	0.732
6.04625	0.727
6.08633	0.717
6.12641	0.698
6.16649	0.608
6.20658	0.568
6.24666	0.526
6.28674	0.523
6.32682	0.63
6.3669	0.685
6.40698	0.695
6.44707	0.719
6.48715	0.759
6.52723	0.75
6.56731	0.673
6.60739	0.735
6.64747	0.77
6.68756	0.705
6.72764	0.423
6.76772	0.642
6.8078	0.76
6.84788	0.69
6.88796	0.486
6.92805	0.441
6.96813	0.543
7.00821	0.272
7.04829	0.448
7.08837	0.595
7.12845	0.662
7.16854	0.68
7.20862	0.7
7.2487	0.71
7.28878	0.516
7.32886	0.648
7.36894	0.739
7.40903	0.765
7.44911	0.74
7.48919	0.789
7.52927	0.749
7.56935	0.571
7.60943	0.732
7.64952	0.73
7.6896	0.65
7.72968	0.764
7.76976	0.795
7.80984	0.772
7.84992	0.727
7.89001	0.794
7.93009	0.819
7.97017	0.79
8.01025	0.607
8.05033	0.578
8.09041	0.755
8.1305	0.78
8.17058	0.774
8.21066	0.764
8.25074	0.709
8.29082	0.627
8.3309	0.785
8.37099	0.787
8.41107	0.806
8.45115	0.837
8.49123	0.849
8.53131	0.847
8.57139	0.832
8.61148	0.809
8.65156	0.801
8.69164	0.79
8.73172	0.535
8.7718	0.78
8.81188	0.829
8.85197	0.827
8.89205	0.821
8.93213	0.821
8.97221	0.826
9.01229	0.821
9.05237	0.811
9.09246	0.842
9.13254	0.854
9.17262	0.851
9.2127	0.857
9.25278	0.837
9.29286	0.759
9.33295	0.816
9.37303	0.846
9.41311	0.861
9.45319	0.866
9.49327	0.847
9.53335	0.62
9.57344	0.727
9.61352	0.812
9.6536	0.822
9.69368	0.844
9.73376	0.854
9.77384	0.862
9.81393	0.871
9.85401	0.876
9.89409	0.879
9.93417	0.869
9.97425	0.742
10.0143	0.851
10.0544	0.879
10.0945	0.881
10.1346	0.881
10.1747	0.881
10.2147	0.884
10.2548	0.889
10.2949	0.892
10.335	0.896
10.3751	0.899
10.4152	0.887
10.4552	0.827
10.4953	0.583
10.5354	0.622
10.5755	0.819
10.6156	0.879
10.6556	0.901
10.6957	0.906
10.7358	0.909
10.7759	0.914
10.816	0.914
10.856	0.914
10.8961	0.911
10.9362	0.906
10.9763	0.901
11.0164	0.903
11.0565	0.908
11.0965	0.897
11.1366	0.857
11.1767	0.693
11.2168	0.379
11.2569	0.066
11.2969	0.54
11.337	0.774
11.3771	0.841
11.4172	0.872
11.4573	0.862
11.4974	0.844
11.5374	0.787
11.5775	0.832
11.6176	0.787
11.6577	0.551
11.6978	0.7
11.7378	0.812
11.7779	0.871
11.818	0.894
11.8581	0.926
11.8982	0.921
11.9383	0.923
11.9783	0.928
12.0184	0.936
12.0585	0.928
12.0986	0.926
12.1387	0.938
12.1787	0.933
12.2188	0.933
12.2589	0.923
12.299	0.918
12.3391	0.916
12.3792	0.914
12.4192	0.909
12.4593	0.836
12.4994	0.647
12.5395	0.561
12.5796	0.697
12.6196	0.846
12.6597	0.882
12.6998	0.854
12.7399	0.832
12.78	0.877
12.8201	0.862
12.8601	0.864
12.9002	0.889
12.9403	0.889
12.9804	0.882
13.0205	0.872
13.0605	0.851
13.1006	0.821
13.1407	0.734
13.1808	0.715
13.2209	0.697
13.2609	0.596
13.301	0.463
13.3411	0.235
13.3812	0.073
13.4213	0.04
13.4614	0.036
13.5014	0.061
13.5415	0.153
13.5816	0.342
13.6217	0.488
13.6618	0.583
13.7018	0.663
13.7419	0.67
13.782	0.608
13.8221	0.416
13.8622	0.192
13.9023	0.198
13.9423	0.55
13.9824	0.652
14.0225	0.779
14.0626	0.814
14.1027	0.851
14.1427	0.854
14.1828	0.861
14.2229	0.886
14.263	0.889
14.3031	0.881
14.3432	0.884
14.3832	0.891
14.4233	0.896
14.4634	0.891
14.5035	0.877
14.5436	0.882
14.5836	0.903
14.6237	0.908
14.6638	0.904
14.7039	0.881
14.744	0.903
14.7841	0.909
14.8241	0.899
14.8642	0.903
14.9043	0.914
14.9444	0.911
14.9845	0.897
15.0245	0.884
15.0646	0.891
15.1047	0.906
15.1448	0.896
15.1849	0.887
15.225	0.904
15.265	0.872
15.3051	0.904
15.3452	0.899
15.3853	0.884
15.4254	0.896
15.4654	0.899
15.5055	0.887
15.5456	0.866
15.5857	0.837
15.6258	0.785
15.6658	0.729
15.7059	0.737
15.746	0.749
15.7861	0.787
15.8262	0.847
15.8663	0.849
15.9063	0.846
