Infrared Spectrum: 2,3-DIMETHYL-PHENANTHRENE
Formula: C16 H14
CAS: 3674-65-5
State: SOLID (1% IN KBr)
Class: COBLENTZ
Instrument: Not specified, most likely a prism, grating, or hybrid spectrometer.
Sampling: TRANSMISSION
Resolution: 4
Origin: CENTRE D'ETUDES NUCLEAIRES DE GRENOBLE
MICROMETERS	TRANSMITTANCE
1.978	0.093
2.01806	0.1
2.05812	0.107
2.09819	0.115
2.13825	0.122
2.17831	0.128
2.21837	0.139
2.25844	0.15
2.2985	0.164
2.33856	0.172
2.37862	0.18
2.41868	0.185
2.45875	0.194
2.49881	0.202
2.53887	0.211
2.57893	0.221
2.619	0.234
2.65906	0.242
2.69912	0.252
2.73918	0.264
2.77924	0.274
2.81931	0.271
2.85937	0.264
2.89943	0.268
2.93949	0.274
2.97956	0.283
3.01962	0.294
3.05968	0.308
3.09974	0.346
3.1398	0.363
3.17987	0.375
3.21993	0.391
3.25999	0.395
3.30005	0.361
3.34012	0.278
3.38018	0.276
3.42024	0.254
3.4603	0.246
3.50036	0.281
3.54043	0.321
3.58049	0.371
3.62055	0.428
3.66061	0.455
3.70068	0.467
3.74074	0.475
3.7808	0.495
3.82086	0.51
3.86092	0.515
3.90099	0.522
3.94105	0.527
3.98111	0.544
4.02117	0.557
4.06124	0.564
4.1013	0.567
4.14136	0.576
4.18142	0.586
4.22148	0.592
4.26155	0.597
4.30161	0.547
4.34167	0.519
4.38173	0.567
4.4218	0.618
4.46186	0.641
4.50192	0.654
4.54198	0.661
4.58204	0.67
4.62211	0.676
4.66217	0.685
4.70223	0.688
4.74229	0.695
4.78236	0.708
4.82242	0.708
4.86248	0.71
4.90254	0.715
4.9426	0.721
4.98267	0.728
5.02273	0.737
5.06279	0.742
5.10285	0.745
5.14292	0.74
5.18298	0.731
5.22304	0.726
5.2631	0.713
5.30316	0.71
5.34323	0.742
5.38329	0.765
5.42335	0.77
5.46341	0.763
5.50348	0.757
5.54354	0.758
5.5836	0.762
5.62366	0.765
5.66372	0.772
5.70379	0.74
5.74385	0.664
5.78391	0.696
5.82397	0.733
5.86404	0.752
5.9041	0.753
5.94416	0.742
5.98422	0.747
6.02428	0.743
6.06435	0.731
6.10441	0.738
6.14447	0.74
6.18453	0.72
6.2246	0.616
6.26466	0.656
6.30472	0.541
6.34478	0.73
6.38484	0.767
6.42491	0.758
6.46497	0.757
6.50503	0.755
6.54509	0.753
6.58516	0.76
6.62522	0.705
6.66528	0.618
6.70534	0.576
6.7454	0.457
6.78547	0.7
6.82553	0.765
6.86559	0.678
6.90565	0.301
6.94572	0.336
6.98578	0.259
7.02584	0.395
7.0659	0.527
7.10596	0.664
7.14603	0.747
7.18609	0.765
7.22615	0.765
7.26621	0.747
7.30628	0.721
7.34634	0.747
7.3864	0.763
7.42646	0.783
7.46652	0.718
7.50659	0.71
7.54665	0.768
7.58671	0.832
7.62677	0.85
7.66684	0.862
7.7069	0.871
7.74696	0.874
7.78702	0.854
7.82708	0.869
7.86715	0.874
7.90721	0.872
7.94727	0.862
7.98733	0.721
8.0274	0.673
8.06746	0.825
8.10752	0.855
8.14758	0.855
8.18764	0.839
8.22771	0.586
8.26777	0.676
8.30783	0.69
8.34789	0.74
8.38796	0.792
8.42802	0.824
8.46808	0.85
8.50814	0.877
8.5482	0.899
8.58827	0.889
8.62833	0.869
8.66839	0.867
8.70845	0.877
8.74852	0.804
8.78858	0.842
8.82864	0.862
8.8687	0.74
8.90876	0.842
8.94883	0.874
8.98889	0.889
9.02895	0.897
9.06901	0.902
9.10908	0.904
9.14914	0.854
9.1892	0.874
9.22926	0.899
9.26932	0.902
9.30939	0.907
9.34945	0.916
9.38951	0.922
9.42957	0.927
9.46964	0.927
9.5097	0.927
9.54976	0.922
9.58982	0.894
9.62988	0.897
9.66995	0.881
9.71001	0.696
9.75007	0.566
9.79013	0.534
9.8302	0.447
9.87026	0.589
9.91032	0.748
9.95038	0.698
9.99044	0.619
10.0305	0.783
10.0706	0.869
10.1106	0.904
10.1507	0.926
10.1908	0.932
10.2308	0.943
10.2709	0.953
10.3109	0.958
10.351	0.951
10.3911	0.941
10.4311	0.926
10.4712	0.922
10.5113	0.891
10.5513	0.802
10.5914	0.879
10.6314	0.914
10.6715	0.968
10.7116	0.989
10.7516	1.006
10.7917	1.013
10.8318	1.018
10.8718	1.02
10.9119	1.02
10.9519	1.02
10.992	1.02
11.0321	1.02
11.0721	1.02
11.1122	1.003
11.1522	0.939
11.1923	0.897
11.2324	0.936
11.2724	0.916
11.3125	0.428
11.3526	0.201
11.3926	0.204
11.4327	0.127
11.4727	0.154
11.5128	0.457
11.5529	0.631
11.5929	0.75
11.633	0.829
11.6731	0.901
11.7131	0.941
11.7532	0.963
11.7932	0.986
11.8333	1.001
11.8734	1.011
11.9134	1.018
11.9535	1.018
11.9936	1.02
12.0336	1.02
12.0737	1.018
12.1137	1.02
12.1538	1.018
12.1939	1.018
12.2339	1.01
12.274	0.986
12.3141	0.74
12.3541	0.268
12.3942	0.061
12.4342	0.05
12.4743	0.321
12.5144	0.666
12.5544	0.795
12.5945	0.867
12.6346	0.902
12.6746	0.931
12.7147	0.939
12.7547	0.904
12.7948	0.877
12.8349	0.899
12.8749	0.929
12.915	0.931
12.955	0.936
12.9951	0.949
13.0352	0.944
13.0752	0.927
13.1153	0.922
13.1554	0.847
13.1954	0.584
13.2355	0.204
13.2755	0.301
13.3156	0.495
13.3557	0.477
13.3957	0.207
13.4358	0.108
13.4759	0.214
13.5159	0.619
13.556	0.728
13.596	0.798
13.6361	0.85
13.6762	0.909
13.7162	0.934
13.7563	0.969
13.7964	0.983
13.8364	0.989
13.8765	0.993
13.9165	0.983
13.9566	0.978
13.9967	0.988
14.0367	0.998
14.0768	0.81
14.1169	0.618
14.1569	0.564
14.197	0.618
14.237	0.782
14.2771	0.921
14.3172	0.969
14.3572	0.993
14.3973	1.001
14.4374	1.008
14.4774	1.011
14.5175	1.013
14.5575	1.016
14.5976	1.018
14.6377	1.018
14.6777	1.018
14.7178	1.018
14.7578	1.018
14.7979	1.02
14.838	1.02
14.878	1.02
14.9181	1.02
14.9582	1.02
14.9982	1.02
15.0383	1.016
15.0783	1.001
15.1184	1.005
15.1585	1.013
15.1985	1.02
15.2386	1.02
15.2787	1.018
15.3187	1.006
15.3588	0.969
15.3988	0.822
15.4389	0.742
15.479	0.748
15.519	0.819
15.5591	0.891
15.5992	0.924
15.6392	0.941
15.6793	0.968
15.7193	0.984
15.7594	0.989
15.7995	0.989
15.8395	0.986
15.8796	0.984
15.9197	0.981
15.9597	0.973
