Infrared Spectrum: 2,5-DIMETHYL-PHENANTHRENE
Formula: C16 H14
CAS: 3674-66-6
State: SOLID (1% IN KI)
Class: COBLENTZ
Instrument: Not specified, most likely a prism, grating, or hybrid spectrometer.
Sampling: TRANSMISSION
Resolution: 4
Origin: CENTRE D'ETUDES NUCLEAIRES DE GRENOBLE
MICROMETERS	TRANSMITTANCE
1.997	0.227
2.03712	0.234
2.07725	0.242
2.11737	0.252
2.1575	0.259
2.19762	0.267
2.23775	0.274
2.27787	0.281
2.318	0.291
2.35812	0.297
2.39825	0.309
2.43837	0.317
2.4785	0.326
2.51862	0.334
2.55874	0.344
2.59887	0.354
2.63899	0.354
2.67912	0.361
2.71924	0.381
2.75937	0.384
2.79949	0.391
2.83962	0.376
2.87974	0.357
2.91987	0.351
2.95999	0.354
3.00012	0.371
3.04024	0.389
3.08037	0.402
3.12049	0.42
3.16061	0.425
3.20074	0.432
3.24086	0.439
3.28099	0.439
3.32111	0.332
3.36124	0.274
3.40136	0.309
3.44149	0.327
3.48161	0.301
3.52174	0.377
3.56186	0.399
3.60199	0.467
3.64211	0.492
3.68223	0.499
3.72236	0.507
3.76248	0.527
3.80261	0.534
3.84273	0.54
3.88286	0.547
3.92298	0.554
3.96311	0.56
4.00323	0.569
4.04336	0.577
4.08348	0.582
4.12361	0.595
4.16373	0.597
4.20386	0.602
4.24398	0.617
4.2841	0.628
4.32423	0.63
4.36435	0.623
4.40448	0.618
4.4446	0.643
4.48473	0.652
4.52485	0.658
4.56498	0.662
4.6051	0.667
4.64523	0.672
4.68535	0.675
4.72548	0.68
4.7656	0.688
4.80572	0.695
4.84585	0.702
4.88597	0.705
4.9261	0.708
4.96622	0.712
5.00635	0.713
5.04647	0.718
5.0866	0.723
5.12672	0.737
5.16685	0.737
5.20697	0.697
5.2471	0.697
5.28722	0.692
5.32735	0.713
5.36747	0.745
5.40759	0.74
5.44772	0.742
5.48784	0.75
5.52797	0.753
5.56809	0.762
5.60822	0.733
5.64834	0.74
5.68847	0.718
5.72859	0.708
5.76872	0.732
5.80884	0.718
5.84897	0.723
5.88909	0.742
5.92921	0.753
5.96934	0.762
6.00946	0.768
6.04959	0.748
6.08971	0.752
6.12984	0.745
6.16996	0.695
6.21009	0.51
6.25021	0.545
6.29034	0.658
6.33046	0.657
6.37059	0.732
6.41071	0.625
6.45083	0.712
6.49096	0.725
6.53108	0.747
6.57121	0.692
6.61133	0.673
6.65146	0.707
6.69158	0.723
6.73171	0.685
6.77183	0.623
6.81196	0.599
6.85208	0.407
6.89221	0.381
6.93233	0.309
6.97246	0.485
7.01258	0.485
7.0527	0.6
7.09283	0.68
7.13295	0.723
7.17308	0.72
7.2132	0.723
7.25333	0.695
7.29345	0.633
7.33358	0.727
7.3737	0.772
7.41383	0.785
7.45395	0.792
7.49408	0.785
7.5342	0.735
7.57432	0.783
7.61445	0.742
7.65457	0.763
7.6947	0.798
7.73482	0.773
7.77495	0.795
7.81507	0.811
7.8552	0.805
7.89532	0.772
7.93545	0.801
7.97557	0.815
8.0157	0.77
8.05582	0.647
8.09595	0.763
8.13607	0.788
8.17619	0.79
8.21632	0.695
8.25644	0.653
8.29657	0.808
8.33669	0.833
8.37682	0.816
8.41694	0.815
8.45707	0.836
8.49719	0.793
8.53732	0.783
8.57744	0.772
8.61757	0.733
8.65769	0.818
8.69781	0.855
8.73794	0.848
8.77806	0.76
8.81819	0.821
8.85831	0.845
8.89844	0.851
8.93856	0.856
8.97869	0.86
9.01881	0.826
9.05894	0.765
9.09906	0.821
9.13919	0.841
9.17931	0.85
9.21944	0.853
9.25956	0.853
9.29968	0.856
9.33981	0.861
9.37993	0.863
9.42006	0.861
9.46018	0.853
9.50031	0.843
9.54043	0.83
9.58056	0.797
9.62068	0.773
9.66081	0.755
9.70093	0.738
9.74106	0.763
9.78118	0.81
9.8213	0.828
9.86143	0.831
9.90155	0.836
9.94168	0.835
9.9818	0.836
10.0219	0.836
10.0621	0.783
10.1022	0.851
10.1423	0.878
10.1824	0.886
10.2226	0.895
10.2627	0.888
10.3028	0.82
10.3429	0.753
10.383	0.81
10.4232	0.848
10.4633	0.838
10.5034	0.815
10.5435	0.841
10.5837	0.878
10.6238	0.898
10.6639	0.895
10.704	0.898
10.7442	0.901
10.7843	0.896
10.8244	0.883
10.8645	0.865
10.9047	0.881
10.9448	0.898
10.9849	0.901
11.025	0.891
11.0652	0.775
11.1053	0.682
11.1454	0.803
11.1855	0.825
11.2257	0.83
11.2658	0.818
11.3059	0.797
11.346	0.752
11.3862	0.617
11.4263	0.311
11.4664	0.475
11.5065	0.778
11.5467	0.831
11.5868	0.861
11.6269	0.871
11.667	0.883
11.7072	0.885
11.7473	0.876
11.7874	0.866
11.8275	0.855
11.8677	0.843
11.9078	0.825
11.9479	0.777
11.988	0.698
12.0282	0.545
12.0683	0.276
12.1084	0.069
12.1485	0.073
12.1887	0.334
12.2288	0.559
12.2689	0.599
12.309	0.482
12.3492	0.5
12.3893	0.539
12.4294	0.63
12.4695	0.733
12.5097	0.787
12.5498	0.808
12.5899	0.823
12.63	0.803
12.6702	0.692
12.7103	0.574
12.7504	0.61
12.7905	0.783
12.8307	0.84
12.8708	0.853
12.9109	0.851
12.951	0.831
12.9912	0.777
13.0313	0.692
13.0714	0.442
13.1115	0.174
13.1516	0.109
13.1918	0.244
13.2319	0.399
13.272	0.51
13.3121	0.61
13.3523	0.698
13.3924	0.753
13.4325	0.793
13.4726	0.808
13.5128	0.833
13.5529	0.843
13.593	0.851
13.6331	0.86
13.6733	0.863
13.7134	0.866
13.7535	0.863
13.7936	0.853
13.8338	0.843
13.8739	0.828
13.914	0.793
13.9541	0.71
13.9943	0.555
14.0344	0.44
14.0745	0.319
14.1146	0.183
14.1548	0.292
14.1949	0.527
14.235	0.685
14.2751	0.763
14.3153	0.79
14.3554	0.797
14.3955	0.808
14.4356	0.83
14.4758	0.836
14.5159	0.841
14.556	0.845
14.5961	0.846
14.6363	0.846
14.6764	0.848
14.7165	0.851
14.7566	0.851
14.7968	0.853
14.8369	0.855
14.877	0.86
14.9171	0.85
14.9573	0.861
14.9974	0.851
15.0375	0.846
15.0776	0.855
15.1178	0.861
15.1579	0.861
15.198	0.856
15.2381	0.856
15.2783	0.851
15.3184	0.856
15.3585	0.848
15.3986	0.855
15.4388	0.855
15.4789	0.858
15.519	0.855
15.5591	0.853
15.5993	0.855
15.6394	0.848
15.6795	0.855
15.7196	0.851
15.7598	0.85
15.7999	0.853
15.84	0.848
15.8801	0.841
