Infrared Spectrum: Cyclobutanecarboxylic acid
Formula: C5 H8 O2
CAS: 3721-95-7
State: LIQUID (NEAT)
Class: COBLENTZ III
Instrument: DOW KBr FOREPRISM-GRATING
Instrument parameters: BLAZED AT 3.5, 12.0, 20.0 MICRON AND CHANGED AT 5.0, 7.5, 14.9 MICRON
Sampling: TRANSMISSION
Path length: CAPILLARY
Resolution: 2
Origin: DOW CHEMICAL COMPANY
1/CM	TRANSMITTANCE
458	0.8061
467	0.8107
476	0.8181
485	0.8275
494	0.829
503	0.829
512	0.8336
521	0.8394
530	0.8444
539	0.8499
548	0.8547
557	0.8551
566	0.8551
575	0.8535
584	0.8501
593	0.8492
602	0.8548
611	0.8626
620	0.8756
629	0.8797
638	0.8754
647	0.8654
656	0.8471
665	0.8254
674	0.7687
683	0.7771
692	0.8157
701	0.8406
710	0.8439
719	0.8405
728	0.8336
737	0.8408
746	0.8505
755	0.8455
764	0.8285
773	0.8134
782	0.8255
791	0.8174
800	0.808
809	0.8061
818	0.81
827	0.8123
836	0.8108
845	0.8059
854	0.7988
863	0.7891
872	0.773
881	0.7556
890	0.7385
899	0.7085
908	0.6718
917	0.6348
926	0.6253
935	0.6302
944	0.6515
953	0.6766
962	0.741
971	0.7865
980	0.8155
989	0.837
998	0.8378
1007	0.8338
1016	0.828
1025	0.826
1034	0.8178
1043	0.7906
1052	0.8012
1061	0.8231
1070	0.8193
1079	0.8104
1088	0.8085
1097	0.7804
1106	0.7755
1115	0.8192
1124	0.816
1133	0.8002
1142	0.7699
1151	0.7403
1160	0.7089
1169	0.676
1178	0.651
1187	0.6403
1196	0.6061
1205	0.5518
1214	0.5165
1223	0.4797
1232	0.4858
1241	0.5492
1250	0.4931
1259	0.3647
1268	0.4757
1277	0.6117
1286	0.604
1295	0.5864
1304	0.671
1313	0.7062
1322	0.6741
1331	0.6426
1340	0.668
1349	0.7353
1358	0.7642
1367	0.769
1376	0.7467
1385	0.7298
1394	0.693
1403	0.6237
1412	0.5285
1421	0.449
1430	0.4993
1439	0.5757
1448	0.6505
1457	0.7173
1466	0.7338
1475	0.7563
1484	0.7914
1493	0.8165
1502	0.8284
1511	0.8309
1520	0.8294
1529	0.8283
1538	0.8317
1547	0.8358
1556	0.8371
1565	0.8347
1574	0.8304
1583	0.8268
1592	0.8199
1601	0.806
1610	0.8005
1619	0.7899
1628	0.7717
1637	0.7511
1646	0.725
1655	0.6895
1664	0.6404
1673	0.5712
1682	0.4737
1691	0.2712
1700	0.1117
1709	0.1143
1718	0.2024
1727	0.3944
1736	0.447
1745	0.536
1754	0.6929
1763	0.7538
1772	0.7883
1781	0.8007
1790	0.808
1799	0.8096
1808	0.8121
1817	0.8141
1826	0.8166
1835	0.819
1844	0.8204
1853	0.8217
1862	0.823
1871	0.8244
1880	0.8262
1889	0.8281
1898	0.8296
1907	0.8311
1916	0.8318
1925	0.8325
1934	0.8333
1943	0.8338
1952	0.8333
1961	0.8327
1970	0.8328
1979	0.833
1988	0.8335
1997	0.8347
2006	0.8365
2015	0.838
2024	0.8392
2033	0.8397
2042	0.839
2051	0.8382
2060	0.8372
2069	0.8359
2078	0.8347
2087	0.8332
2096	0.832
2105	0.8305
2114	0.8293
2123	0.828
2132	0.8264
2141	0.8248
2150	0.8239
2159	0.8236
2168	0.824
2177	0.8243
2186	0.8243
2195	0.8237
2204	0.8213
2213	0.8189
2222	0.8165
2231	0.8138
2240	0.8108
2249	0.8079
2258	0.8062
2267	0.8046
2276	0.8026
2285	0.8003
2294	0.7977
2303	0.794
2312	0.7903
2321	0.7859
2330	0.7814
2339	0.7769
2348	0.7724
2357	0.7678
2366	0.7628
2375	0.7574
2384	0.752
2393	0.7465
2402	0.7411
2411	0.735
2420	0.7276
2429	0.7202
2438	0.713
2447	0.7061
2456	0.7006
2465	0.6946
2474	0.6895
2483	0.6845
2492	0.6762
2501	0.6583
2510	0.6442
2519	0.6333
2528	0.623
2537	0.6128
2546	0.5997
2555	0.5968
2564	0.597
2573	0.5976
2582	0.5976
2591	0.5973
2600	0.5949
2609	0.5867
2618	0.576
2627	0.5636
2636	0.5543
2645	0.5434
2654	0.534
2663	0.5323
2672	0.5395
2681	0.5527
2690	0.5671
2699	0.5758
2708	0.5743
2717	0.5696
2726	0.562
2735	0.5518
2744	0.5488
2753	0.5502
2762	0.5592
2771	0.566
2780	0.5662
2789	0.5619
2798	0.5525
2807	0.5404
2816	0.5262
2825	0.5094
2834	0.4902
2843	0.4682
2852	0.4385
2861	0.4047
2870	0.3777
2879	0.3998
2888	0.3953
2897	0.3742
2906	0.3576
2915	0.3393
2924	0.3197
2933	0.3025
2942	0.2799
2951	0.2366
2960	0.253
2969	0.2827
2978	0.2812
2987	0.2666
2996	0.2718
3005	0.321
3014	0.3691
3023	0.3864
3032	0.3955
3041	0.4031
3050	0.4124
3059	0.4186
3068	0.4218
3077	0.4252
3086	0.4287
3095	0.4327
3104	0.4364
3113	0.4411
3122	0.4502
3131	0.465
3140	0.4774
3149	0.4878
3158	0.498
3167	0.5079
3176	0.5175
3185	0.527
3194	0.5364
3203	0.545
3212	0.5537
3221	0.5626
3230	0.5717
3239	0.5809
3248	0.5907
3257	0.6005
3266	0.6105
3275	0.6209
3284	0.6313
3293	0.6414
3302	0.6512
3311	0.6598
3320	0.6685
3329	0.6764
3338	0.684
3347	0.6915
3356	0.699
3365	0.7063
3374	0.7137
3383	0.7207
3392	0.7272
3401	0.7336
3410	0.7394
3419	0.7445
3428	0.7497
3437	0.7538
3446	0.758
3455	0.762
3464	0.7661
3473	0.77
3482	0.774
3491	0.7774
3500	0.7808
3509	0.7841
3518	0.7871
3527	0.7893
3536	0.7915
3545	0.7936
3554	0.7964
3563	0.7991
3572	0.8019
3581	0.8047
3590	0.8075
3599	0.8094
3608	0.811
3617	0.8126
3626	0.814
3635	0.8151
3644	0.8164
3653	0.8174
3662	0.8186
3671	0.8196
3680	0.8199
3689	0.8202
3698	0.8205
3707	0.8207
3716	0.821
3725	0.8212
3734	0.8212
3743	0.8207
3752	0.8203
3761	0.8197
3770	0.819
3779	0.8183
3788	0.8181
3797	0.818
3806	0.8181
