Infrared Spectrum: 9-n-DODECYL-PHENANTHRENE
Formula: C26 H34
CAS: 3788-61-2
State: SOLID (1% IN KI)
Class: COBLENTZ
Instrument: Not specified, most likely a prism, grating, or hybrid spectrometer.
Sampling: TRANSMISSION
Resolution: 4
Origin: CENTRE D'ETUDES NUCLEAIRES DE GRENOBLE
MICROMETERS	TRANSMITTANCE
2.052	0.713
2.09206	0.714
2.13212	0.716
2.17218	0.719
2.21224	0.723
2.2523	0.731
2.29236	0.724
2.33243	0.718
2.37249	0.724
2.41255	0.731
2.45261	0.738
2.49267	0.75
2.53273	0.755
2.57279	0.763
2.61285	0.765
2.65291	0.763
2.69297	0.776
2.73303	0.773
2.77309	0.776
2.81315	0.761
2.85322	0.756
2.89328	0.748
2.93334	0.753
2.9734	0.761
3.01346	0.771
3.05352	0.786
3.09358	0.791
3.13364	0.79
3.1737	0.783
3.21376	0.79
3.25382	0.753
3.29388	0.567
3.33395	0.617
3.37401	0.672
3.41407	0.328
3.45413	0.105
3.49419	0.236
3.53425	0.327
3.57431	0.523
3.61437	0.755
3.65443	0.803
3.69449	0.818
3.73455	0.827
3.77461	0.832
3.81467	0.827
3.85474	0.833
3.8948	0.845
3.93486	0.855
3.97492	0.864
4.01498	0.869
4.05504	0.872
4.0951	0.877
4.13516	0.882
4.17522	0.885
4.21528	0.885
4.25534	0.882
4.2954	0.877
4.33546	0.874
4.37553	0.874
4.41559	0.879
4.45565	0.885
4.49571	0.89
4.53577	0.892
4.57583	0.895
4.61589	0.899
4.65595	0.901
4.69601	0.901
4.73607	0.901
4.77613	0.901
4.81619	0.901
4.85625	0.901
4.89632	0.899
4.93638	0.895
4.97644	0.897
5.0165	0.904
5.05656	0.907
5.09662	0.902
5.13668	0.892
5.17674	0.838
5.2168	0.879
5.25686	0.84
5.29692	0.879
5.33698	0.862
5.37704	0.906
5.41711	0.904
5.45717	0.895
5.49723	0.887
5.53729	0.887
5.57735	0.885
5.61741	0.885
5.65747	0.884
5.69753	0.884
5.73759	0.882
5.77765	0.882
5.81771	0.879
5.85777	0.874
5.89784	0.867
5.9379	0.857
5.97796	0.859
6.01802	0.865
6.05808	0.87
6.09814	0.865
6.1382	0.842
6.17826	0.721
6.21832	0.738
6.25838	0.713
6.29844	0.731
6.3385	0.833
6.37856	0.857
6.41863	0.87
6.45869	0.889
6.49875	0.89
6.53881	0.879
6.57887	0.832
6.61893	0.847
6.65899	0.86
6.69905	0.791
6.73911	0.567
6.77917	0.778
6.81923	0.724
6.85929	0.218
6.89935	0.639
6.93942	0.506
6.97948	0.676
7.01954	0.523
7.0596	0.604
7.09966	0.761
7.13972	0.842
7.17978	0.825
7.21984	0.835
7.2599	0.832
7.29996	0.808
7.34002	0.8
7.38008	0.854
7.42014	0.867
7.46021	0.854
7.50027	0.887
7.54033	0.86
7.58039	0.889
7.62045	0.894
7.66051	0.825
7.70057	0.743
7.74063	0.854
7.78069	0.87
7.82075	0.877
7.86081	0.875
7.90087	0.88
7.94093	0.889
7.981	0.852
8.02106	0.761
8.06112	0.701
8.10118	0.843
8.14124	0.874
8.1813	0.852
8.22136	0.847
8.26142	0.835
8.30148	0.773
8.34154	0.857
8.3816	0.867
8.42166	0.867
8.46173	0.885
8.50179	0.89
8.54185	0.86
8.58191	0.833
8.62197	0.879
8.66203	0.833
8.70209	0.796
8.74215	0.734
8.78221	0.854
8.82227	0.895
8.86233	0.897
8.90239	0.87
8.94245	0.889
8.98252	0.894
9.02258	0.882
9.06264	0.872
9.1027	0.895
9.14276	0.906
9.18282	0.909
9.22288	0.906
9.26294	0.902
9.303	0.901
9.34306	0.909
9.38312	0.901
9.42318	0.889
9.46324	0.895
9.50331	0.899
9.54337	0.842
9.58343	0.812
9.62349	0.82
9.66355	0.862
9.70361	0.877
9.74367	0.892
9.78373	0.899
9.82379	0.902
9.86385	0.899
9.90391	0.911
9.94397	0.901
9.98403	0.803
10.0241	0.854
10.0642	0.885
10.1042	0.894
10.1443	0.897
10.1843	0.889
10.2244	0.877
10.2645	0.874
10.3045	0.845
10.3446	0.771
10.3846	0.822
10.4247	0.803
10.4648	0.847
10.5048	0.872
10.5449	0.776
10.5849	0.76
10.625	0.818
10.6651	0.921
10.7051	0.926
10.7452	0.934
10.7853	0.929
10.8253	0.934
10.8654	0.931
10.9054	0.932
10.9455	0.924
10.9856	0.921
11.0256	0.904
11.0657	0.887
11.1057	0.855
11.1458	0.786
11.1859	0.692
11.2259	0.8
11.266	0.832
11.306	0.854
11.3461	0.85
11.3862	0.765
11.4262	0.563
11.4663	0.791
11.5063	0.887
11.5464	0.875
11.5865	0.852
11.6265	0.887
11.6666	0.802
11.7066	0.711
11.7467	0.796
11.7868	0.848
11.8268	0.892
11.8669	0.911
11.907	0.916
11.947	0.902
11.9871	0.892
12.0271	0.81
12.0672	0.845
12.1073	0.897
12.1473	0.917
12.1874	0.926
12.2274	0.919
12.2675	0.912
12.3076	0.902
12.3476	0.904
12.3877	0.906
12.4277	0.897
12.4678	0.906
12.5079	0.895
12.5479	0.872
12.588	0.822
12.628	0.733
12.6681	0.791
12.7082	0.848
12.7482	0.859
12.7883	0.882
12.8284	0.865
12.8684	0.854
12.9085	0.86
12.9485	0.85
12.9886	0.827
13.0287	0.692
13.0687	0.682
13.1088	0.78
13.1488	0.755
13.1889	0.758
13.229	0.771
13.269	0.677
13.3091	0.546
13.3491	0.401
13.3892	0.285
13.4293	0.231
13.4693	0.244
13.5094	0.25
13.5494	0.234
13.5895	0.213
13.6296	0.161
13.6696	0.208
13.7097	0.296
13.7497	0.404
13.7898	0.437
13.8299	0.318
13.8699	0.176
13.91	0.14
13.9501	0.347
13.9901	0.563
14.0302	0.656
14.0702	0.756
14.1103	0.832
14.1504	0.852
14.1904	0.865
14.2305	0.892
14.2705	0.895
14.3106	0.897
14.3507	0.907
14.3907	0.906
14.4308	0.904
14.4708	0.911
14.5109	0.914
14.551	0.907
14.591	0.906
14.6311	0.911
14.6711	0.909
14.7112	0.901
14.7513	0.907
14.7913	0.914
14.8314	0.916
14.8715	0.914
14.9115	0.916
14.9516	0.921
14.9916	0.912
15.0317	0.902
15.0718	0.895
15.1118	0.865
15.1519	0.825
15.1919	0.813
15.232	0.838
15.2721	0.874
15.3121	0.892
15.3522	0.906
15.3922	0.912
15.4323	0.912
15.4724	0.911
15.5124	0.907
15.5525	0.906
15.5925	0.907
15.6326	0.909
15.6727	0.911
15.7127	0.909
15.7528	0.909
15.7928	0.907
15.8329	0.906
15.873	0.904
