Infrared Spectrum: Silane, fluorotriphenyl-
Formula: C18 H15 F Si
CAS: 379-50-0
State: SOLUTION (10% CCl4 FOR 3800-1330, 10% CS2 FOR 1330-400 CM^-^1) VS SOLVENT
Class: COBLENTZ II
Instrument: BECKMAN IR-9 (GRATING)
Instrument parameters: ORDER CHANGES: 670, 1200, 2000 CM^-^1
Sampling: TRANSMISSION
Path length: 0.011 CM, 0.011 CM
Resolution: 2
Origin: DOW CHEMICAL COMPANY
1/CM	TRANSMITTANCE
3800	0.8865
3791	0.8864
3782	0.8864
3773	0.8867
3764	0.8868
3755	0.8863
3746	0.8856
3737	0.8846
3728	0.8833
3719	0.8805
3710	0.8738
3701	0.8654
3692	0.8657
3683	0.8744
3674	0.8812
3665	0.8834
3656	0.8818
3647	0.8765
3638	0.8797
3629	0.8835
3620	0.8873
3611	0.8903
3602	0.8921
3593	0.8925
3584	0.8924
3575	0.8918
3566	0.8913
3557	0.8908
3548	0.8901
3539	0.8891
3530	0.8882
3521	0.8871
3512	0.8856
3503	0.884
3494	0.8827
3485	0.882
3476	0.8814
3467	0.8807
3458	0.8806
3449	0.8808
3440	0.8809
3431	0.8811
3422	0.8818
3413	0.8824
3404	0.8831
3395	0.8838
3386	0.8844
3377	0.885
3368	0.8857
3359	0.8864
3350	0.8871
3341	0.888
3332	0.8887
3323	0.8894
3314	0.8901
3305	0.8908
3296	0.8914
3287	0.8916
3278	0.8918
3269	0.892
3260	0.8923
3251	0.8924
3242	0.893
3233	0.8937
3224	0.8933
3215	0.8925
3206	0.8914
3197	0.8899
3188	0.8889
3179	0.8878
3170	0.8855
3161	0.8811
3152	0.8732
3143	0.8101
3134	0.8666
3125	0.8689
3116	0.8598
3107	0.8146
3098	0.6864
3089	0.6951
3080	0.3059
3071	0.4829
3062	0.447
3053	0.4984
3044	0.6776
3035	0.577
3026	0.6135
3017	0.5858
3008	0.6001
2999	0.7851
2990	0.8384
2981	0.8616
2972	0.8728
2963	0.8806
2954	0.8845
2945	0.8861
2936	0.8821
2927	0.8661
2918	0.8582
2909	0.8755
2900	0.8794
2891	0.8888
2882	0.8936
2873	0.8902
2864	0.885
2855	0.8874
2846	0.8896
2837	0.8847
2828	0.8827
2819	0.8875
2810	0.8917
2801	0.8937
2792	0.8947
2783	0.8949
2774	0.8951
2765	0.8949
2756	0.8946
2747	0.8941
2738	0.8933
2729	0.8892
2720	0.882
2711	0.877
2702	0.8843
2693	0.888
2684	0.8896
2675	0.8911
2666	0.8921
2657	0.8927
2648	0.8933
2639	0.8927
2630	0.8878
2621	0.8828
2612	0.8889
2603	0.8896
2594	0.8802
2585	0.8868
2576	0.8912
2567	0.8917
2558	0.8928
2549	0.894
2540	0.8952
2531	0.8949
2522	0.8945
2513	0.8941
2504	0.8943
2495	0.8945
2486	0.8949
2477	0.8949
2468	0.8948
2459	0.8946
2450	0.8945
2441	0.8951
2432	0.8958
2423	0.8956
2414	0.8952
2405	0.8947
2396	0.8952
2387	0.8925
2378	0.8866
2369	0.8832
2360	0.8845
2351	0.888
2342	0.8859
2333	0.878
2324	0.881
2315	0.8887
2306	0.8904
2297	0.8908
2288	0.8911
2279	0.8909
2270	0.8901
2261	0.8877
2252	0.8852
2243	0.8817
2234	0.8838
2225	0.8896
2216	0.891
2207	0.8913
2198	0.8915
2189	0.8917
2180	0.8918
2171	0.892
2162	0.8921
2153	0.8924
2144	0.8925
2135	0.8928
2126	0.8934
2117	0.8939
2108	0.8945
2099	0.8948
2090	0.8951
2081	0.8954
2072	0.8952
2063	0.8949
2054	0.8946
2045	0.8941
2036	0.8924
2027	0.8916
2018	0.8916
2009	0.8956
2000	0.901
1991	0.8864
1982	0.8668
1973	0.8295
1964	0.8208
1955	0.8148
1946	0.8825
1937	0.8883
1928	0.8886
1919	0.8756
1910	0.8231
1901	0.8283
1892	0.7885
1883	0.8394
1874	0.8831
1865	0.8885
1856	0.8868
1847	0.8705
1838	0.8395
1829	0.8088
1820	0.7958
1811	0.8783
1802	0.8837
1793	0.8868
1784	0.8821
1775	0.8458
1766	0.8611
1757	0.8896
1748	0.8945
1739	0.896
1730	0.8943
1721	0.8865
1712	0.8845
1703	0.8889
1694	0.8855
1685	0.8842
1676	0.8745
1667	0.8405
1658	0.8342
1649	0.8687
1640	0.8785
1631	0.8857
1622	0.8555
1613	0.8612
1604	0.8652
1595	0.5006
1586	0.7922
1577	0.8731
1568	0.7988
1559	0.8901
1550	0.8994
1541	0.9078
1532	0.9053
1523	0.9013
1514	0.8959
1505	0.8865
1496	0.8653
1487	0.6819
1478	0.8731
1469	0.874
1460	0.8718
1451	0.8609
1442	0.8218
1433	0.1442
1424	0.6728
1415	0.838
1406	0.8686
1397	0.8625
1388	0.8417
1379	0.7931
1370	0.8351
1361	0.8475
1352	0.8655
1343	0.8383
1334	0.775
1325	0.8239
1316	0.8423
1307	0.7771
1298	0.8205
1289	0.8449
1280	0.8499
1271	0.8046
1262	0.8024
1253	0.8404
1244	0.8525
1235	0.8542
1226	0.8542
1217	0.8478
1208	0.8357
1199	0.7933
1190	0.5899
1181	0.77
1172	0.7975
1163	0.7658
1154	0.7335
1145	0.6974
1136	0.5523
1127	0.0113
1118	0.1472
1109	0.3045
1100	0.7096
1091	0.7307
1082	0.8036
1073	0.8068
1064	0.8067
1055	0.835
1046	0.8487
1037	0.8509
1028	0.7968
1019	0.851
1010	0.8432
1001	0.7075
992	0.8171
983	0.8241
974	0.8205
965	0.8389
956	0.8486
947	0.8498
938	0.8487
929	0.8374
920	0.8064
911	0.83
902	0.8373
893	0.832
884	0.8154
875	0.7515
866	0.5844
857	0.2881
848	0.0408
839	0.2467
830	0.6344
821	0.7925
812	0.8055
803	0.8168
794	0.8347
785	0.8521
776	0.8256
767	0.8188
758	0.7943
749	0.6549
740	0.0903
731	0.476
722	0.105
713	0.0445
704	0.121
695	0.1087
686	0.6421
677	0.6608
668	0.7583
659	0.8238
650	0.8323
641	0.8491
632	0.8491
623	0.8299
614	0.8386
605	0.8493
596	0.8443
587	0.8411
578	0.8391
569	0.8363
560	0.8297
551	0.8187
542	0.7925
533	0.7546
524	0.4815
515	0
506	0.1594
497	0.6024
488	0.6299
479	0.5679
470	0.6549
461	0.7538
452	0.7225
443	0.6425
434	0.6614
425	0.7355
416	0.6603
407	0.5671
398	0.5517
