Infrared Spectrum: DL-TRANS-5,6-DI-TERT-BUTYL-2-HYDROXY-1,4-DIKETO-2-CYCLOHEXENE
Formula: C14 H22 O3
CAS: 3791-04-6
State: SOLID (KBr PELLET)
Melting point: 134-135 C
Class: COBLENTZ
Instrument: Not specified, most likely a prism, grating, or hybrid spectrometer.
Sampling: TRANSMISSION
Resolution: 4
Origin: TENNESSEE EASTMAN COMPANY, RESEARCH LABORATORIES
MICROMETERS	TRANSMITTANCE
2.013	0.915
2.05281	0.911
2.09262	0.911
2.13243	0.911
2.17225	0.91
2.21206	0.905
2.25187	0.893
2.29168	0.89
2.33149	0.89
2.3713	0.89
2.41111	0.892
2.45093	0.893
2.49074	0.897
2.53055	0.898
2.57036	0.897
2.61017	0.897
2.64998	0.9
2.68979	0.898
2.72961	0.885
2.76942	0.84
2.80923	0.813
2.84904	0.79
2.88885	0.759
2.92866	0.714
2.96847	0.662
3.00828	0.609
3.0481	0.536
3.08791	0.441
3.12772	0.383
3.16753	0.357
3.20734	0.352
3.24715	0.385
3.28696	0.431
3.32678	0.362
3.36659	0.202
3.4064	0.411
3.44621	0.48
3.48602	0.669
3.52583	0.724
3.56564	0.752
3.60546	0.782
3.64527	0.8
3.68508	0.817
3.72489	0.83
3.7647	0.833
3.80451	0.837
3.84432	0.843
3.88414	0.855
3.92395	0.863
3.96376	0.87
4.00357	0.88
4.04338	0.883
4.08319	0.885
4.123	0.885
4.16282	0.888
4.20263	0.905
4.24244	0.905
4.28225	0.908
4.32206	0.908
4.36187	0.916
4.40168	0.923
4.4415	0.928
4.48131	0.928
4.52112	0.928
4.56093	0.93
4.60074	0.93
4.64055	0.931
4.68036	0.931
4.72017	0.931
4.75999	0.935
4.7998	0.935
4.83961	0.935
4.87942	0.935
4.91923	0.935
4.95904	0.936
4.99885	0.943
5.03867	0.941
5.07848	0.94
5.11829	0.94
5.1581	0.941
5.19791	0.943
5.23772	0.941
5.27753	0.941
5.31735	0.941
5.35716	0.938
5.39697	0.935
5.43678	0.935
5.47659	0.935
5.5164	0.933
5.55621	0.928
5.59603	0.923
5.63584	0.915
5.67565	0.905
5.71546	0.885
5.75527	0.862
5.79508	0.827
5.83489	0.77
5.87471	0.602
5.91452	0.212
5.95433	0.325
5.99414	0.44
6.03395	0.292
6.07376	0.058
6.11357	0.038
6.15339	0.152
6.1932	0.373
6.23301	0.539
6.27282	0.647
6.31263	0.7
6.35244	0.742
6.39225	0.767
6.43206	0.792
6.47188	0.8
6.51169	0.805
6.5515	0.807
6.59131	0.81
6.63112	0.815
6.67093	0.79
6.71074	0.614
6.75056	0.433
6.79037	0.504
6.83018	0.7
6.86999	0.737
6.9098	0.725
6.94961	0.73
6.98942	0.705
7.02924	0.639
7.06905	0.483
7.10886	0.282
7.14867	0.217
7.18848	0.127
7.22829	0.083
7.2681	0.034
7.30792	0.053
7.34773	0.322
7.38754	0.476
7.42735	0.591
7.46716	0.571
7.50697	0.506
7.54678	0.461
7.5866	0.583
7.62641	0.709
7.66622	0.75
7.70603	0.692
7.74584	0.659
7.78565	0.784
7.82546	0.828
7.86528	0.832
7.90509	0.813
7.9449	0.775
7.98471	0.757
8.02452	0.7
8.06433	0.549
8.10414	0.343
8.14395	0.217
8.18377	0.2
8.22358	0.255
8.26339	0.279
8.3032	0.272
8.34301	0.207
8.38282	0.152
8.42263	0.131
8.46245	0.117
8.50226	0.137
8.54207	0.217
8.58188	0.295
8.62169	0.362
8.6615	0.405
8.70131	0.411
8.74113	0.411
8.78094	0.524
8.82075	0.602
8.86056	0.651
8.90037	0.679
8.94018	0.702
8.97999	0.724
9.01981	0.74
9.05962	0.752
9.09943	0.767
9.13924	0.779
9.17905	0.785
9.21886	0.79
9.25867	0.792
9.29849	0.79
9.3383	0.772
9.37811	0.679
9.41792	0.566
9.45773	0.666
9.49754	0.784
9.53735	0.818
9.57717	0.833
9.61698	0.84
9.65679	0.833
9.6966	0.802
9.73641	0.797
9.77622	0.775
9.81603	0.782
9.85585	0.77
9.89566	0.817
9.93547	0.86
9.97528	0.883
10.0151	0.895
10.0549	0.9
10.0947	0.901
10.1345	0.906
10.1743	0.908
10.2141	0.911
10.254	0.913
10.2938	0.915
10.3336	0.92
10.3734	0.923
10.4132	0.923
10.453	0.923
10.4928	0.92
10.5326	0.91
10.5725	0.897
10.6123	0.875
10.6521	0.88
10.6919	0.893
10.7317	0.892
10.7715	0.888
10.8113	0.885
10.8511	0.86
10.8909	0.872
10.9308	0.89
10.9706	0.888
11.0104	0.837
11.0502	0.765
11.09	0.767
11.1298	0.825
11.1696	0.863
11.2094	0.872
11.2492	0.862
11.2891	0.799
11.3289	0.754
11.3687	0.705
11.4085	0.7
11.4483	0.747
11.4881	0.754
11.5279	0.737
11.5677	0.757
11.6075	0.8
11.6474	0.828
11.6872	0.838
11.727	0.843
11.7668	0.843
11.8066	0.843
11.8464	0.842
11.8862	0.837
11.926	0.83
11.9658	0.822
12.0057	0.815
12.0455	0.803
12.0853	0.795
12.1251	0.787
12.1649	0.797
12.2047	0.822
12.2445	0.835
12.2843	0.835
12.3242	0.835
12.364	0.827
12.4038	0.812
12.4436	0.79
12.4834	0.777
12.5232	0.767
12.563	0.764
12.6028	0.76
12.6426	0.76
12.6825	0.76
12.7223	0.76
12.7621	0.762
12.8019	0.765
12.8417	0.767
12.8815	0.767
12.9213	0.772
12.9611	0.78
13.0009	0.787
13.0408	0.792
13.0806	0.795
13.1204	0.797
13.1602	0.799
13.2	0.799
13.2398	0.79
13.2796	0.774
13.3194	0.764
13.3592	0.764
13.3991	0.782
13.4389	0.795
13.4787	0.803
13.5185	0.815
13.5583	0.82
13.5981	0.822
13.6379	0.827
13.6777	0.828
13.7176	0.83
13.7574	0.833
13.7972	0.84
13.837	0.843
13.8768	0.847
13.9166	0.85
13.9564	0.853
13.9962	0.857
14.036	0.86
14.0759	0.862
14.1157	0.863
14.1555	0.863
14.1953	0.863
14.2351	0.862
14.2749	0.858
14.3147	0.843
14.3545	0.827
14.3943	0.815
14.4342	0.81
14.474	0.805
14.5138	0.812
14.5536	0.818
14.5934	0.825
14.6332	0.83
14.673	0.833
14.7128	0.835
14.7526	0.837
14.7925	0.84
14.8323	0.842
14.8721	0.842
14.9119	0.842
14.9517	0.842
14.9915	0.838
15.0313	0.832
15.0711	0.827
15.1109	0.82
15.1508	0.807
15.1906	0.799
15.2304	0.795
15.2702	0.795
15.31	0.795
15.3498	0.794
15.3896	0.792
15.4294	0.787
15.4693	0.785
15.5091	0.784
15.5489	0.782
15.5887	0.78
15.6285	0.78
15.6683	0.777
15.7081	0.775
15.7479	0.774
15.7877	0.77
15.8276	0.77
15.8674	0.767
15.9072	0.767
15.947	0.767
15.9868	0.767
