Infrared Spectrum: FLUOROTRIPHENYLSILANE
Formula: C18 H15 F Si
CAS: 379-50-0
State: SOLID (KBr WAFER)
Class: COBLENTZ
Instrument: BECKMAN IR-4 (HYBRID PRISM-GRATING)
Sampling: TRANSMISSION
Resolution: 4
Origin: PENINSULAR CHEMRESEARCH, INC., GAINESVILLE, FLORIDA
MICROMETERS	TRANSMITTANCE
2.015	0.701
2.05001	0.709
2.08503	0.712
2.12004	0.711
2.15505	0.719
2.19007	0.723
2.22508	0.731
2.26009	0.739
2.29511	0.739
2.33012	0.744
2.36513	0.75
2.40015	0.755
2.43516	0.753
2.47018	0.761
2.50519	0.772
2.5402	0.768
2.57522	0.772
2.61023	0.776
2.64524	0.771
2.68026	0.773
2.71527	0.772
2.75028	0.762
2.7853	0.751
2.82031	0.741
2.85532	0.738
2.89034	0.744
2.92535	0.763
2.96036	0.78
2.99538	0.805
3.03039	0.816
3.0654	0.831
3.10042	0.847
3.13543	0.856
3.17044	0.85
3.20546	0.829
3.24047	0.751
3.27548	0.772
3.3105	0.801
3.34551	0.859
3.38053	0.868
3.41554	0.868
3.45055	0.881
3.48557	0.891
3.52058	0.902
3.55559	0.904
3.59061	0.907
3.62562	0.908
3.66063	0.909
3.69565	0.914
3.73066	0.919
3.76567	0.918
3.80069	0.914
3.8357	0.917
3.87071	0.918
3.90573	0.924
3.94074	0.914
3.97575	0.919
4.01077	0.923
4.04578	0.92
4.08079	0.918
4.11581	0.918
4.15082	0.919
4.18583	0.908
4.22085	0.917
4.25586	0.92
4.29087	0.92
4.32589	0.909
4.3609	0.912
4.39592	0.905
4.43093	0.907
4.46594	0.909
4.50096	0.918
4.53597	0.919
4.57098	0.92
4.606	0.919
4.64101	0.919
4.67602	0.919
4.71104	0.92
4.74605	0.922
4.78106	0.922
4.81608	0.924
4.85109	0.928
4.8861	0.925
4.92112	0.922
4.95613	0.92
4.99114	0.908
5.02616	0.893
5.06117	0.89
5.09618	0.928
5.1312	0.927
5.16621	0.913
5.20122	0.899
5.23624	0.894
5.27125	0.92
5.30627	0.929
5.34128	0.922
5.37629	0.909
5.41131	0.902
5.44632	0.902
5.48133	0.929
5.51635	0.929
5.55136	0.919
5.58637	0.918
5.62139	0.929
5.6564	0.93
5.69141	0.92
5.72643	0.918
5.76144	0.915
5.79645	0.918
5.83147	0.912
5.86648	0.91
5.90149	0.902
5.93651	0.893
5.97152	0.889
6.00653	0.893
6.04155	0.9
6.07656	0.9
6.11158	0.895
6.14659	0.89
6.1816	0.893
6.21662	0.89
6.25163	0.836
6.28664	0.729
6.32166	0.889
6.35667	0.907
6.39168	0.918
6.4267	0.925
6.46171	0.925
6.49672	0.925
6.53174	0.922
6.56675	0.92
6.60176	0.917
6.63678	0.909
6.67179	0.88
6.7068	0.859
6.74182	0.915
6.77683	0.922
6.81184	0.927
6.84686	0.928
6.88187	0.919
6.91688	0.86
6.9519	0.518
6.98691	0.39
7.02192	0.881
7.05694	0.949
7.09195	0.968
7.12697	0.951
7.16198	0.925
7.19699	0.909
7.23201	0.913
7.26702	0.934
7.30203	0.934
7.33705	0.935
7.37206	0.935
7.40707	0.933
7.44209	0.899
7.4771	0.894
7.51211	0.904
7.54713	0.908
7.58214	0.886
7.61715	0.836
7.65217	0.868
7.68718	0.915
7.72219	0.924
7.75721	0.93
7.79222	0.934
7.82723	0.915
7.86225	0.83
7.89726	0.82
7.93227	0.894
7.96729	0.912
8.0023	0.922
8.03732	0.927
8.07233	0.929
8.10734	0.933
8.14236	0.93
8.17737	0.933
8.21238	0.928
8.2474	0.924
8.28241	0.919
8.31742	0.91
8.35244	0.898
8.38745	0.873
8.42246	0.883
8.45748	0.893
8.49249	0.905
8.5275	0.9
8.56252	0.853
8.59753	0.827
8.63254	0.804
8.66756	0.831
8.70257	0.812
8.73758	0.797
8.7726	0.723
8.80761	0.526
8.84262	0.314
8.87764	0.082
8.91265	0.118
8.94767	0.404
8.98268	0.564
9.01769	0.64
9.05271	0.766
9.08772	0.8
9.12273	0.817
9.15775	0.827
9.19276	0.854
9.22777	0.869
9.26279	0.878
9.2978	0.873
9.33281	0.842
9.36783	0.829
9.40284	0.865
9.43785	0.881
9.47287	0.89
9.50788	0.893
9.54289	0.9
9.57791	0.907
9.61292	0.907
9.64793	0.885
9.68295	0.844
9.71796	0.869
9.75297	0.896
9.78799	0.907
9.823	0.908
9.85802	0.912
9.89303	0.914
9.92804	0.912
9.96306	0.871
9.99807	0.772
10.0331	0.768
10.0681	0.873
10.1031	0.903
10.1381	0.903
10.1731	0.895
10.2081	0.869
10.2432	0.907
10.2782	0.922
10.3132	0.928
10.3482	0.932
10.3832	0.933
10.4182	0.934
10.4532	0.935
10.4883	0.939
10.5233	0.942
10.5583	0.939
10.5933	0.934
10.6283	0.942
10.6633	0.942
10.6983	0.939
10.7334	0.934
10.7684	0.929
10.8034	0.91
10.8384	0.895
10.8734	0.929
10.9084	0.935
10.9434	0.939
10.9784	0.942
11.0135	0.937
11.0485	0.939
11.0835	0.937
11.1185	0.938
11.1535	0.934
11.1885	0.933
11.2235	0.932
11.2586	0.933
11.2936	0.929
11.3286	0.924
11.3636	0.915
11.3986	0.909
11.4336	0.904
11.4686	0.894
11.5036	0.868
11.5387	0.845
11.5737	0.825
11.6087	0.805
11.6437	0.79
11.6787	0.791
11.7137	0.788
11.7487	0.775
11.7838	0.743
11.8188	0.669
11.8538	0.542
11.8888	0.321
11.9238	0.076
11.9588	0.057
11.9938	0.192
12.0289	0.402
12.0639	0.557
12.0989	0.654
12.1339	0.714
12.1689	0.787
12.2039	0.85
12.2389	0.878
12.2739	0.891
12.309	0.896
12.344	0.902
12.379	0.907
12.414	0.91
12.449	0.912
12.484	0.914
12.519	0.917
12.5541	0.91
12.5891	0.908
12.6241	0.907
12.6591	0.902
12.6941	0.899
12.7291	0.9
12.7641	0.893
12.7991	0.896
12.8342	0.9
12.8692	0.898
12.9042	0.902
12.9392	0.898
12.9742	0.89
13.0092	0.891
13.0442	0.886
13.0793	0.881
13.1143	0.871
13.1493	0.866
13.1843	0.856
13.2193	0.845
13.2543	0.81
13.2893	0.729
13.3243	0.629
13.3594	0.599
13.3944	0.567
13.4294	0.444
13.4644	0.206
13.4994	0.241
13.5344	0.43
13.5694	0.648
13.6045	0.738
13.6395	0.776
13.6745	0.778
13.7095	0.756
13.7445	0.717
13.7795	0.615
13.8145	0.452
13.8495	0.257
13.8846	0.094
13.9196	0.041
13.9546	0.057
13.9896	0.168
14.0246	0.33
14.0596	0.471
14.0946	0.52
14.1297	0.498
14.1647	0.433
14.1997	0.322
14.2347	0.198
14.2697	0.101
14.3047	0.097
14.3397	0.15
14.3748	0.277
14.4098	0.394
14.4448	0.58
14.4798	0.687
14.5148	0.748
14.5498	0.771
14.5848	0.781
14.6198	0.781
14.6549	0.776
14.6899	0.771
14.7249	0.765
14.7599	0.76
14.7949	0.748
14.8299	0.743
14.8649	0.738
14.9	0.723
14.935	0.712
14.97	0.707
15.005	0.699
