Infrared Spectrum: Ammonium chloride, 2-chloroethyltrimethyl-, hydrated
Formula: C5 H13 Cl2 N  * x H2 O
CAS: 39394-21-3
State: SOLID (1.5 mg / 300 mg KBr DISC)
Class: COBLENTZ III
Instrument: PERKIN-ELMER 180 (GRATING)
Instrument parameters: GRATINGS: 2000, 1000, 500, 250 CM^-^1; FILTER CHANGE: 2970, 2000, 1485, 1000, 743, 500, 372, 250, 186 CM^-^1.
Sampling: TRANSMISSION
Resolution: 2
Origin: K. K. DEB-NCI FREDERICK CANCER RESEARCH CENTER
1/CM	TRANSMITTANCE
402	0.8983
411	0.8875
420	0.8911
429	0.903
438	0.8937
447	0.8073
456	0.7661
465	0.8302
474	0.8979
483	0.9126
492	0.92
501	0.9173
510	0.9102
519	0.8997
528	0.9099
537	0.9225
546	0.9253
555	0.9259
564	0.9265
573	0.9266
582	0.9262
591	0.9257
600	0.9257
609	0.9251
618	0.9243
627	0.922
636	0.9152
645	0.9
654	0.842
663	0.765
672	0.8952
681	0.9132
690	0.9161
699	0.9131
708	0.8863
717	0.8331
726	0.6053
735	0.4821
744	0.7369
753	0.8068
762	0.6874
771	0.6157
780	0.7753
789	0.8251
798	0.7447
807	0.6751
816	0.7488
825	0.8348
834	0.882
843	0.8953
852	0.8953
861	0.8553
870	0.8137
879	0.8809
888	0.8737
897	0.839
906	0.6695
915	0.2738
924	0.2928
933	0.5927
942	0.54
951	0.3739
960	0.6937
969	0.5606
978	0.3676
987	0.7003
996	0.6656
1005	0.7707
1014	0.8291
1023	0.8364
1032	0.8458
1041	0.8115
1050	0.8328
1059	0.8229
1068	0.7982
1077	0.8614
1086	0.8771
1095	0.888
1104	0.8867
1113	0.8844
1122	0.8742
1131	0.8719
1140	0.819
1149	0.846
1158	0.8838
1167	0.8906
1176	0.8947
1185	0.8991
1194	0.8937
1203	0.8914
1212	0.9006
1221	0.8972
1230	0.88
1239	0.8311
1248	0.8178
1257	0.8647
1266	0.8446
1275	0.8508
1284	0.8336
1293	0.7628
1302	0.5241
1311	0.7286
1320	0.835
1329	0.8745
1338	0.8638
1347	0.844
1356	0.844
1365	0.8672
1374	0.8596
1383	0.8403
1392	0.7603
1401	0.7695
1410	0.724
1419	0.6962
1428	0.7224
1437	0.6125
1446	0.5085
1455	0.5194
1464	0.5072
1473	0.2784
1482	0.0939
1491	0.1956
1500	0.4504
1509	0.6602
1518	0.7709
1527	0.8158
1536	0.8404
1545	0.8535
1554	0.8599
1563	0.8639
1572	0.8664
1581	0.8708
1590	0.8758
1599	0.8769
1608	0.8754
1617	0.8727
1626	0.8705
1635	0.8732
1644	0.8792
1653	0.8865
1662	0.8948
1671	0.9029
1680	0.9023
1689	0.8977
1698	0.8896
1707	0.8798
1716	0.8702
1725	0.8636
1734	0.8702
1743	0.883
1752	0.8863
1761	0.8858
1770	0.8836
1779	0.8813
1788	0.8812
1797	0.8833
1806	0.8888
1815	0.8943
1824	0.9
1833	0.9056
1842	0.9112
1851	0.917
1860	0.9229
1869	0.9281
1878	0.9316
1887	0.9328
1896	0.9327
1905	0.931
1914	0.9289
1923	0.9277
1932	0.9285
1941	0.9309
1950	0.9339
1959	0.936
1968	0.9371
1977	0.9378
1986	0.9387
1995	0.9395
2004	0.9403
2013	0.9406
2022	0.9411
2031	0.9401
2040	0.9414
2049	0.9427
2058	0.9442
2067	0.9443
2076	0.9441
2085	0.9435
2094	0.9429
2103	0.9425
2112	0.9429
2121	0.9422
2130	0.9395
2139	0.938
2148	0.9388
2157	0.9419
2166	0.9409
2175	0.9391
2184	0.9373
2193	0.9364
2202	0.9354
2211	0.9338
2220	0.9323
2229	0.9308
2238	0.9288
2247	0.9264
2256	0.9241
2265	0.9216
2274	0.9191
2283	0.9202
2292	0.9237
2301	0.9188
2310	0.9211
2319	0.9241
2328	0.9257
2337	0.9232
2346	0.9197
2355	0.9172
2364	0.9147
2373	0.912
2382	0.9092
2391	0.9068
2400	0.9051
2409	0.9034
2418	0.9028
2427	0.9021
2436	0.9025
2445	0.9031
2454	0.903
2463	0.8988
2472	0.8898
2481	0.8792
2490	0.8594
2499	0.8495
2508	0.8707
2517	0.873
2526	0.8615
2535	0.8565
2544	0.8501
2553	0.8388
2562	0.8423
2571	0.8509
2580	0.8579
2589	0.8544
2598	0.8471
2607	0.8542
2616	0.8635
2625	0.8679
2634	0.8662
2643	0.8649
2652	0.8661
2661	0.8638
2670	0.8573
2679	0.8532
2688	0.8508
2697	0.8408
2706	0.8352
2715	0.8337
2724	0.823
2733	0.8131
2742	0.7971
2751	0.7899
2760	0.7963
2769	0.7995
2778	0.7965
2787	0.7914
2796	0.7951
2805	0.7769
2814	0.7614
2823	0.7659
2832	0.7697
2841	0.7474
2850	0.7283
2859	0.7124
2868	0.6949
2877	0.676
2886	0.6584
2895	0.6423
2904	0.6216
2913	0.6015
2922	0.5769
2931	0.5504
2940	0.5234
2949	0.4753
2958	0.4285
2967	0.3508
2976	0.2404
2985	0.3232
2994	0.4078
3003	0.2533
3012	0.0414
3021	0.1621
3030	0.4983
3039	0.6704
3048	0.6931
3057	0.7084
3066	0.7177
3075	0.725
3084	0.7325
3093	0.739
3102	0.7442
3111	0.7482
3120	0.7539
3129	0.7649
3138	0.7799
3147	0.7962
3156	0.8089
3165	0.819
3174	0.8255
3183	0.8297
3192	0.8329
3201	0.8343
3210	0.8344
3219	0.8341
3228	0.8335
3237	0.8325
3246	0.831
3255	0.8294
3264	0.827
3273	0.8244
3282	0.8217
3291	0.8192
3300	0.8212
3309	0.8225
3318	0.8216
3327	0.8174
3336	0.8128
3345	0.8084
3354	0.8045
3363	0.7991
3372	0.7925
3381	0.7845
3390	0.7834
3399	0.785
3408	0.7865
3417	0.787
3426	0.786
3435	0.7857
3444	0.7886
3453	0.791
3462	0.7914
3471	0.7937
3480	0.797
3489	0.8018
3498	0.807
3507	0.812
3516	0.8171
3525	0.8234
3534	0.8308
3543	0.838
3552	0.8431
3561	0.848
3570	0.8531
3579	0.8564
3588	0.8598
3597	0.8631
3606	0.867
3615	0.8708
3624	0.8747
3633	0.8774
3642	0.8799
3651	0.882
3660	0.8827
3669	0.8808
3678	0.879
3687	0.8792
3696	0.8804
3705	0.8822
3714	0.8834
3723	0.8835
3732	0.8837
3741	0.8832
3750	0.8818
3759	0.8807
3768	0.88
3777	0.8793
3786	0.8789
