Infrared Spectrum: Ammonium chloride, 2-chloroethyltrimethyl-, hydrated
Formula: C5 H13 Cl2 N  * x H2 O
CAS: 39394-21-3
State: SOLID (1.6 mg / 350 mg KBr DISC); SAMPLE GROUND WITH SOLVENT, C2HCl3 AND DRIED
Class: COBLENTZ III
Instrument: PERKIN-ELMER 180 (GRATING)
Instrument parameters: GRATINGS: 2000, 1000, 500, 250 CM^-^1; FILTER CHANGE: 2970, 2000, 1485, 1000, 743, 500, 372, 250, 186 CM^-^1.
Sampling: TRANSMISSION
Resolution: 2
Origin: K. K. DEB-NCI FREDERICK CANCER RESEARCH CENTER
1/CM	TRANSMITTANCE
389	0.7946
398	0.7978
407	0.8
416	0.8036
425	0.8093
434	0.8067
443	0.7948
452	0.7185
461	0.7676
470	0.82
479	0.8253
488	0.8279
497	0.8171
506	0.7951
515	0.7985
524	0.807
533	0.8082
542	0.8092
551	0.8103
560	0.8116
569	0.8131
578	0.8148
587	0.8165
596	0.8181
605	0.8196
614	0.8214
623	0.8232
632	0.8244
641	0.8242
650	0.8215
659	0.8212
668	0.8236
677	0.8307
686	0.8324
695	0.8285
704	0.8236
713	0.8101
722	0.6674
731	0.4561
740	0.6594
749	0.7801
758	0.763
767	0.5901
776	0.6201
785	0.8024
794	0.779
803	0.6557
812	0.7371
821	0.8273
830	0.8373
839	0.8386
848	0.836
857	0.8327
866	0.8301
875	0.8288
884	0.8213
893	0.7981
902	0.7423
911	0.4914
920	0.2291
929	0.641
938	0.7372
947	0.4223
956	0.4031
965	0.5847
974	0.3403
983	0.7093
992	0.7843
1001	0.7888
1010	0.7888
1019	0.7908
1028	0.8013
1037	0.7979
1046	0.7728
1055	0.7377
1064	0.7798
1073	0.8069
1082	0.8133
1091	0.8155
1100	0.8136
1109	0.8131
1118	0.8115
1127	0.804
1136	0.805
1145	0.76
1154	0.8091
1163	0.8129
1172	0.8161
1181	0.8182
1190	0.8157
1199	0.8085
1208	0.8208
1217	0.82
1226	0.8128
1235	0.7462
1244	0.7655
1253	0.8093
1262	0.8062
1271	0.7809
1280	0.7993
1289	0.781
1298	0.7164
1307	0.5856
1316	0.7987
1325	0.8103
1334	0.8073
1343	0.8062
1352	0.803
1361	0.8033
1370	0.8037
1379	0.7959
1388	0.7784
1397	0.7599
1406	0.7073
1415	0.4761
1424	0.7239
1433	0.703
1442	0.6425
1451	0.6417
1460	0.5706
1469	0.4036
1478	0.1598
1487	0.1896
1496	0.4632
1505	0.6719
1514	0.7488
1523	0.7803
1532	0.792
1541	0.7982
1550	0.8005
1559	0.8026
1568	0.8049
1577	0.8047
1586	0.8022
1595	0.7973
1604	0.7912
1613	0.7849
1622	0.7792
1631	0.7808
1640	0.7882
1649	0.7943
1658	0.799
1667	0.809
1676	0.8179
1685	0.8189
1694	0.8169
1703	0.8142
1712	0.8108
1721	0.8069
1730	0.8024
1739	0.7992
1748	0.8006
1757	0.8055
1766	0.8069
1775	0.8048
1784	0.8011
1793	0.7985
1802	0.7994
1811	0.8028
1820	0.8025
1829	0.8057
1838	0.8106
1847	0.8149
1856	0.8197
1865	0.8246
1874	0.8278
1883	0.8298
1892	0.8303
1901	0.8304
1910	0.8304
1919	0.8297
1928	0.8292
1937	0.8287
1946	0.8292
1955	0.8303
1964	0.8311
1973	0.8309
1982	0.8311
1991	0.832
2000	0.8322
2009	0.8321
2018	0.8318
2027	0.8313
2036	0.831
2045	0.8306
2054	0.8302
2063	0.8299
2072	0.8297
2081	0.8294
2090	0.8292
2099	0.829
2108	0.8287
2117	0.8284
2126	0.8282
2135	0.8279
2144	0.8277
2153	0.8276
2162	0.8275
2171	0.8274
2180	0.8273
2189	0.8275
2198	0.8274
2207	0.8249
2216	0.8225
2225	0.8179
2234	0.8133
2243	0.8069
2252	0.8006
2261	0.7962
2270	0.8022
2279	0.81
2288	0.8187
2297	0.8205
2306	0.8194
2315	0.8183
2324	0.8173
2333	0.8165
2342	0.8163
2351	0.8143
2360	0.8088
2369	0.8115
2378	0.8148
2387	0.8117
2396	0.8112
2405	0.8105
2414	0.8087
2423	0.8077
2432	0.8078
2441	0.8084
2450	0.8092
2459	0.8054
2468	0.7996
2477	0.7884
2486	0.7722
2495	0.7745
2504	0.7865
2513	0.7832
2522	0.7712
2531	0.7612
2540	0.7545
2549	0.7586
2558	0.7673
2567	0.7746
2576	0.767
2585	0.7594
2594	0.7623
2603	0.7674
2612	0.7759
2621	0.785
2630	0.7851
2639	0.7831
2648	0.7823
2657	0.7845
2666	0.7807
2675	0.7722
2684	0.7669
2693	0.7644
2702	0.7702
2711	0.7717
2720	0.7617
2729	0.7538
2738	0.7486
2747	0.7457
2756	0.7426
2765	0.7373
2774	0.7367
2783	0.7472
2792	0.7497
2801	0.7349
2810	0.7251
2819	0.7245
2828	0.724
2837	0.7178
2846	0.7075
2855	0.6929
2864	0.6841
2873	0.6765
2882	0.6212
2891	0.5575
2900	0.5596
2909	0.6159
2918	0.6197
2927	0.6113
2936	0.5932
2945	0.5799
2954	0.5319
2963	0.4367
2972	0.4115
2981	0.5446
2990	0.431
2999	0.274
3008	0.196
3017	0.3507
3026	0.627
3035	0.6615
3044	0.6857
3053	0.6916
3062	0.692
3071	0.6918
3080	0.6964
3089	0.7094
3098	0.7226
3107	0.7275
3116	0.7305
3125	0.7346
3134	0.7395
3143	0.7445
3152	0.7493
3161	0.7541
3170	0.7586
3179	0.7616
3188	0.7615
3197	0.7601
3206	0.7581
3215	0.7556
3224	0.7531
3233	0.7505
3242	0.7479
3251	0.745
3260	0.7414
3269	0.7378
3278	0.7343
3287	0.731
3296	0.7307
3305	0.7302
3314	0.7267
3323	0.7219
3332	0.7152
3341	0.7069
3350	0.6986
3359	0.69
3368	0.6816
3377	0.6697
3386	0.666
3395	0.6663
3404	0.6658
3413	0.6634
3422	0.6614
3431	0.66
3440	0.6593
3449	0.6591
3458	0.6595
3467	0.6634
3476	0.6701
3485	0.6795
3494	0.6872
3503	0.6907
3512	0.6934
3521	0.696
3530	0.7046
3539	0.7116
3548	0.7177
3557	0.7237
3566	0.7292
3575	0.7345
3584	0.7397
3593	0.745
3602	0.7504
3611	0.7558
3620	0.7611
3629	0.7651
3638	0.769
3647	0.7722
3656	0.7747
3665	0.7751
3674	0.7732
3683	0.7727
3692	0.7741
3701	0.7761
3710	0.7786
3719	0.7784
3728	0.7763
3737	0.7743
3746	0.7759
3755	0.777
3764	0.7714
3773	0.773
3782	0.7726
3791	0.7717
