Infrared Spectrum: Cyclocel
Formula: C5 H13 Cl2 N  * x H2 O
CAS: 39394-21-3
State: SOLID (SPLIT MULL), FLUOROLUBE FOR 3800-1330 CM^-^1, NUJOL FOR 1330-400 CM^-^1
Melting point: 240 C (DECOMPOSES)
Class: COBLENTZ III
Instrument: DOW KBr FOREPRISM-GRATING
Instrument parameters: BLAZED AT 3.5, 12.0, 20.0 MICRON AND CHANGED AT 5.0, 7.5, 14.9 MICRON
Sampling: TRANSMISSION
Resolution: 2
Origin: DOW CHEMICAL COMPANY
1/CM	TRANSMITTANCE
3798	0.7471
3789	0.749
3780	0.7515
3771	0.7531
3762	0.7545
3753	0.7557
3744	0.7569
3735	0.7578
3726	0.7582
3717	0.7562
3708	0.7549
3699	0.7556
3690	0.7565
3681	0.7568
3672	0.7562
3663	0.7554
3654	0.7533
3645	0.7508
3636	0.7482
3627	0.744
3618	0.7394
3609	0.7343
3600	0.7287
3591	0.7221
3582	0.7155
3573	0.7082
3564	0.6998
3555	0.6894
3546	0.6782
3537	0.6658
3528	0.6514
3519	0.636
3510	0.6203
3501	0.6057
3492	0.5928
3483	0.581
3474	0.5721
3465	0.5643
3456	0.5576
3447	0.551
3438	0.5469
3429	0.5429
3420	0.5395
3411	0.5362
3402	0.5336
3393	0.5327
3384	0.5342
3375	0.537
3366	0.5408
3357	0.5464
3348	0.552
3339	0.5598
3330	0.5689
3321	0.5816
3312	0.5944
3303	0.6047
3294	0.6147
3285	0.623
3276	0.6314
3267	0.6395
3258	0.6471
3249	0.6547
3240	0.6621
3231	0.6687
3222	0.6751
3213	0.6812
3204	0.6872
3195	0.6931
3186	0.698
3177	0.7001
3168	0.7006
3159	0.7003
3150	0.6975
3141	0.6897
3132	0.6795
3123	0.6706
3114	0.6618
3105	0.6593
3096	0.6587
3087	0.6585
3078	0.6582
3069	0.6572
3060	0.6554
3051	0.6508
3042	0.6424
3033	0.6195
3024	0.5478
3015	0.2171
3006	0.0842
2997	0.2765
2988	0.3832
2979	0.2681
2970	0.2747
2961	0.4014
2952	0.4471
2943	0.4839
2934	0.5084
2925	0.5245
2916	0.5318
2907	0.5416
2898	0.555
2889	0.5719
2880	0.5897
2871	0.6064
2862	0.6269
2853	0.637
2844	0.6478
2835	0.6651
2826	0.6633
2817	0.6601
2808	0.6733
2799	0.6817
2790	0.6815
2781	0.6825
2772	0.6775
2763	0.6693
2754	0.6595
2745	0.6611
2736	0.6636
2727	0.6649
2718	0.6692
2709	0.6735
2700	0.6785
2691	0.6834
2682	0.6894
2673	0.6968
2664	0.704
2655	0.7108
2646	0.715
2637	0.7175
2628	0.7198
2619	0.7211
2610	0.7221
2601	0.7225
2592	0.7247
2583	0.7268
2574	0.7284
2565	0.7287
2556	0.7286
2547	0.7315
2538	0.7332
2529	0.7333
2520	0.7382
2511	0.7444
2502	0.7395
2493	0.7372
2484	0.7426
2475	0.7501
2466	0.7582
2457	0.7668
2448	0.7747
2439	0.7808
2430	0.784
2421	0.7856
2412	0.7864
2403	0.7885
2394	0.7918
2385	0.7969
2376	0.8021
2367	0.8064
2358	0.8078
2349	0.8088
2340	0.8093
2331	0.8098
2322	0.8096
2313	0.8092
2304	0.8087
2295	0.8078
2286	0.8074
2277	0.8086
2268	0.8121
2259	0.8157
2250	0.8191
2241	0.8221
2232	0.8251
2223	0.8278
2214	0.8301
2205	0.8324
2196	0.8343
2187	0.8355
2178	0.8364
2169	0.8361
2160	0.8362
2151	0.8368
2142	0.8377
2133	0.8385
2124	0.8394
2115	0.8407
2106	0.8421
2097	0.8437
2088	0.8453
2079	0.8468
2070	0.8488
2061	0.8507
2052	0.8535
2043	0.8564
2034	0.8594
2025	0.8621
2016	0.8651
2007	0.8671
1998	0.8683
1989	0.8688
1980	0.8693
1971	0.8696
1962	0.8698
1953	0.8699
1944	0.8695
1935	0.8694
1926	0.8694
1917	0.8695
1908	0.8707
1899	0.8715
1890	0.8716
1881	0.8716
1872	0.8715
1863	0.8712
1854	0.8677
1845	0.8637
1836	0.8589
1827	0.8525
1818	0.8478
1809	0.845
1800	0.8431
1791	0.843
1782	0.845
1773	0.8475
1764	0.851
1755	0.8548
1746	0.8578
1737	0.8575
1728	0.857
1719	0.8568
1710	0.8571
1701	0.8575
1692	0.8574
1683	0.8549
1674	0.8471
1665	0.8144
1656	0.8103
1647	0.8221
1638	0.8265
1629	0.8348
1620	0.8418
1611	0.8477
1602	0.8514
1593	0.8527
1584	0.853
1575	0.8524
1566	0.8515
1557	0.8505
1548	0.8473
1539	0.8421
1530	0.831
1521	0.8093
1512	0.7644
1503	0.6066
1494	0.3732
1485	0.1704
1476	0.288
1467	0.4478
1458	0.5036
1449	0.5212
1440	0.5662
1431	0.6961
1422	0.6768
1413	0.6842
1404	0.6845
1395	0.7122
1386	0.7649
1377	0.7891
1368	0.7915
1359	0.784
1350	0.7812
1341	0.7818
1332	0.7825
1323	0.7801
1314	0.7686
1305	0.5605
1296	0.7244
1287	0.7724
1278	0.7814
1269	0.7842
1260	0.791
1251	0.78
1242	0.7493
1233	0.7741
1224	0.8024
1215	0.8051
1206	0.7999
1197	0.7981
1188	0.7965
1179	0.7926
1170	0.7891
1161	0.7854
1152	0.7791
1143	0.7665
1134	0.7841
1125	0.7895
1116	0.79
1107	0.7865
1098	0.7821
1089	0.7765
1080	0.7628
1071	0.7583
1062	0.7318
1053	0.7669
1044	0.756
1035	0.7875
1026	0.7883
1017	0.7868
1008	0.7851
999	0.7778
990	0.7401
981	0.6455
972	0.4199
963	0.6327
954	0.328
945	0.5112
936	0.7241
927	0.5737
918	0.355
909	0.6236
900	0.7625
891	0.7939
882	0.8215
873	0.8258
864	0.8266
855	0.827
846	0.8278
837	0.8258
828	0.8208
819	0.8032
810	0.7017
801	0.7368
792	0.8003
783	0.7835
774	0.5482
765	0.7404
756	0.7849
747	0.769
738	0.5244
729	0.556
720	0.7674
711	0.8133
702	0.8377
693	0.837
684	0.8261
675	0.8225
666	0.82
657	0.816
648	0.8125
639	0.8106
630	0.8094
621	0.8082
612	0.8036
603	0.8021
594	0.8006
585	0.798
576	0.7946
567	0.7908
558	0.7872
549	0.7853
540	0.7832
531	0.7811
522	0.7769
513	0.7712
504	0.7724
495	0.7638
486	0.7486
477	0.7361
468	0.7171
459	0.6335
450	0.6885
441	0.6764
432	0.6408
423	0.5976
414	0.5786
405	0.5826
