Infrared Spectrum: 2-Pyridyl-1,2-ethanediol
Formula: C7 H9 N O2
CAS: 3944-00-1
State: SOLID (SPLIT MULL)
Melting point: 96 C
Class: COBLENTZ II
Instrument: BECKMAN IR-9 (GRATING)
Instrument parameters: ORDER CHANGES: 670, 1200, 2000 CM^-^1
Sampling: TRANSMISSION
Resolution: 2
Origin: DOW CHEMICAL COMPANY
1/CM	TRANSMITTANCE
3800	0.5609
3791	0.5626
3782	0.5648
3773	0.5669
3764	0.569
3755	0.5721
3746	0.5753
3737	0.5786
3728	0.582
3719	0.5854
3710	0.5891
3701	0.5928
3692	0.5971
3683	0.6027
3674	0.6081
3665	0.6124
3656	0.6168
3647	0.621
3638	0.6249
3629	0.6288
3620	0.6325
3611	0.6366
3602	0.6399
3593	0.6294
3584	0.6224
3575	0.6407
3566	0.6511
3557	0.6565
3548	0.6614
3539	0.6636
3530	0.6644
3521	0.6643
3512	0.6641
3503	0.6634
3494	0.6592
3485	0.6534
3476	0.6465
3467	0.6345
3458	0.6142
3449	0.5865
3440	0.5594
3431	0.5378
3422	0.515
3413	0.4894
3404	0.4573
3395	0.4188
3386	0.3908
3377	0.365
3368	0.3394
3359	0.3087
3350	0.2738
3341	0.242
3332	0.2043
3323	0.1689
3314	0.1349
3305	0.1223
3296	0.1203
3287	0.1219
3278	0.1303
3269	0.1404
3260	0.1599
3251	0.1844
3242	0.2087
3233	0.2272
3224	0.2403
3215	0.2473
3206	0.2511
3197	0.2526
3188	0.253
3179	0.2519
3170	0.25
3161	0.2462
3152	0.2416
3143	0.2351
3134	0.2288
3125	0.2228
3116	0.2168
3107	0.211
3098	0.2059
3089	0.2036
3080	0.202
3071	0.2006
3062	0.1996
3053	0.2034
3044	0.2091
3035	0.2149
3026	0.2191
3017	0.2212
3008	0.2389
2999	0.2637
2990	0.286
2981	0.3026
2972	0.3084
2963	0.3084
2954	0.323
2945	0.3393
2936	0.3373
2927	0.2961
2918	0.2914
2909	0.3033
2900	0.3079
2891	0.2915
2882	0.2202
2873	0.2242
2864	0.2609
2855	0.2592
2846	0.2432
2837	0.2313
2828	0.2242
2819	0.221
2810	0.2209
2801	0.2219
2792	0.2239
2783	0.2297
2774	0.2393
2765	0.2503
2756	0.2629
2747	0.2796
2738	0.2896
2729	0.2924
2720	0.2963
2711	0.3012
2702	0.3029
2693	0.3027
2684	0.3054
2675	0.3156
2666	0.3256
2657	0.3371
2648	0.3487
2639	0.3598
2630	0.3707
2621	0.3818
2612	0.3938
2603	0.4057
2594	0.4162
2585	0.4262
2576	0.4362
2567	0.446
2558	0.4559
2549	0.4657
2540	0.4749
2531	0.4837
2522	0.4926
2513	0.5014
2504	0.5103
2495	0.5177
2486	0.525
2477	0.5324
2468	0.539
2459	0.5452
2450	0.5514
2441	0.5577
2432	0.5641
2423	0.5705
2414	0.577
2405	0.5846
2396	0.5924
2387	0.6012
2378	0.6114
2369	0.6217
2360	0.6243
2351	0.6253
2342	0.6262
2333	0.6297
2324	0.6336
2315	0.6375
2306	0.6417
2297	0.6468
2288	0.6519
2279	0.6571
2270	0.6625
2261	0.6685
2252	0.6746
2243	0.6811
2234	0.6874
2225	0.6958
2216	0.7046
2207	0.7144
2198	0.7234
2189	0.7296
2180	0.7349
2171	0.7398
2162	0.7449
2153	0.75
2144	0.7553
2135	0.7604
2126	0.7649
2117	0.7692
2108	0.7736
2099	0.778
2090	0.7824
2081	0.7868
2072	0.7908
2063	0.7945
2054	0.7982
2045	0.8011
2036	0.8042
2027	0.8068
2018	0.8086
2009	0.8105
2000	0.8135
1991	0.818
1982	0.8171
1973	0.8101
1964	0.8165
1955	0.8258
1946	0.8324
1937	0.8266
1928	0.8193
1919	0.8328
1910	0.8267
1901	0.8228
1892	0.8282
1883	0.8325
1874	0.8206
1865	0.8231
1856	0.842
1847	0.8518
1838	0.8544
1829	0.8555
1820	0.8552
1811	0.8512
1802	0.8502
1793	0.8527
1784	0.854
1775	0.8551
1766	0.856
1757	0.8563
1748	0.8547
1739	0.8506
1730	0.8478
1721	0.847
1712	0.8548
1703	0.8549
1694	0.8528
1685	0.8483
1676	0.8409
1667	0.8448
1658	0.8448
1649	0.8407
1640	0.8444
1631	0.8493
1622	0.8515
1613	0.8444
1604	0.7415
1595	0.3299
1586	0.7401
1577	0.7451
1568	0.5844
1559	0.7547
1550	0.7775
1541	0.7865
1532	0.7881
1523	0.7868
1514	0.7825
1505	0.78
1496	0.7785
1487	0.7748
1478	0.5812
1469	0.62
1460	0.6366
1451	0.5773
1442	0.5226
1433	0.3226
1424	0.5257
1415	0.5388
1406	0.5187
1397	0.5762
1388	0.6461
1379	0.6357
1370	0.5026
1361	0.6172
1352	0.3658
1343	0.4529
1334	0.6394
1325	0.7053
1316	0.7164
1307	0.7497
1298	0.7651
1289	0.7081
1280	0.7632
1271	0.679
1262	0.5601
1253	0.4155
1244	0.4325
1235	0.6104
1226	0.7505
1217	0.771
1208	0.7882
1199	0.8024
1190	0.8018
1181	0.7942
1172	0.7991
1163	0.7681
1154	0.4539
1145	0.5791
1136	0.269
1127	0.0662
1118	0.2831
1109	0.5316
1100	0.5653
1091	0.172
1082	0.4004
1073	0.147
1064	0.4312
1055	0.1302
1046	0.6471
1037	0.7943
1028	0.8231
1019	0.6608
1010	0.3332
1001	0.5574
992	0.275
983	0.7456
974	0.7807
965	0.8416
956	0.8603
947	0.8611
938	0.8584
929	0.8448
920	0.8085
911	0.721
902	0.528
893	0.6758
884	0.8207
875	0.8108
866	0.7785
857	0.7326
848	0.6804
839	0.546
830	0.6368
821	0.5868
812	0.5159
803	0.5122
794	0.5068
785	0.4679
776	0.1774
767	0.2001
758	0.3894
749	0.4677
740	0.4282
731	0.3873
722	0.4296
713	0.4752
704	0.2735
695	0.3225
686	0.583
677	0.7011
668	0.7403
659	0.7617
650	0.7733
641	0.7445
632	0.4201
623	0.811
614	0.8394
605	0.8571
596	0.8663
587	0.8644
578	0.7849
569	0.4306
560	0.6262
551	0.8344
542	0.8628
533	0.8678
524	0.8652
515	0.8386
506	0.6928
497	0.8421
488	0.8398
479	0.8149
470	0.7922
461	0.7672
452	0.7345
443	0.6615
434	0.5884
425	0.5987
416	0.5181
407	0.5201
