Infrared Spectrum: 4-tert-Butylpyridine
Formula: C9 H13 N
CAS: 3978-81-2
State: 10% solution vs. solvent
Boiling point: 196 C AT 749 mmHg
Class: COBLENTZ III
Instrument: DOW KBr FOREPRISM-GRATING
Instrument parameters: BLAZED AT 3.5, 12.0, 20.0 MICRON AND CHANGED AT 5.0, 7.5, 14.9 MICRON
Sampling: TRANSMISSION
Path length: .11mm
Resolution: 2
Origin: DOW CHEMICAL COMPANY
1/CM	TRANSMITTANCE
3800	1.0042
3791	1.0043
3782	1.0044
3773	1.0042
3764	1.0031
3755	1.0021
3746	1.0016
3737	1.0082
3728	1.0097
3719	1.0075
3710	1.0043
3701	1.0002
3692	0.9948
3683	0.981
3674	0.9437
3665	0.9536
3656	0.9734
3647	0.9864
3638	0.9923
3629	0.9958
3620	0.9975
3611	0.9987
3602	0.9995
3593	0.9994
3584	0.9959
3575	0.9892
3566	0.9898
3557	0.991
3548	0.9906
3539	0.9888
3530	0.9863
3521	0.9809
3512	0.9758
3503	0.9718
3494	0.9681
3485	0.9651
3476	0.9615
3467	0.9581
3458	0.9562
3449	0.9538
3440	0.9507
3431	0.9471
3422	0.9436
3413	0.9403
3404	0.9373
3395	0.9356
3386	0.9341
3377	0.9325
3368	0.9313
3359	0.9302
3350	0.9293
3341	0.9287
3332	0.9289
3323	0.9292
3314	0.9297
3305	0.9301
3296	0.9306
3287	0.9321
3278	0.9353
3269	0.9391
3260	0.9418
3251	0.9437
3242	0.9442
3233	0.9427
3224	0.9389
3215	0.9343
3206	0.9304
3197	0.9284
3188	0.9288
3179	0.931
3170	0.9352
3161	0.9402
3152	0.9451
3143	0.9485
3134	0.951
3125	0.9525
3116	0.9506
3107	0.9388
3098	0.9077
3089	0.8331
3080	0.608
3071	0.6696
3062	0.7568
3053	0.8043
3044	0.803
3035	0.7075
3026	0.6365
3017	0.6696
3008	0.7497
2999	0.7568
2990	0.4779
2981	0.1782
2972	0.0434
2963	0.0459
2954	0.1157
2945	0.2501
2936	0.3503
2927	0.4014
2918	0.4553
2909	0.4468
2900	0.4923
2891	0.5764
2882	0.5357
2873	0.4235
2864	0.6072
2855	0.7598
2846	0.8452
2837	0.8853
2828	0.9158
2819	0.9397
2810	0.9432
2801	0.9478
2792	0.9613
2783	0.9693
2774	0.9755
2765	0.9786
2756	0.975
2747	0.9716
2738	0.9748
2729	0.9745
2720	0.97
2711	0.9686
2702	0.9781
2693	0.9844
2684	0.9874
2675	0.9874
2666	0.9821
2657	0.9825
2648	0.9852
2639	0.9871
2630	0.9877
2621	0.9878
2612	0.9881
2603	0.9886
2594	0.9892
2585	0.9897
2576	0.99
2567	0.9834
2558	0.9834
2549	0.9856
2540	0.9871
2531	0.9878
2522	0.9885
2513	0.9884
2504	0.9884
2495	0.9883
2486	0.9874
2477	0.9806
2468	0.9799
2459	0.9817
2450	0.9818
2441	0.9792
2432	0.9783
2423	0.9801
2414	0.9821
2405	0.9824
2396	0.9812
2387	0.9807
2378	0.9827
2369	0.9864
2360	0.9894
2351	0.9911
2342	0.9918
2333	0.9921
2324	0.9913
2315	0.989
2306	0.9863
2297	0.9849
2288	0.9873
2279	0.991
2270	0.9948
2261	0.9961
2252	0.9973
2243	0.9978
2234	0.9985
2225	0.9984
2216	0.9974
2207	0.9975
2198	1.0001
2189	1.0028
2180	1.0057
2171	1.0085
2162	1.011
2153	1.0128
2144	1.0146
2135	1.016
2126	1.0175
2117	1.0189
2108	1.0203
2099	1.0215
2090	1.0228
2081	1.024
2072	1.0251
2063	1.026
2054	1.027
2045	1.0278
2036	1.0285
2027	1.0287
2018	1.0281
2009	1.0268
2000	1.0212
1991	1.0153
1982	1.0143
1973	1.0166
1964	1.0121
1955	1.0078
1946	1.0015
1937	0.931
1928	0.9135
1919	0.9837
1910	1.002
1901	1.0098
1892	1.0139
1883	1.0182
1874	1.0183
1865	1.0159
1856	1.0121
1847	0.9938
1838	0.9777
1829	1.0001
1820	1.0075
1811	1.0083
1802	1.0082
1793	1.0085
1784	1.0056
1775	0.9814
1766	0.9928
1757	1.0013
1748	1.0032
1739	0.9982
1730	0.989
1721	0.9854
1712	0.9835
1703	0.9749
1694	0.975
1685	0.9371
1676	0.9564
1667	0.9811
1658	0.9811
1649	0.9771
1640	0.9611
1631	0.956
1622	0.9344
1613	0.8733
1604	0.3989
1595	0.0392
1586	0.5279
1577	0.8427
1568	0.9047
1559	0.8906
1550	0.7136
1541	0.7258
1532	0.8961
1523	0.943
1514	0.9728
1505	0.9598
1496	0.5071
1487	0.7074
1478	0.6305
1469	0.5148
1460	0.5744
1451	0.7062
1442	0.7971
1433	0.8643
1424	0.8803
1415	0.5135
1406	0.2418
1397	0.6946
1388	0.8882
1379	0.9082
1370	0.5518
1361	0.7148
1352	0.9262
1343	0.9583
1334	0.9647
1325	0.9671
1316	0.9782
1307	0.9957
1298	0.9949
1289	0.9759
1280	0.9325
1271	0.4452
1262	0.7254
1253	0.9142
1244	0.9468
1235	0.9118
1226	0.9163
1217	0.7819
1208	0.9443
1199	0.8262
1190	0.869
1181	0.9642
1172	0.997
1163	1.0088
1154	1.0178
1145	1.0225
1136	1.0246
1127	1.0148
1118	0.9978
1109	0.9997
1100	1.0158
1091	0.9871
1082	0.9913
1073	0.7278
1064	0.8762
1055	0.9688
1046	0.993
1037	1.0066
1028	1.0094
1019	1.0031
1010	0.9967
1001	0.9907
992	0.2912
983	0.9649
974	0.9757
965	0.9857
956	0.9749
947	0.9678
938	0.9777
929	0.9446
920	0.9395
911	0.9725
902	0.9878
893	0.9875
884	0.9841
875	0.9684
866	0.9565
857	0.9418
848	0.9413
839	0.4579
830	0.8521
821	0.3071
812	0.3314
803	0.8556
794	0.9306
785	0.9705
776	0.9778
767	0.9804
758	0.9811
749	0.9573
740	0.9353
731	0.9747
722	0.9753
713	0.7295
704	0.845
695	0.9464
686	0.9774
677	0.9818
668	0.9849
659	0.984
650	0.9739
641	0.9736
632	0.9821
623	0.9835
614	0.9809
605	0.9727
596	0.9582
587	0.9341
578	0.8483
569	0.1656
560	0.6139
551	0.8293
542	0.9054
533	0.8828
524	0.8525
515	0.9162
506	0.9405
497	0.9535
488	0.9661
479	0.9745
470	0.9793
