Infrared Spectrum: Cyclopropanecarbonyl chloride
Formula: C4 H5 Cl O
CAS: 4023-34-1
State: SOLUTION (10% CCl4 FOR 3800-1340, 10% CS2 FOR 1340-450 CM^-^1)
Class: COBLENTZ III
Instrument: DOW KBr FOREPRISM-GRATING
Instrument parameters: BLAZED AT 3.5, 12.0, 20.0 MICRON AND CHANGED AT 5.0, 7.5, 14.9 MICRON
Sampling: TRANSMISSION
Path length: 0.011 CM, 0.011 CM
Resolution: 2
Origin: DOW CHEMICAL COMPANY
1/CM	TRANSMITTANCE
451	0.781
460	0.7834
469	0.7699
478	0.62
487	0.8445
496	0.8699
505	0.8689
514	0.8558
523	0.8088
532	0.645
541	0.2436
550	0.3411
559	0.7372
568	0.8591
577	0.8864
586	0.8931
595	0.8914
604	0.8747
613	0.8747
622	0.8766
631	0.8691
640	0.8502
649	0.8027
658	0.6847
667	0.5978
676	0.6285
685	0.3078
694	0.0149
703	0.5393
712	0.757
721	0.8238
730	0.848
739	0.855
748	0.843
757	0.8195
766	0.7658
775	0.6322
784	0.6818
793	0.3938
802	0.6898
811	0.6041
820	0.6424
829	0.732
838	0.6524
847	0.3667
856	0.4316
865	0.0531
874	0.1953
883	0.5206
892	0.6706
901	0.6777
910	0.6334
919	0.5541
928	0.4361
937	0.2278
946	0.0872
955	0.0092
964	0.0076
973	0.1918
982	0.5085
991	0.6971
1000	0.7568
1009	0.7612
1018	0.7211
1027	0.6041
1036	0.1923
1045	0.2703
1054	0.6356
1063	0.3266
1072	0.6617
1081	0.7415
1090	0.6407
1099	0.7343
1108	0.4318
1117	0.7229
1126	0.7325
1135	0.7342
1144	0.6512
1153	0.3334
1162	0.4146
1171	0.6471
1180	0.6013
1189	0.6252
1198	0.3216
1207	0.8141
1216	0.8692
1225	0.8901
1234	0.8932
1243	0.9032
1252	0.9052
1261	0.9067
1270	0.9045
1279	0.8941
1288	0.8858
1297	0.8864
1306	0.8768
1315	0.8593
1324	0.8343
1333	0.7957
1342	0.5029
1351	0.4525
1360	0.0693
1369	0.6797
1378	0.7826
1387	0.8077
1396	0.8123
1405	0.807
1414	0.7877
1423	0.6145
1432	0.721
1441	0.7359
1450	0.53
1459	0.7509
1468	0.8101
1477	0.8066
1486	0.7812
1495	0.7514
1504	0.727
1513	0.6905
1522	0.648
1531	0.605
1540	0.5258
1549	0.4556
1558	0.4777
1567	0.5578
1576	0.6043
1585	0.6232
1594	0.6954
1603	0.7677
1612	0.8012
1621	0.8104
1630	0.7944
1639	0.8108
1648	0.8204
1657	0.8217
1666	0.8243
1675	0.8134
1684	0.7934
1693	0.7654
1702	0.7569
1711	0.7558
1720	0.7179
1729	0.6208
1738	0.45
1747	0.3534
1756	0.2215
1765	0.0515
1774	0.0027
1783	0.0047
1792	0.0533
1801	0.1717
1810	0.1605
1819	0.1532
1828	0.4028
1837	0.5477
1846	0.6495
1855	0.7164
1864	0.7503
1873	0.7547
1882	0.7587
1891	0.7627
1900	0.7575
1909	0.7634
1918	0.7579
1927	0.754
1936	0.7801
1945	0.8196
1954	0.8309
1963	0.8356
1972	0.8377
1981	0.8379
1990	0.8381
1999	0.8242
2008	0.828
2017	0.8392
2026	0.8498
2035	0.8506
2044	0.8485
2053	0.8451
2062	0.8484
2071	0.8367
2080	0.8416
2089	0.8434
2098	0.8247
2107	0.8061
2116	0.8216
2125	0.8385
2134	0.8409
2143	0.8512
2152	0.8515
2161	0.8558
2170	0.8589
2179	0.858
2188	0.8551
2197	0.852
2206	0.8511
2215	0.8521
2224	0.8524
2233	0.8535
2242	0.8561
2251	0.8582
2260	0.8566
2269	0.8512
2278	0.8432
2287	0.8366
2296	0.8337
2305	0.834
2314	0.8244
2323	0.8241
2332	0.8472
2341	0.8663
2350	0.8686
2359	0.8692
2368	0.8696
2377	0.8699
2386	0.8705
2395	0.8717
2404	0.8743
2413	0.8778
2422	0.8796
2431	0.8776
2440	0.8742
2449	0.8695
2458	0.8643
2467	0.8598
2476	0.8657
2485	0.8567
2494	0.8582
2503	0.8633
2512	0.8694
2521	0.8725
2530	0.872
2539	0.8708
2548	0.8696
2557	0.8697
2566	0.8734
2575	0.8734
2584	0.8707
2593	0.8676
2602	0.8646
2611	0.8644
2620	0.8647
2629	0.8662
2638	0.8669
2647	0.8672
2656	0.8674
2665	0.8676
2674	0.8679
2683	0.8671
2692	0.8662
2701	0.8636
2710	0.8602
2719	0.8564
2728	0.8533
2737	0.8548
2746	0.8609
2755	0.8646
2764	0.8663
2773	0.8669
2782	0.867
2791	0.8669
2800	0.8661
2809	0.8657
2818	0.8666
2827	0.8691
2836	0.8669
2845	0.8624
2854	0.8604
2863	0.8626
2872	0.8641
2881	0.8625
2890	0.8628
2899	0.8651
2908	0.8642
2917	0.8616
2926	0.8592
2935	0.8584
2944	0.8599
2953	0.8612
2962	0.8606
2971	0.8558
2980	0.8472
2989	0.8338
2998	0.8104
3007	0.775
3016	0.6717
3025	0.6214
3034	0.8121
3043	0.8353
3052	0.8406
3061	0.8425
3070	0.8415
3079	0.832
3088	0.815
3097	0.8121
3106	0.8177
3115	0.8379
3124	0.8481
3133	0.8541
3142	0.8585
3151	0.8622
3160	0.8652
3169	0.8679
3178	0.8706
3187	0.8734
3196	0.8761
3205	0.8774
3214	0.878
3223	0.8787
3232	0.8798
3241	0.8813
3250	0.8828
3259	0.8834
3268	0.8836
3277	0.8846
3286	0.8852
3295	0.8854
3304	0.8857
3313	0.8857
3322	0.8855
3331	0.8852
3340	0.8864
3349	0.8849
3358	0.885
3367	0.885
3376	0.885
3385	0.885
3394	0.8849
3403	0.8849
3412	0.8842
3421	0.8831
3430	0.882
3439	0.8808
3448	0.8796
3457	0.8783
3466	0.8758
3475	0.8723
3484	0.8677
3493	0.8611
3502	0.8498
3511	0.8339
3520	0.8148
3529	0.8027
3538	0.8076
3547	0.8331
3556	0.8495
3565	0.8594
3574	0.8665
3583	0.8715
3592	0.8755
3601	0.8778
3610	0.8784
3619	0.8781
3628	0.8784
3637	0.8791
3646	0.877
3655	0.8778
3664	0.879
3673	0.878
3682	0.8753
3691	0.8766
3700	0.8798
3709	0.8831
3718	0.8866
3727	0.8896
3736	0.8896
3745	0.8876
3754	0.8847
3763	0.8814
3772	0.8778
3781	0.8744
3790	0.8714
