Infrared Spectrum: PROPIONALDEHYDE, DIPROPARGAL ACETAL
Formula: C9 H12 O2
CAS: 4033-07-2
Boiling point: 192 C
Class: COBLENTZ
Instrument: Not specified, most likely a prism, grating, or hybrid spectrometer.
Sampling: TRANSMISSION
Path length: SMEAR
Resolution: 4
Origin: TENNESSEE EASTMAN COMPANY, RESEARCH LABORATORIES
MICROMETERS	TRANSMITTANCE
2.068	0.972
2.109	0.974
2.15	0.976
2.19099	0.977
2.23199	0.977
2.27299	0.977
2.31399	0.967
2.35499	0.969
2.39599	0.967
2.43698	0.969
2.47798	0.969
2.51898	0.967
2.55998	0.943
2.60098	0.94
2.64197	0.947
2.68297	0.955
2.72397	0.953
2.76497	0.929
2.80597	0.919
2.84696	0.914
2.88796	0.905
2.92896	0.905
2.96996	0.909
3.01096	0.875
3.05196	0.403
3.09295	0.391
3.13395	0.765
3.17495	0.885
3.21595	0.919
3.25695	0.926
3.29794	0.928
3.33894	0.892
3.37994	0.423
3.42094	0.43
3.46194	0.564
3.50293	0.699
3.54393	0.852
3.58493	0.9
3.62593	0.914
3.66693	0.916
3.70793	0.919
3.74892	0.924
3.78992	0.929
3.83092	0.941
3.87192	0.947
3.91292	0.952
3.95391	0.958
3.99491	0.962
4.03591	0.962
4.07691	0.96
4.11791	0.958
4.1589	0.953
4.1999	0.957
4.2409	0.957
4.2819	0.948
4.3229	0.938
4.3639	0.941
4.40489	0.952
4.44589	0.957
4.48689	0.958
4.52789	0.958
4.56889	0.957
4.60988	0.953
4.65088	0.943
4.69188	0.798
4.73288	0.885
4.77388	0.924
4.81488	0.928
4.85587	0.928
4.89687	0.928
4.93787	0.929
4.97887	0.929
5.01987	0.931
5.06086	0.933
5.10186	0.935
5.14286	0.936
5.18386	0.938
5.22486	0.938
5.26585	0.94
5.30685	0.943
5.34785	0.947
5.38885	0.947
5.42985	0.948
5.47085	0.948
5.51184	0.948
5.55284	0.947
5.59384	0.936
5.63484	0.936
5.67584	0.921
5.71683	0.912
5.75783	0.871
5.79883	0.851
5.83983	0.858
5.88083	0.873
5.92182	0.871
5.96282	0.876
6.00382	0.878
6.04482	0.9
6.08582	0.873
6.12682	0.885
6.16781	0.878
6.20881	0.878
6.24981	0.899
6.29081	0.907
6.33181	0.912
6.3728	0.899
6.4138	0.883
6.4548	0.899
6.4958	0.854
6.5368	0.885
6.57779	0.852
6.61879	0.856
6.65979	0.861
6.70079	0.849
6.74179	0.829
6.78279	0.663
6.82378	0.487
6.86478	0.505
6.90578	0.538
6.94678	0.647
6.98778	0.76
7.02877	0.789
7.06977	0.779
7.11077	0.726
7.15177	0.625
7.19277	0.516
7.23377	0.55
7.27476	0.536
7.31576	0.533
7.35676	0.48
7.39776	0.406
7.43876	0.417
7.47975	0.54
7.52075	0.651
7.56175	0.683
7.60275	0.647
7.64375	0.642
7.68474	0.682
7.72574	0.707
7.76674	0.683
7.80774	0.613
7.84874	0.564
7.88974	0.55
7.93073	0.557
7.97173	0.562
8.01273	0.651
8.05373	0.702
8.09473	0.733
8.13572	0.753
8.17672	0.789
8.21772	0.806
8.25872	0.81
8.29972	0.806
8.34071	0.796
8.38171	0.798
8.42271	0.784
8.46371	0.76
8.50471	0.736
8.54571	0.639
8.5867	0.485
8.6277	0.415
8.6687	0.487
8.7097	0.432
8.7507	0.357
8.79169	0.251
8.83269	0.155
8.87369	0.128
8.91469	0.123
8.95569	0.131
8.99668	0.198
9.03768	0.239
9.07868	0.167
9.11968	0.133
9.16068	0.129
9.20168	0.133
9.24267	0.205
9.28367	0.288
9.32467	0.283
9.36567	0.198
9.40667	0.059
9.44766	0.042
9.48866	0.047
9.52966	0.052
9.57066	0.051
9.61166	0.049
9.65266	0.064
9.69365	0.116
9.73465	0.191
9.77565	0.203
9.81665	0.203
9.85765	0.211
9.89864	0.23
9.93964	0.239
9.98064	0.241
10.0216	0.276
10.0626	0.362
10.1036	0.446
10.1446	0.494
10.1856	0.512
10.2266	0.519
10.2676	0.514
10.3086	0.48
10.3496	0.452
10.3906	0.435
10.4316	0.427
10.4726	0.425
10.5136	0.417
10.5546	0.389
10.5956	0.353
10.6366	0.328
10.6776	0.319
10.7186	0.347
10.7596	0.394
10.8006	0.468
10.8416	0.5
10.8826	0.478
10.9236	0.423
10.9646	0.4
11.0056	0.403
11.0466	0.435
11.0876	0.507
11.1286	0.574
11.1696	0.634
11.2106	0.673
11.2516	0.694
11.2926	0.694
11.3336	0.7
11.3746	0.714
11.4156	0.726
11.4566	0.726
11.4976	0.721
11.5386	0.723
11.5796	0.753
11.6206	0.789
11.6616	0.827
11.7026	0.847
11.7436	0.861
11.7846	0.873
11.8256	0.885
11.8666	0.89
11.9076	0.899
11.9486	0.902
11.9895	0.904
12.0305	0.907
12.0715	0.907
12.1125	0.907
12.1535	0.907
12.1945	0.905
12.2355	0.902
12.2765	0.902
12.3175	0.9
12.3585	0.897
12.3995	0.894
12.4405	0.89
12.4815	0.885
12.5225	0.882
12.5635	0.876
12.6045	0.87
12.6455	0.859
12.6865	0.856
12.7275	0.851
12.7685	0.839
12.8095	0.839
12.8505	0.83
12.8915	0.825
12.9325	0.813
12.9735	0.798
13.0145	0.798
13.0555	0.798
13.0965	0.801
13.1375	0.805
13.1785	0.808
13.2195	0.801
13.2605	0.798
13.3015	0.791
13.3425	0.786
13.3835	0.779
13.4245	0.772
13.4655	0.76
13.5065	0.748
13.5475	0.738
13.5885	0.728
13.6295	0.711
13.6705	0.697
13.7115	0.683
13.7525	0.664
13.7935	0.647
13.8345	0.632
13.8755	0.611
13.9165	0.598
13.9575	0.581
13.9985	0.562
14.0395	0.547
14.0805	0.516
14.1215	0.502
14.1624	0.487
14.2034	0.461
14.2444	0.449
14.2854	0.432
14.3264	0.413
14.3674	0.4
14.4084	0.382
14.4494	0.367
14.4904	0.358
14.5314	0.34
14.5724	0.329
14.6134	0.317
14.6544	0.309
14.6954	0.3
14.7364	0.295
14.7774	0.29
14.8184	0.287
14.8594	0.287
14.9004	0.288
14.9414	0.297
14.9824	0.307
15.0234	0.311
15.0644	0.307
15.1054	0.307
15.1464	0.311
15.1874	0.324
15.2284	0.331
15.2694	0.338
15.3104	0.343
15.3514	0.352
15.3924	0.357
15.4334	0.362
15.4744	0.367
15.5154	0.37
15.5564	0.379
15.5974	0.386
15.6384	0.391
15.6794	0.398
15.7204	0.41
15.7614	0.418
15.8024	0.427
15.8434	0.435
15.8844	0.447
15.9254	0.459
15.9664	0.47
