Infrared Spectrum: Benzophenone, 2,5-dimethyl-
Formula: C15 H14 O
CAS: 4044-60-4
State: THIN FILM FROM C2HCl3 SOLUTION
Class: COBLENTZ II
Instrument: PERKIN-ELMER 180 (GRATING)
Instrument parameters: GRATINGS: 2000, 1000, 500, 250 CM^-^1; FILTER CHANGE: 2970, 2000, 1485, 1000, 743, 500, 372, 250, 186 CM^-^1.
Sampling: TRANSMISSION
Resolution: 2
Origin: K. K. DEB-NCI FREDERICK CANCER RESEARCH CENTER
1/CM	TRANSMITTANCE
402	0.8069
411	0.8258
420	0.8356
429	0.8306
438	0.8508
447	0.8579
456	0.8705
465	0.8717
474	0.8716
483	0.8431
492	0.8054
501	0.8646
510	0.9015
519	0.9115
528	0.9122
537	0.9114
546	0.9101
555	0.9083
564	0.9059
573	0.8956
582	0.882
591	0.8876
600	0.8641
609	0.9015
618	0.8983
627	0.9051
636	0.8946
645	0.7946
654	0.6086
663	0.892
672	0.886
681	0.8597
690	0.6451
699	0.4224
708	0.7239
717	0.8693
726	0.7916
735	0.5681
744	0.6857
753	0.8452
762	0.8873
771	0.8996
780	0.8967
789	0.8893
798	0.8654
807	0.7125
816	0.6547
825	0.7382
834	0.8506
843	0.7538
852	0.7112
861	0.8332
870	0.8942
879	0.8944
888	0.8729
897	0.8722
906	0.8881
915	0.8889
924	0.871
933	0.8392
942	0.815
951	0.6432
960	0.7737
969	0.849
978	0.8587
987	0.8545
996	0.8369
1005	0.8735
1014	0.8703
1023	0.8248
1032	0.8488
1041	0.8391
1050	0.8628
1059	0.8787
1068	0.8531
1077	0.8582
1086	0.8858
1095	0.8823
1104	0.8704
1113	0.8532
1122	0.8732
1131	0.8804
1140	0.8652
1149	0.8069
1158	0.8286
1167	0.7989
1176	0.6677
1185	0.8376
1194	0.8296
1203	0.685
1212	0.5869
1221	0.8135
1230	0.863
1239	0.8452
1248	0.8017
1257	0.717
1266	0.3635
1275	0.5965
1284	0.647
1293	0.4234
1302	0.668
1311	0.5066
1320	0.6586
1329	0.854
1338	0.8662
1347	0.8702
1356	0.8727
1365	0.8696
1374	0.8291
1383	0.7906
1392	0.7852
1401	0.768
1410	0.8397
1419	0.8463
1428	0.8221
1437	0.7411
1446	0.5024
1455	0.7622
1464	0.8054
1473	0.8284
1482	0.8236
1491	0.7696
1500	0.7194
1509	0.8519
1518	0.8667
1527	0.8674
1536	0.8652
1545	0.8597
1554	0.8475
1563	0.8244
1572	0.7487
1581	0.6825
1590	0.6992
1599	0.5635
1608	0.7827
1617	0.8103
1626	0.8184
1635	0.8039
1644	0.7611
1653	0.517
1662	0.2401
1671	0.2702
1680	0.6762
1689	0.8126
1698	0.8387
1707	0.8629
1716	0.8814
1725	0.8889
1734	0.8904
1743	0.8939
1752	0.9013
1761	0.9024
1770	0.8971
1779	0.8957
1788	0.8991
1797	0.9027
1806	0.9021
1815	0.8986
1824	0.8991
1833	0.9032
1842	0.9026
1851	0.9022
1860	0.9057
1869	0.9081
1878	0.9105
1887	0.908
1896	0.9016
1905	0.8942
1914	0.8924
1923	0.895
1932	0.8997
1941	0.9055
1950	0.9073
1959	0.9055
1968	0.9015
1977	0.9008
1986	0.9049
1995	0.9087
2004	0.9119
2013	0.9136
2022	0.9149
2031	0.9158
2040	0.9157
2049	0.9156
2058	0.9157
2067	0.9157
2076	0.9158
2085	0.9158
2094	0.9157
2103	0.9154
2112	0.9151
2121	0.9151
2130	0.9153
2139	0.9155
2148	0.9158
2157	0.9158
2166	0.9155
2175	0.9151
2184	0.9148
2193	0.9144
2202	0.9141
2211	0.9137
2220	0.9134
2229	0.913
2238	0.9127
2247	0.9122
2256	0.9119
2265	0.9115
2274	0.9115
2283	0.9121
2292	0.9128
2301	0.9134
2310	0.9129
2319	0.912
2328	0.911
2337	0.9106
2346	0.9113
2355	0.9116
2364	0.9109
2373	0.9102
2382	0.9092
2391	0.908
2400	0.9071
2409	0.9073
2418	0.9081
2427	0.9092
2436	0.9102
2445	0.9107
2454	0.9113
2463	0.9117
2472	0.9113
2481	0.9107
2490	0.9103
2499	0.9097
2508	0.9093
2517	0.9088
2526	0.9083
2535	0.9078
2544	0.9074
2553	0.9069
2562	0.9066
2571	0.9061
2580	0.9056
2589	0.9046
2598	0.905
2607	0.9075
2616	0.9091
2625	0.9091
2634	0.9086
2643	0.9078
2652	0.9073
2661	0.9071
2670	0.9069
2679	0.9056
2688	0.9043
2697	0.903
2706	0.9018
2715	0.8995
2724	0.8947
2733	0.8904
2742	0.8943
2751	0.9037
2760	0.9049
2769	0.9044
2778	0.9033
2787	0.9019
2796	0.8993
2805	0.8956
2814	0.8898
2823	0.8818
2832	0.8702
2841	0.8524
2850	0.8308
2859	0.8096
2868	0.8037
2877	0.8164
2886	0.8199
2895	0.8156
2904	0.803
2913	0.7332
2922	0.6849
2931	0.7603
2940	0.7655
2949	0.7552
2958	0.7533
2967	0.755
2976	0.7614
2985	0.7749
2994	0.7843
3003	0.7857
3012	0.7628
3021	0.7419
3030	0.7522
3039	0.7666
3048	0.7648
3057	0.7488
3066	0.7692
3075	0.8071
3084	0.8147
3093	0.8455
3102	0.8547
3111	0.8619
3120	0.8673
3129	0.8723
3138	0.8749
3147	0.8775
3156	0.8788
3165	0.8799
3174	0.8811
3183	0.8823
3192	0.8836
3201	0.8849
3210	0.8856
3219	0.886
3228	0.8866
3237	0.8862
3246	0.8855
3255	0.8849
3264	0.8842
3273	0.8825
3282	0.8808
3291	0.8789
3300	0.8753
3309	0.8725
3318	0.8735
3327	0.8757
3336	0.8803
3345	0.8842
3354	0.8876
3363	0.8887
3372	0.8891
3381	0.8894
3390	0.8899
3399	0.8903
3408	0.8908
3417	0.8913
3426	0.8918
3435	0.8923
3444	0.8929
3453	0.8933
3462	0.8939
3471	0.8944
3480	0.8946
3489	0.8946
3498	0.8946
3507	0.8946
3516	0.8945
3525	0.8945
3534	0.8945
3543	0.8945
3552	0.8943
3561	0.894
3570	0.8938
3579	0.8935
3588	0.8932
3597	0.8929
3606	0.8927
3615	0.8924
3624	0.8921
3633	0.8918
3642	0.8916
3651	0.8913
3660	0.891
3669	0.8907
3678	0.8905
3687	0.8902
3696	0.89
3705	0.8898
3714	0.8897
3723	0.8895
3732	0.8894
3741	0.8893
3750	0.8896
3759	0.8898
3768	0.8901
3777	0.8904
3786	0.8907
