Infrared Spectrum: METHANE, BIS(p-METHOXYPHENYL)CHLOROPHENYL
Formula: C21 H19 Cl O2
CAS: 40615-36-9
State: SOLID (SPLIT MULL), FLUOROLUBE FOR 3800-1330 CM^-^1, NUJOL FOR 1330-470 CM^-^1
Class: COBLENTZ II
Instrument: DOW KBr FOREPRISM-GRATING
Instrument parameters: BLAZED AT 3.5, 12.0, 20.0 MICRON AND CHANGED AT 5.0, 7.5, 14.9 MICRON
Sampling: TRANSMISSION
Resolution: 2
Origin: DOW CHEMICAL COMPANY
1/CM	TRANSMITTANCE
3800	0.6618
3791	0.6604
3782	0.6595
3773	0.6594
3764	0.6615
3755	0.6665
3746	0.6733
3737	0.675
3728	0.6714
3719	0.6681
3710	0.668
3701	0.668
3692	0.6687
3683	0.6693
3674	0.67
3665	0.6706
3656	0.6712
3647	0.6718
3638	0.6725
3629	0.6732
3620	0.6737
3611	0.674
3602	0.6745
3593	0.6748
3584	0.6751
3575	0.6753
3566	0.6755
3557	0.6757
3548	0.6757
3539	0.6755
3530	0.6753
3521	0.6751
3512	0.675
3503	0.6749
3494	0.6748
3485	0.6747
3476	0.6746
3467	0.6745
3458	0.6744
3449	0.674
3440	0.6736
3431	0.6731
3422	0.6725
3413	0.6715
3404	0.6707
3395	0.6699
3386	0.6698
3377	0.6696
3368	0.6694
3359	0.6695
3350	0.6706
3341	0.6717
3332	0.6728
3323	0.674
3314	0.6755
3305	0.6769
3296	0.6785
3287	0.6798
3278	0.6811
3269	0.6822
3260	0.6837
3251	0.6851
3242	0.6865
3233	0.688
3224	0.6896
3215	0.6911
3206	0.6926
3197	0.6946
3188	0.6969
3179	0.6986
3170	0.6988
3161	0.6978
3152	0.6978
3143	0.7006
3134	0.7032
3125	0.7025
3116	0.7021
3107	0.6988
3098	0.6983
3089	0.6965
3080	0.6798
3071	0.6689
3062	0.6734
3053	0.6711
3044	0.6635
3035	0.6768
3026	0.6532
3017	0.6191
3008	0.6517
2999	0.6865
2990	0.6914
2981	0.6578
2972	0.6089
2963	0.6226
2954	0.6478
2945	0.609
2936	0.6049
2927	0.6501
2918	0.6582
2909	0.6611
2900	0.6812
2891	0.7012
2882	0.7121
2873	0.7175
2864	0.7189
2855	0.6889
2846	0.604
2837	0.7051
2828	0.7178
2819	0.7254
2810	0.7315
2801	0.736
2792	0.7401
2783	0.7431
2774	0.7455
2765	0.7478
2756	0.7501
2747	0.7525
2738	0.7549
2729	0.7565
2720	0.7581
2711	0.7596
2702	0.7611
2693	0.7625
2684	0.7639
2675	0.7653
2666	0.7668
2657	0.7682
2648	0.7697
2639	0.7708
2630	0.7718
2621	0.7728
2612	0.7738
2603	0.7745
2594	0.7751
2585	0.7756
2576	0.7743
2567	0.7653
2558	0.7617
2549	0.7689
2540	0.7761
2531	0.7794
2522	0.7799
2513	0.7771
2504	0.7749
2495	0.7758
2486	0.7775
2477	0.7789
2468	0.7798
2459	0.78
2450	0.7799
2441	0.7795
2432	0.7794
2423	0.7798
2414	0.7803
2405	0.7806
2396	0.7808
2387	0.7811
2378	0.7807
2369	0.7801
2360	0.7798
2351	0.7792
2342	0.7781
2333	0.7765
2324	0.7755
2315	0.7751
2306	0.7751
2297	0.7756
2288	0.7775
2279	0.7797
2270	0.7818
2261	0.7856
2252	0.7895
2243	0.7932
2234	0.7968
2225	0.8007
2216	0.805
2207	0.809
2198	0.8128
2189	0.8161
2180	0.8193
2171	0.8223
2162	0.8254
2153	0.8284
2144	0.8311
2135	0.8333
2126	0.8356
2117	0.8378
2108	0.8403
2099	0.8425
2090	0.8445
2081	0.8453
2072	0.8434
2063	0.8366
2054	0.827
2045	0.8225
2036	0.8387
2027	0.8486
2018	0.8549
2009	0.862
2000	0.875
1991	0.8734
1982	0.8758
1973	0.8683
1964	0.8828
1955	0.8835
1946	0.8834
1937	0.8832
1928	0.8732
1919	0.8801
1910	0.8461
1901	0.8552
1892	0.865
1883	0.8735
1874	0.8771
1865	0.8807
1856	0.8831
1847	0.8821
1838	0.8791
1829	0.8778
1820	0.8773
1811	0.88
1802	0.8807
1793	0.8774
1784	0.8638
1775	0.8582
1766	0.864
1757	0.8708
1748	0.8781
1739	0.8843
1730	0.8806
1721	0.8721
1712	0.8695
1703	0.8713
1694	0.8741
1685	0.8831
1676	0.8884
1667	0.8854
1658	0.8794
1649	0.8768
1640	0.8832
1631	0.8766
1622	0.7948
1613	0.2814
1604	0.4625
1595	0.7475
1586	0.6389
1577	0.7515
1568	0.8406
1559	0.8571
1550	0.8594
1541	0.8512
1532	0.8362
1523	0.726
1514	0.0444
1505	0.4425
1496	0.6651
1487	0.6091
1478	0.699
1469	0.5032
1460	0.4508
1451	0.4336
1442	0.619
1433	0.8004
1424	0.8081
1415	0.6854
1406	0.8046
1397	0.8175
1388	0.8593
1379	0.843
1370	0.8278
1361	0.8254
1352	0.8165
1343	0.8284
1334	0.844
1325	0.8403
1316	0.7811
1307	0.4237
1298	0.5322
1289	0.4717
1280	0.6323
1271	0.6704
1262	0.4438
1253	0.0612
1244	0.1355
1235	0.4703
1226	0.5866
1217	0.621
1208	0.6294
1199	0.7192
1190	0.6811
1181	0.1823
1172	0.4237
1163	0.6672
1154	0.6483
1145	0.4977
1136	0.7412
1127	0.7685
1118	0.7039
1109	0.7676
1100	0.7965
1091	0.801
1082	0.7925
1073	0.7799
1064	0.7865
1055	0.7956
1046	0.7667
1037	0.6853
1028	0.32
1019	0.4323
1010	0.6597
1001	0.7128
992	0.7638
983	0.7917
974	0.79
965	0.7825
956	0.7898
947	0.7632
938	0.7862
929	0.7839
920	0.7934
911	0.7941
902	0.7395
893	0.7778
884	0.7931
875	0.7998
866	0.8011
857	0.7857
848	0.5572
839	0.6341
830	0.3348
821	0.5482
812	0.5902
803	0.391
794	0.6115
785	0.5235
776	0.6132
767	0.7489
758	0.7519
749	0.4108
740	0.5794
731	0.7426
722	0.7361
713	0.6021
704	0.5894
695	0.6475
686	0.7975
677	0.8341
668	0.8475
659	0.8501
650	0.6352
641	0.8355
632	0.7156
623	0.7892
614	0.8204
605	0.8111
596	0.7404
587	0.5242
578	0.3491
569	0.7449
560	0.8028
551	0.8142
542	0.8117
533	0.7428
524	0.7901
515	0.8125
506	0.815
497	0.8139
488	0.8126
479	0.8115
470	0.8097
