Infrared Spectrum: Polyethylene glycol (600) monolaurate
Formula: C14 H28 O3
CAS: 4219-48-1
State: SOLUTION (10% CCl4 FOR 2.7-26 MICRON); INSOLUBLE IN CS2
Class: COBLENTZ
Instrument: DOW KBr FOREPRISM-GRATING
Instrument parameters: BLAZED AT 3.5, 12.0, 20.0 MICRON AND CHANGED AT 5.0, 7.5, 14.9 MICRON
Sampling: TRANSMISSION
Path length: 0.011 CM
Resolution: 2
Origin: DOW CHEMICAL COMPANY
1/CM	TRANSMITTANCE
391	0.6411
400	0.6385
409	0.6343
418	0.6321
427	0.6273
436	0.6226
445	0.6193
454	0.6178
463	0.6178
472	0.6168
481	0.6338
490	0.6528
499	0.6542
508	0.6461
517	0.6453
526	0.6499
535	0.6706
544	0.6826
553	0.6889
562	0.6989
571	0.7105
580	0.7251
589	0.7371
598	0.7424
607	0.7369
616	0.7288
625	0.7298
634	0.7847
643	0.7876
652	0.785
661	0.7744
670	0.7593
679	0.7436
688	0.7088
697	0.6541
706	0.574
715	0.4091
724	0.2555
733	0.0137
742	0
751	0
760	0
769	0
778	0.0001
787	0.0001
796	0.0001
805	0.0001
814	0.0415
823	0.2582
832	0.4037
841	0.4602
850	0.5131
859	0.5428
868	0.5502
877	0.5699
886	0.5669
895	0.628
904	0.6048
913	0.5703
922	0.5299
931	0.4776
940	0.4257
949	0.411
958	0.4847
967	0.5132
976	0.497
985	0.4877
994	0.4593
1003	0.4467
1012	0.4467
1021	0.4346
1030	0.3779
1039	0.3246
1048	0.2966
1057	0.2385
1066	0.1924
1075	0.1736
1084	0.1158
1093	0.0585
1102	0.0278
1111	0.0233
1120	0.0312
1129	0.0431
1138	0.0513
1147	0.062
1156	0.1723
1165	0.2862
1174	0.3054
1183	0.3326
1192	0.3743
1201	0.4096
1210	0.3966
1219	0.405
1228	0.3944
1237	0.3189
1246	0.2513
1255	0.2838
1264	0.3925
1273	0.4215
1282	0.4079
1291	0.4023
1300	0.3994
1309	0.5125
1318	0.5492
1327	0.5696
1336	0.6081
1345	0.4304
1354	0.3602
1363	0.4887
1372	0.5336
1381	0.5406
1390	0.6046
1399	0.6366
1408	0.6464
1417	0.6387
1426	0.6515
1435	0.5792
1444	0.4923
1453	0.3784
1462	0.3782
1471	0.3858
1480	0.6442
1489	0.6917
1498	0.7319
1507	0.699
1516	0.656
1525	0.6124
1534	0.5418
1543	0.4835
1552	0.4762
1561	0.5377
1570	0.597
1579	0.6297
1588	0.6757
1597	0.7326
1606	0.7776
1615	0.7983
1624	0.801
1633	0.8064
1642	0.8149
1651	0.8265
1660	0.8357
1669	0.8335
1678	0.824
1687	0.799
1696	0.7562
1705	0.6756
1714	0.5443
1723	0.3266
1732	0.1398
1741	0.2567
1750	0.6135
1759	0.7442
1768	0.8268
1777	0.8559
1786	0.868
1795	0.8728
1804	0.8766
1813	0.8808
1822	0.8843
1831	0.8877
1840	0.8883
1849	0.8887
1858	0.8881
1867	0.8871
1876	0.8853
1885	0.8834
1894	0.8812
1903	0.8788
1912	0.8766
1921	0.8731
1930	0.8682
1939	0.8642
1948	0.8616
1957	0.8608
1966	0.8601
1975	0.8624
1984	0.8654
1993	0.8686
2002	0.8686
2011	0.8654
2020	0.8753
2029	0.8801
2038	0.8825
2047	0.8849
2056	0.8868
2065	0.8878
2074	0.8878
2083	0.888
2092	0.888
2101	0.8878
2110	0.8875
2119	0.8873
2128	0.887
2137	0.8865
2146	0.886
2155	0.8855
2164	0.8861
2173	0.8886
2182	0.8881
2191	0.8846
2200	0.8853
2209	0.8851
2218	0.8844
2227	0.8835
2236	0.8818
2245	0.8791
2254	0.8753
2263	0.8716
2272	0.8688
2281	0.8659
2290	0.8647
2299	0.8647
2308	0.8668
2317	0.8718
2326	0.8795
2335	0.8871
2344	0.8883
2353	0.8882
2362	0.8882
2371	0.8873
2380	0.8857
2389	0.8851
2398	0.886
2407	0.8871
2416	0.8862
2425	0.8853
2434	0.8832
2443	0.8828
2452	0.8813
2461	0.8792
2470	0.8771
2479	0.8749
2488	0.8725
2497	0.8702
2506	0.8678
2515	0.8661
2524	0.8648
2533	0.8635
2542	0.8621
2551	0.8603
2560	0.8584
2569	0.8565
2578	0.8545
2587	0.8518
2596	0.8493
2605	0.8467
2614	0.8442
2623	0.8405
2632	0.8366
2641	0.8327
2650	0.8278
2659	0.8202
2668	0.8051
2677	0.7849
2686	0.769
2695	0.7586
2704	0.7494
2713	0.7386
2722	0.7318
2731	0.7258
2740	0.7214
2749	0.7182
2758	0.7051
2767	0.6842
2776	0.6578
2785	0.6198
2794	0.575
2803	0.5334
2812	0.4909
2821	0.4471
2830	0.4143
2839	0.3618
2848	0.1305
2857	0.0612
2866	0.0671
2875	0.0762
2884	0.0779
2893	0.0678
2902	0.0525
2911	0.0388
2920	0.0307
2929	0.0445
2938	0.0836
2947	0.1156
2956	0.145
2965	0.1979
2974	0.4012
2983	0.5945
2992	0.6717
3001	0.7118
3010	0.7501
3019	0.7762
3028	0.7951
3037	0.8043
3046	0.8078
3055	0.8103
3064	0.8108
3073	0.8112
3082	0.8118
3091	0.811
3100	0.8087
3109	0.8056
3118	0.801
3127	0.7958
3136	0.7904
3145	0.7857
3154	0.7811
3163	0.7755
3172	0.7694
3181	0.7633
3190	0.7569
3199	0.7501
3208	0.7434
3217	0.7365
3226	0.7296
3235	0.7219
3244	0.7145
3253	0.7068
3262	0.6976
3271	0.6887
3280	0.6796
3289	0.6694
3298	0.6592
3307	0.6508
3316	0.644
3325	0.6372
3334	0.6304
3343	0.6234
3352	0.6165
3361	0.6096
3370	0.6049
3379	0.6004
3388	0.5958
3397	0.5918
3406	0.5887
3415	0.5854
3424	0.5823
3433	0.5802
3442	0.5793
3451	0.5784
3460	0.5797
3469	0.5819
3478	0.5855
3487	0.5922
3496	0.6019
3505	0.6154
3514	0.6367
3523	0.6592
3532	0.6853
3541	0.7099
3550	0.7293
3559	0.7426
3568	0.7501
3577	0.7533
3586	0.7556
3595	0.763
3604	0.7995
3613	0.8356
3622	0.85
3631	0.8589
3640	0.8647
3649	0.8692
3658	0.8721
3667	0.8747
3676	0.8784
3685	0.8834
3694	0.8838
3703	0.8841
3712	0.8844
3721	0.8846
3730	0.885
3739	0.8856
3748	0.8863
3757	0.8868
3766	0.8875
3775	0.888
3784	0.8883
3793	0.8886
