Infrared Spectrum: Silanetriol, methyl-, triacetate
Formula: C7 H12 O6 Si
CAS: 4253-34-3
State: SOLUTION (11% CCl4 FOR 3800-1300, 5% CS2 FOR 1300-650, AND 11% CCl4 FOR 650-250)
Boiling point: 202 C
Class: COBLENTZ III
Instrument: PERKIN-ELMER 521 (GRATING)
Instrument parameters: FILTERS AT 3150, 2500, 2000, 1150, 700, 410. GRATING CHANGES: 2000, 630
Path length: 0.012 CM, 0.011 CM, AND 0.011 CM
Resolution: 2
Origin: DOW CORNING CORP.
1/CM	TRANSMITTANCE
249	0.679
258	0.6799
267	0.6784
276	0.6816
285	0.688
294	0.6967
303	0.7073
312	0.7202
321	0.7645
330	0.8234
339	0.8368
348	0.8381
357	0.8162
366	0.7632
375	0.5509
384	0.5796
393	0.7381
402	0.681
411	0.3208
420	0.4065
429	0.7613
438	0.7185
447	0.7771
456	0.848
465	0.8649
474	0.8582
483	0.8645
492	0.8906
501	0.8885
510	0.8823
519	0.8813
528	0.88
537	0.8784
546	0.8755
555	0.8704
564	0.8526
573	0.8
582	0.585
591	0.4063
600	0.7678
609	0.7664
618	0.6152
627	0.4978
636	0.813
645	0.8515
654	0.8471
663	0.85
672	0.8339
681	0.828
690	0.8346
699	0.8414
708	0.8412
717	0.8253
726	0.7764
735	0.7206
744	0.6663
753	0.6176
762	0.5809
771	0.6156
780	0.5938
789	0.5316
798	0.3586
807	0.19
816	0.1432
825	0.1897
834	0.2992
843	0.4684
852	0.7066
861	0.7546
870	0.7708
879	0.7704
888	0.7599
897	0.7394
906	0.688
915	0.6068
924	0.4437
933	0.2257
942	0.0189
951	0.0153
960	0.0887
969	0.294
978	0.4654
987	0.5411
996	0.471
1005	0.2029
1014	0.01
1023	0.0923
1032	0.2868
1041	0.3733
1050	0.4434
1059	0.5993
1068	0.6555
1077	0.6586
1086	0.6698
1095	0.6852
1104	0.6981
1113	0.6997
1122	0.7123
1131	0.7338
1140	0.7381
1149	0.7258
1158	0.6967
1167	0.6432
1176	0.5179
1185	0.347
1194	0.146
1203	0.0033
1212	0.0026
1221	0.0073
1230	0.0757
1239	0.2275
1248	0.2444
1257	0.1739
1266	0.1002
1275	0.1989
1284	0.5005
1293	0.5508
1302	0.6017
1311	0.6485
1320	0.657
1329	0.6511
1338	0.6221
1347	0.5682
1356	0.4327
1365	0.0055
1374	0.01
1383	0.2824
1392	0.419
1401	0.3702
1410	0.3418
1419	0.2369
1428	0.2514
1437	0.3387
1446	0.479
1455	0.6151
1464	0.649
1473	0.7287
1482	0.752
1491	0.7684
1500	0.7776
1509	0.7839
1518	0.7934
1527	0.8055
1536	0.8136
1545	0.8063
1554	0.7983
1563	0.7906
1572	0.7877
1581	0.79
1590	0.7863
1599	0.7684
1608	0.7574
1617	0.7344
1626	0.6876
1635	0.6571
1644	0.6868
1653	0.7119
1662	0.7048
1671	0.6831
1680	0.6387
1689	0.5766
1698	0.4633
1707	0.2237
1716	0.1685
1725	0.1033
1734	0.0013
1743	0.0022
1752	0.0013
1761	0.0012
1770	0.0669
1779	0.3058
1788	0.4425
1797	0.5203
1806	0.5761
1815	0.6266
1824	0.6787
1833	0.7175
1842	0.7569
1851	0.7703
1860	0.775
1869	0.7774
1878	0.7801
1887	0.7879
1896	0.8049
1905	0.8236
1914	0.8415
1923	0.8497
1932	0.8502
1941	0.8442
1950	0.8413
1959	0.8417
1968	0.8482
1977	0.8519
1986	0.8513
1995	0.8483
2004	0.8536
2013	0.8625
2022	0.8661
2031	0.8682
2040	0.8722
2049	0.877
2058	0.8795
2067	0.8817
2076	0.8839
2085	0.8901
2094	0.8973
2103	0.8963
2112	0.8944
2121	0.8919
2130	0.8886
2139	0.8819
2148	0.8758
2157	0.8728
2166	0.8745
2175	0.877
2184	0.8793
2193	0.8809
2202	0.8804
2211	0.8783
2220	0.8767
2229	0.8771
2238	0.8799
2247	0.8821
2256	0.8842
2265	0.8859
2274	0.8849
2283	0.8834
2292	0.8824
2301	0.8813
2310	0.8807
2319	0.881
2328	0.8818
2337	0.8828
2346	0.8836
2355	0.8829
2364	0.8821
2373	0.8796
2382	0.877
2391	0.8735
2400	0.8701
2409	0.8679
2418	0.8662
2427	0.8664
2436	0.8676
2445	0.8687
2454	0.8688
2463	0.8687
2472	0.8687
2481	0.8681
2490	0.8677
2499	0.8676
2508	0.8674
2517	0.8665
2526	0.8657
2535	0.8652
2544	0.8646
2553	0.8638
2562	0.8636
2571	0.8635
2580	0.8628
2589	0.8612
2598	0.8597
2607	0.8582
2616	0.8569
2625	0.8557
2634	0.8555
2643	0.8558
2652	0.8525
2661	0.8479
2670	0.8426
2679	0.8414
2688	0.8433
2697	0.8465
2706	0.8492
2715	0.8507
2724	0.8518
2733	0.8526
2742	0.8525
2751	0.8518
2760	0.8504
2769	0.8489
2778	0.8471
2787	0.8451
2796	0.8436
2805	0.8421
2814	0.8394
2823	0.8356
2832	0.8297
2841	0.8248
2850	0.8213
2859	0.8197
2868	0.8161
2877	0.8076
2886	0.7884
2895	0.7535
2904	0.7586
2913	0.749
2922	0.73
2931	0.7247
2940	0.7036
2949	0.7002
2958	0.7362
2967	0.7179
2976	0.6838
2985	0.6693
2994	0.6782
3003	0.7183
3012	0.7352
3021	0.7098
3030	0.6844
3039	0.6982
3048	0.7534
3057	0.7745
3066	0.785
3075	0.7939
3084	0.8002
3093	0.8054
3102	0.8091
3111	0.8128
3120	0.8169
3129	0.8206
3138	0.824
3147	0.8284
3156	0.8329
3165	0.8379
3174	0.8418
3183	0.8445
3192	0.8473
3201	0.8493
3210	0.8513
3219	0.8529
3228	0.8543
3237	0.8555
3246	0.8569
3255	0.8578
3264	0.8587
3273	0.8596
3282	0.86
3291	0.8602
3300	0.8604
3309	0.8606
3318	0.861
3327	0.8614
3336	0.8618
3345	0.8622
3354	0.8628
3363	0.8634
3372	0.8641
3381	0.8647
3390	0.866
3399	0.8676
3408	0.8693
3417	0.8706
3426	0.8717
3435	0.8727
3444	0.8723
3453	0.864
3462	0.8465
3471	0.8177
3480	0.8088
3489	0.8156
3498	0.8295
3507	0.8454
3516	0.8658
3525	0.8811
3534	0.8916
3543	0.8981
3552	0.9023
3561	0.9052
3570	0.9077
3579	0.9089
3588	0.9101
3597	0.9112
3606	0.9116
3615	0.9119
3624	0.9124
3633	0.9123
3642	0.9123
3651	0.9122
3660	0.9119
3669	0.9116
3678	0.9118
3687	0.9125
3696	0.9132
3705	0.9139
3714	0.9145
3723	0.9149
3732	0.9154
3741	0.9159
3750	0.9164
3759	0.9161
3768	0.9146
3777	0.9126
3786	0.9112
3795	0.9116
3804	0.9127
3813	0.914
3822	0.9151
