Infrared Spectrum: 4-Methyl-2-heptyn-4-ol
Formula: C 8 H 14 O
CAS: 4376-16-3
State: gas
Origin: EPA-IR VAPOR PHASE LIBRARY
1/CM	ABSORBANCE
549.8	0.003619
559.445	0.003579
569.09	0.003219
578.734	0.002649
588.379	0.002609
598.024	0.003319
607.669	0.002429
617.313	0.0016942
626.958	0.002539
636.603	0.002819
646.248	0.002749
655.893	0.003089
665.537	0.002849
675.182	0.002239
684.827	0.002079
694.472	0.002489
704.116	0.002519
713.761	0.002079
723.406	0.0014612
733.051	0.002109
742.695	0.002349
752.34	0.002029
761.985	0.001979
771.63	0.002419
781.275	0.001899
790.919	0.001939
800.564	0.002089
810.209	0.0017706
819.854	0.002129
829.498	0.003409
839.143	0.003669
848.788	0.004649
858.433	0.004519
868.078	0.003769
877.722	0.004479
887.367	0.005419
897.012	0.007109
906.657	0.008509
916.301	0.008639
925.946	0.008569
935.591	0.009959
945.236	0.010229
954.88	0.006509
964.525	0.003899
974.17	0.003439
983.815	0.004499
993.46	0.006189
1003.1	0.008589
1012.75	0.008259
1022.39	0.006779
1032.04	0.006949
1041.68	0.008879
1051.33	0.009399
1060.97	0.008779
1070.62	0.006709
1080.26	0.006259
1089.91	0.006589
1099.55	0.007679
1109.2	0.008799
1118.84	0.012139
1128.49	0.016539
1138.13	0.019639
1147.78	0.019199
1157.42	0.016539
1167.07	0.011209
1176.71	0.009869
1186.36	0.009859
1196	0.010259
1205.64	0.008769
1215.29	0.008909
1224.93	0.008999
1234.58	0.008509
1244.22	0.008219
1253.87	0.008459
1263.51	0.008169
1273.16	0.009329
1282.8	0.009579
1292.45	0.009709
1302.09	0.010549
1311.74	0.011699
1321.38	0.014289
1331.03	0.017389
1340.67	0.018559
1350.32	0.017259
1359.96	0.016059
1369.61	0.015719
1379.25	0.014449
1388.9	0.010259
1398.54	0.006099
1408.18	0.005079
1417.83	0.005289
1427.47	0.005569
1437.12	0.006389
1446.76	0.007689
1456.41	0.008899
1466.05	0.008249
1475.7	0.006709
1485.34	0.004549
1494.99	0.003639
1504.63	0.003029
1514.28	0.002889
1523.92	0.002399
1533.57	0.002589
1543.21	0.002809
1552.86	0.002099
1562.5	0.001899
1572.15	0.0016563
1581.79	0.0018203
1591.44	0.0014694
1601.08	0.0016289
1610.73	0.0012636
1620.37	0.0012947
1630.01	0.0013809
1639.66	0.000999
1649.3	0.001298
1658.95	0.0012744
1668.59	0.001061
1678.24	0.0009548
1687.88	0.0012291
1697.53	0.0009459
1707.17	0.0012268
1716.82	0.00088686
1726.46	0.0010635
1736.11	0.0011491
1745.75	0.000934
1755.4	0.0009866
1765.04	0.0009314
1774.69	0.0010015
1784.33	0.00085621
1793.98	0.00087669
1803.62	0.0009242
1813.27	0.0009364
1822.91	0.001035
1832.55	0.0009791
1842.2	0.0009695
1851.84	0.00088176
1861.49	0.0009739
1871.13	0.00089544
1880.78	0.00089101
1890.42	0.00088483
1900.07	0.00092592
1909.71	0.0009924
1919.36	0.00088034
1929	0.00087413
1938.65	0.0009737
1948.29	0.0010717
1957.94	0.00091725
1967.58	0.000830737
1977.23	0.0008149
1986.87	0.0010743
1996.52	0.00085388
2006.16	0.000838708
2015.81	0.00092382
2025.45	0.0010212
2035.1	0.0010064
2044.74	0.0011826
2054.38	0.0012103
2064.03	0.0012171
2073.67	0.0010204
2083.32	0.0007744
2092.96	0.0009702
2102.61	0.0009406
2112.25	0.0010638
2121.9	0.0010818
2131.54	0.0010614
2141.19	0.0009307
2150.83	0.001086
2160.48	0.00088498
2170.12	0.0012315
2179.77	0.0012464
2189.41	0.0011831
2199.06	0.0014093
2208.7	0.0016713
2218.35	0.002319
2227.99	0.002809
2237.64	0.002979
2247.28	0.002949
2256.92	0.002669
2266.57	0.001731
2276.21	0.001637
2285.86	0.001361
2295.5	0.0016528
2305.15	0.0012878
2314.79	0.0012411
2324.44	0.00112
2334.08	0.0011721
2343.73	0.0010156
2353.37	0.0010292
2363.02	0.0010404
2372.66	0.00091706
2382.31	0.0011988
2391.95	0.0011139
2401.6	0.0011159
2411.24	0.0010134
2420.89	0.0011128
2430.53	0.0010344
2440.18	0.0012713
2449.82	0.0011064
2459.47	0.0013448
2469.11	0.0012692
2478.75	0.0009721
2488.4	0.0012921
2498.04	0.0012775
2507.69	0.0012468
2517.33	0.0011115
2526.98	0.00088221
2536.62	0.0007451
2546.27	0.00088383
2555.91	0.0010957
2565.56	0.0010997
2575.2	0.0012248
2584.85	0.000834346
2594.49	0.0010696
2604.14	0.0010929
2613.78	0.0013674
2623.43	0.0012237
2633.07	0.0016293
2642.72	0.0010554
2652.36	0.0014317
2662.01	0.0013988
2671.65	0.0011461
2681.29	0.0014107
2690.94	0.0012963
2700.58	0.0015067
2710.23	0.0011553
2719.87	0.0017186
2729.52	0.001839
2739.16	0.002069
2748.81	0.002259
2758.45	0.002159
2768.1	0.0018147
2777.74	0.0017824
2787.39	0.002299
2797.03	0.002639
2806.68	0.002489
2816.32	0.003269
2825.97	0.003609
2835.61	0.004709
2845.26	0.006279
2854.9	0.008809
2864.55	0.012799
2874.19	0.019689
2883.84	0.022299
2893.48	0.018589
2903.12	0.016519
2912.77	0.021319
2922.41	0.031759
2932.06	0.044549
2941.7	0.047799
2951.35	0.038429
2960.99	0.041169
2970.64	0.046669
2980.28	0.041829
2989.93	0.032109
2999.57	0.018319
3009.22	0.009819
3018.86	0.006439
3028.51	0.005069
3038.15	0.005099
3047.8	0.003899
3057.44	0.003389
3067.09	0.002649
3076.73	0.001829
3086.38	0.002519
3096.02	0.002279
3105.67	0.001869
3115.31	0.001869
3124.95	0.001909
3134.6	0.0010715
3144.24	0.0016589
3153.89	0.0009512
3163.53	0.0014906
3173.18	0.0016421
3182.82	0.0015213
3192.47	0.0015358
3202.11	0.0012143
3211.76	0.0011996
3221.4	0.0013732
3231.05	0.0012059
3240.69	0.0009557
3250.34	0.0010745
3259.98	0.0013553
3269.63	0.000717
3279.27	0.0014556
3288.92	0.0014504
3298.56	0.0014127
3308.21	0.0012285
3317.85	0.0013294
3327.49	0.00085395
3337.14	0.0007923
3346.78	0.000830018
3356.43	0.0015545
3366.07	0.0014901
3375.72	0.0010862
3385.36	0.0012198
3395.01	0.00087693
3404.65	0.0008011
3414.3	0.0012242
3423.94	0.00091533
3433.59	0.00093
3443.23	0.00092148
3452.88	0.0011835
3462.52	0.000524
3472.17	0.0013648
3481.81	0.0010036
3491.46	0.0009959
3501.1	0.0007663
3510.75	0.001098
3520.39	0.000932
3530.04	0.0012089
3539.68	0.0014765
3549.32	0.000719
3558.97	0.000607
3568.61	0.0007933
3578.26	0.0007932
3587.9	0.00084876
3597.55	0.0010651
3607.19	0.0016206
3616.84	0.002349
3626.48	0.003759
3636.13	0.007729
3645.77	0.008949
3655.42	0.004549
3665.06	0.002079
3674.71	0.0010609
3684.35	0.0011968
3694	0.0010104
3703.64	0.0007653
3713.29	0.00088678
3722.93	0.000311
3732.58	0.0009721
3742.22	0.000961
3751.86	0.0009814
3761.51	0.0009473
3771.15	0.0014964
3780.8	0.0010542
3790.44	0.000586
3800.09	0.00092526
3809.73	0.00092447
3819.38	0.00076
3829.02	0.0014789
3838.67	0.0013696
3848.31	0.0011942
3857.96	0.0007667
3867.6	0.0012397
3877.25	0.0013626
3886.89	0.0013257
3896.54	0.0012275
3906.18	0.0008131
3915.83	0.0007633
3925.47	0.0012415
3935.12	0.0011074
3944.76	0.00055
3954.41	0.000698
3964.05	0.0011966
3973.69	0.001038
3983.34	0.0013954
3992.98	0.0012518
