Infrared Spectrum: 1,1-NONADECANEDICARBOXYLIC ACID
Formula: C21 H40 O4
CAS: 4475-04-1
State: SOLID (SPLIT MULL, FLUOROLUBE FOR 3800-1330 AND NUJOL FOR 1330-460 CM ^-^1)
Melting point: 124 C
Class: COBLENTZ III
Instrument: DOW KBr FOREPRISM-GRATING
Instrument parameters: BLAZED AT 3.5, 12.0, 20.0 MICRON, CHANGED AT 5.0, 7.5, 14.9 MICRON
Sampling: TRANSMISSION
Resolution: 4
Origin: DOW CHEMICAL COMPANY
1/CM	TRANSMITTANCE
457.317	0.678
466.028	0.678
474.739	0.694
483.449	0.759
492.16	0.863
500.871	0.909
509.582	0.919
518.293	0.954
527.004	0.961
535.714	0.934
544.425	0.849
553.136	0.93
561.847	0.991
570.558	1.002
579.268	0.998
587.979	0.928
596.69	0.922
605.401	0.986
614.112	1.017
622.822	1.034
631.533	1.038
640.244	1.036
648.955	1.024
657.666	1.001
666.377	0.926
675.087	0.777
683.798	0.835
692.509	0.998
701.22	0.908
709.931	0.917
718.641	0.6
727.352	0.861
736.063	0.937
744.774	0.967
753.485	0.968
762.196	0.969
770.906	0.893
779.617	0.883
788.328	0.796
797.039	0.941
805.75	0.952
814.46	0.935
823.171	0.935
831.882	0.939
840.593	0.923
849.304	0.924
858.014	0.922
866.725	0.894
875.436	0.872
884.147	0.813
892.858	0.714
901.569	0.649
910.279	0.589
918.99	0.596
927.701	0.575
936.412	0.552
945.123	0.575
953.833	0.645
962.544	0.712
971.255	0.779
979.966	0.824
988.677	0.824
997.387	0.805
1006.1	0.809
1014.81	0.792
1023.52	0.759
1032.23	0.731
1040.94	0.66
1049.65	0.668
1058.36	0.604
1067.07	0.537
1075.78	0.523
1084.5	0.564
1093.21	0.555
1101.92	0.525
1110.63	0.56
1119.34	0.549
1128.05	0.589
1136.76	0.662
1145.47	0.677
1154.18	0.685
1162.89	0.69
1171.6	0.678
1180.31	0.678
1189.03	0.666
1197.74	0.593
1206.45	0.547
1215.16	0.545
1223.87	0.564
1232.58	0.473
1241.29	0.564
1250	0.372
1258.71	0.398
1267.42	0.396
1276.13	0.337
1284.84	0.467
1293.56	0.466
1302.27	0.374
1310.98	0.309
1319.69	0.506
1328.4	0.497
1337.11	0.523
1345.82	0.567
1354.53	0.636
1363.24	0.694
1371.95	0.712
1380.66	0.679
1389.37	0.697
1398.08	0.619
1406.8	0.389
1415.51	0.339
1424.22	0.399
1432.93	0.519
1441.64	0.656
1450.35	0.597
1459.06	0.622
1467.77	0.525
1476.48	0.242
1485.19	0.863
1493.9	0.926
1502.61	0.938
1511.33	0.942
1520.04	0.943
1528.75	0.937
1537.46	0.93
1546.17	0.919
1554.88	0.915
1563.59	0.913
1572.3	0.906
1581.01	0.904
1589.72	0.894
1598.43	0.882
1607.14	0.86
1615.86	0.835
1624.57	0.808
1633.28	0.775
1641.99	0.737
1650.7	0.7
1659.41	0.647
1668.12	0.574
1676.83	0.448
1685.54	0.257
1694.25	0.08
1702.96	0.041
1711.67	0.041
1720.39	0.039
1729.1	0.021
1737.81	0.041
1746.52	0.232
1755.23	0.563
1763.94	0.726
1772.65	0.793
1781.36	0.833
1790.07	0.849
1798.78	0.864
1807.49	0.875
1816.2	0.883
1824.91	0.89
1833.63	0.893
1842.34	0.896
1851.05	0.898
1859.76	0.9
1868.47	0.9
1877.18	0.9
1885.89	0.901
1894.6	0.902
1903.31	0.912
1912.02	0.915
1920.73	0.913
1929.44	0.915
1938.16	0.913
1946.87	0.911
1955.58	0.913
1964.29	0.911
1973	0.912
1981.71	0.913
1990.42	0.913
1999.13	0.912
2007.84	0.912
2016.55	0.911
2025.26	0.911
2033.97	0.9099
2042.69	0.909
2051.4	0.9085
2060.11	0.906
2068.82	0.905
2077.53	0.902
2086.24	0.9004
2094.95	0.8974
2103.66	0.896
2112.37	0.8948
2121.08	0.894
2129.79	0.893
2138.5	0.891
2147.21	0.89
2155.93	0.8863
2164.64	0.8787
2173.35	0.8713
2182.06	0.8603
2190.77	0.8493
2199.48	0.8413
2208.19	0.8343
2216.9	0.8246
2225.61	0.8123
2234.32	0.7951
2243.03	0.7835
2251.74	0.7688
2260.46	0.7602
2269.17	0.7532
2277.88	0.7457
2286.59	0.74
2295.3	0.7314
2304.01	0.7226
2312.72	0.7021
2321.43	0.6782
2330.14	0.6672
2338.85	0.6603
2347.56	0.659
2356.27	0.6563
2364.99	0.655
2373.7	0.6521
2382.41	0.647
2391.12	0.6383
2399.83	0.6302
2408.54	0.6151
2417.25	0.6032
2425.96	0.5951
2434.67	0.588
2443.38	0.5742
2452.09	0.5552
2460.8	0.543
2469.52	0.523
2478.23	0.5
2486.94	0.477
2495.65	0.458
2504.36	0.437
2513.07	0.426
2521.78	0.4059
2530.49	0.3949
2539.2	0.389
2547.91	0.387
2556.62	0.387
2565.33	0.3839
2574.04	0.38
2582.76	0.3738
2591.47	0.367
2600.18	0.3628
2608.89	0.3579
2617.6	0.355
2626.31	0.3567
2635.02	0.352
2643.73	0.348
2652.44	0.3457
2661.15	0.3462
2669.86	0.3503
2678.57	0.3622
2687.29	0.369
2696	0.372
2704.71	0.373
2713.42	0.37
2722.13	0.3628
2730.84	0.3563
2739.55	0.35
2748.26	0.348
2756.97	0.3467
2765.68	0.3392
2774.39	0.3229
2783.1	0.305
2791.82	0.285
2800.53	0.2566
2809.24	0.2284
2817.95	0.193
2826.66	0.1602
2835.37	0.1083
2844.08	0.0182
2852.79	0.0235
2861.5	0.0857
2870.21	0.1144
2878.92	0.0961
2887.63	0.0674
2896.35	0.034
2905.06	0.0084
2913.77	0
2922.48	0.0158
2931.19	0.0453
2939.9	0.1104
2948.61	0.112
2957.32	0.1415
2966.03	0.236
2974.74	0.228
2983.45	0.2819
2992.16	0.2945
3000.87	0.298
3009.59	0.2995
3018.3	0.301
3027.01	0.3061
3035.72	0.3151
3044.43	0.322
3053.14	0.3325
3061.85	0.3396
3070.56	0.3483
3079.27	0.3586
3087.98	0.3677
3096.69	0.378
3105.4	0.396
3114.12	0.4143
3122.83	0.4286
3131.54	0.4499
3140.25	0.4741
3148.96	0.491
3157.67	0.5107
3166.38	0.528
3175.09	0.5447
3183.8	0.5634
3192.51	0.5788
3201.22	0.5948
3209.93	0.6108
3218.65	0.6267
3227.36	0.6477
3236.07	0.6692
3244.78	0.685
3253.49	0.7023
3262.2	0.7148
3270.91	0.7285
3279.62	0.7418
3288.33	0.7558
3297.04	0.7608
3305.75	0.7718
3314.46	0.7778
3323.17	0.7885
3331.89	0.7938
3340.6	0.798
3349.31	0.8038
3358.02	0.8067
3366.73	0.809
3375.44	0.8148
3384.15	0.818
3392.86	0.82
3401.57	0.823
3410.28	0.8269
3418.99	0.827
3427.7	0.826
3436.42	0.826
3445.13	0.829
3453.84	0.829
3462.55	0.8241
3471.26	0.822
3479.97	0.822
3488.68	0.823
3497.39	0.82
3506.1	0.82
3514.81	0.818
3523.52	0.816
3532.23	0.815
3540.95	0.8149
3549.66	0.813
3558.37	0.8109
3567.08	0.8027
3575.79	0.7961
3584.5	0.7958
3593.21	0.7899
3601.92	0.7942
3610.63	0.796
3619.34	0.794
3628.05	0.7926
3636.76	0.794
3645.48	0.787
3654.19	0.7922
3662.9	0.7938
3671.61	0.7858
3680.32	0.786
3689.03	0.7822
3697.74	0.786
3706.45	0.7828
3715.16	0.782
3723.87	0.782
3732.58	0.7805
3741.29	0.7765
3750	0.771
3758.72	0.7695
3767.43	0.766
3776.14	0.763
3784.85	0.7607
3793.56	0.759
