Infrared Spectrum: ETHANONE, 1-[3-FLUOROPHENYL]-
Formula: C8 H7 F O
CAS: 455-36-7
State: SOLUTION (10% IN CCl4 FOR 3800-1333, 10% IN CS2 FOR 1333-460 CM^-^1)
Class: COBLENTZ III
Instrument: DOW KBr FOREPRISM-GRATING
Instrument parameters: BLAZED AT 3.5, 12.0, 20.0 MICRON, CHANGED AT 5.0, 7.5, 14.9 MICRON
Sampling: TRANSMISSION
Path length: 0.010, 0.010 CM
Resolution: 4
Origin: DOW CHEMICAL COMPANY
1/CM	TRANSMITTANCE
458.892	0.821
467.638	0.821
476.385	0.822
485.131	0.815
493.877	0.795
502.624	0.756
511.37	0.756
520.117	0.803
528.863	0.748
537.609	0.703
546.356	0.849
555.102	0.886
563.848	0.885
572.595	0.866
581.341	0.771
590.088	0.431
598.834	0.692
607.58	0.676
616.327	0.882
625.073	0.887
633.819	0.908
642.566	0.894
651.312	0.862
660.058	0.856
668.805	0.856
677.551	0.648
686.298	0.1431
695.044	0.766
703.79	0.413
712.537	0.938
721.283	0.964
730.029	0.976
738.776	0.98
747.522	0.975
756.269	0.882
765.015	0.926
773.761	0.863
782.508	0.12
791.254	0.127
800	0.655
808.747	0.9
817.493	0.945
826.239	0.956
834.986	0.942
843.732	0.892
852.479	0.784
861.225	0.678
869.971	0.17
878.718	0.2511
887.464	0.461
896.21	0.168
904.957	0.73
913.703	0.89
922.45	0.918
931.196	0.931
939.942	0.933
948.689	0.845
957.435	0.683
966.181	0.898
974.928	0.83
983.674	0.946
992.42	0.953
1001.17	0.901
1009.91	0.927
1018.66	0.786
1027.41	0.923
1036.15	0.934
1044.9	0.938
1053.65	0.934
1062.39	0.86
1071.14	0.785
1079.88	0.78
1088.63	0.853
1097.38	0.894
1106.12	0.919
1114.87	0.926
1123.62	0.926
1132.36	0.893
1141.11	0.871
1149.86	0.785
1158.6	0.647
1167.35	0.826
1176.09	0.707
1184.84	0.166
1193.59	0.316
1202.33	0.4901
1211.08	0.778
1219.83	0.844
1228.57	0.849
1237.32	0.74
1246.07	0.668
1254.81	0.323
1263.56	0.01
1272.3	0.006
1281.05	0.088
1289.8	0.144
1298.54	0.558
1307.29	0.647
1316.04	0.724
1324.78	0.74
1333.53	0.823
1342.28	0.827
1351.02	0.677
1359.77	0.086
1368.51	0.4571
1377.26	0.767
1386.01	0.849
1394.75	0.831
1403.5	0.804
1412.25	0.74
1420.99	0.562
1429.74	0.418
1438.49	0.127
1447.23	0.039
1455.98	0.592
1464.72	0.732
1473.47	0.728
1482.22	0.382
1490.96	0.3621
1499.71	0.661
1508.46	0.726
1517.2	0.709
1525.95	0.655
1534.7	0.61
1543.44	0.519
1552.19	0.475
1560.93	0.512
1569.68	0.536
1578.43	0.411
1587.17	0.08
1595.92	0.1361
1604.67	0.577
1613.41	0.629
1622.16	0.816
1630.91	0.846
1639.65	0.838
1648.4	0.806
1657.14	0.747
1665.89	0.725
1674.64	0.565
1683.38	0.2179
1692.13	0
1700.88	0.038
1709.62	0.5121
1718.37	0.758
1727.12	0.762
1735.86	0.797
1744.61	0.845
1753.35	0.857
1762.1	0.9
1770.85	0.911
1779.59	0.9
1788.34	0.887
1797.09	0.926
1805.83	0.945
1814.58	0.946
1823.33	0.953
1832.07	0.956
1840.82	0.953
1849.56	0.939
1858.31	0.934
1867.06	0.924
1875.8	0.942
1884.55	0.931
1893.3	0.954
1902.04	0.965
1910.79	0.971
1919.54	0.972
1928.28	0.967
1937.03	0.935
1945.77	0.948
1954.52	0.949
1963.27	0.949
1972.01	0.954
1980.76	0.963
1989.51	0.976
1998.25	0.989
2007	0.998
2015.75	1.002
2024.49	1.001
2033.24	1
2041.98	0.9872
2050.73	0.9948
2059.48	1.001
2068.22	0.997
2076.97	0.9871
2085.72	0.9829
2094.46	0.9928
2103.21	1.0089
2111.96	1.012
2120.7	1.0121
2129.45	1.012
2138.19	1.0103
2146.94	1.0051
2155.69	1.0049
2164.43	1.009
2173.18	1.008
2181.93	1.0092
2190.67	1.01
2199.42	1.0128
2208.17	1.015
2216.91	1.013
2225.66	1.01
2234.4	1.005
2243.15	1.002
2251.9	1.001
2260.64	1.0002
2269.39	1
2278.14	0.9985
2286.88	0.9972
2295.63	0.9915
2304.38	0.995
2313.12	0.9948
2321.87	0.9867
2330.61	0.9959
2339.36	1.001
2348.11	1.0014
2356.85	1.002
2365.6	1.002
2374.35	0.9986
2383.09	1
2391.84	1.0007
2400.59	1.002
2409.33	1.007
2418.08	1.008
2426.82	1.0086
2435.57	1.0084
2444.32	1.006
2453.06	1.001
2461.81	0.9882
2470.56	0.986
2479.3	0.9994
2488.05	1.0016
2496.8	1.0016
2505.54	1.005
2514.29	1.004
2523.03	1.004
2531.78	1.0015
2540.53	0.9989
2549.27	0.9935
2558.02	0.9945
2566.77	0.9926
2575.51	0.999
2584.26	0.998
2593.01	0.996
2601.75	0.994
2610.5	0.993
2619.24	0.991
2627.99	0.989
2636.74	0.99
2645.48	0.991
2654.23	0.991
2662.98	0.993
2671.72	0.9906
2680.47	0.9904
2689.22	0.994
2697.96	0.994
2706.71	0.993
2715.45	0.99
2724.2	0.993
2732.95	0.994
2741.69	0.9936
2750.44	0.991
2759.19	0.99
2767.93	0.987
2776.68	0.9836
2785.43	0.984
2794.17	0.986
2802.92	0.989
2811.67	0.9867
2820.41	0.9854
2829.16	0.982
2837.9	0.978
2846.65	0.975
2855.4	0.9677
2864.14	0.9637
2872.89	0.9607
2881.64	0.957
2890.38	0.956
2899.13	0.954
2907.88	0.9528
2916.62	0.9418
2925.37	0.9268
2934.11	0.9302
2942.86	0.9382
2951.61	0.9388
2960.35	0.9263
2969.1	0.8915
2977.85	0.8721
2986.59	0.9164
2995.34	0.9238
3004.09	0.91
3012.83	0.8547
3021.58	0.8349
3030.32	0.9046
3039.07	0.9217
3047.82	0.8993
3056.56	0.8984
3065.31	0.8929
3074.06	0.8591
3082.8	0.7317
3091.55	0.8026
3100.3	0.8547
3109.04	0.9221
3117.79	0.9331
3126.53	0.9451
3135.28	0.9481
3144.03	0.956
3152.77	0.959
3161.52	0.959
3170.27	0.961
3179.01	0.961
3187.76	0.961
3196.51	0.96
3205.25	0.96
3214	0.961
3222.74	0.963
3231.49	0.963
3240.24	0.963
3248.98	0.963
3257.73	0.9611
3266.48	0.96
3275.22	0.959
3283.97	0.9561
3292.72	0.956
3301.46	0.956
3310.21	0.956
3318.95	0.9542
3327.7	0.954
3336.45	0.952
3345.19	0.9463
3353.94	0.9375
3362.69	0.9144
3371.43	0.883
3380.18	0.8827
3388.93	0.9217
3397.67	0.9407
3406.42	0.9477
3415.16	0.9488
3423.91	0.949
3432.66	0.949
3441.4	0.949
3450.15	0.95
3458.9	0.9492
3467.64	0.949
3476.39	0.9465
3485.14	0.9458
3493.88	0.948
3502.63	0.948
3511.37	0.946
3520.12	0.946
3528.87	0.946
3537.61	0.946
3546.36	0.949
3555.11	0.95
3563.85	0.953
3572.6	0.956
3581.35	0.9567
3590.09	0.959
3598.84	0.96
3607.58	0.961
3616.33	0.961
3625.08	0.964
3633.82	0.9617
3642.57	0.9636
3651.32	0.964
3660.06	0.963
3668.81	0.9634
3677.56	0.9534
3686.3	0.952
3695.05	0.9587
3703.79	0.967
3712.54	0.9667
3721.29	0.972
3730.03	0.9701
3738.78	0.971
3747.53	0.968
3756.27	0.969
3765.02	0.965
3773.77	0.965
3782.51	0.967
3791.26	0.967
