Infrared Spectrum: Fluorobenzene
Formula: C6 H5 F
CAS: 462-06-6
State: SOLUTION (10% CCl4 FOR 3800-1300, 10% CS2 FOR 1300-450 CM^-^1)
Class: COBLENTZ III
Instrument: DOW KBr FOREPRISM-GRATING
Instrument parameters: BLAZED AT 3.5, 12.0, 20.0 MICRON AND CHANGED AT 5.0, 7.5, 14.9 MICRON
Sampling: TRANSMISSION
Path length: 0.011 CM, 0.011 CM
Resolution: 2
Origin: DOW CHEMICAL COMPANY
1/CM	TRANSMITTANCE
3802	0.8722
3793	0.8791
3784	0.8825
3775	0.8827
3766	0.8849
3757	0.8856
3748	0.886
3739	0.8867
3730	0.8872
3721	0.8857
3712	0.8787
3703	0.8706
3694	0.8733
3685	0.8792
3676	0.8797
3667	0.8786
3658	0.8776
3649	0.8776
3640	0.8783
3631	0.8803
3622	0.8812
3613	0.8824
3604	0.8834
3595	0.8845
3586	0.8856
3577	0.8867
3568	0.8865
3559	0.8877
3550	0.8902
3541	0.892
3532	0.8936
3523	0.8939
3514	0.8956
3505	0.8969
3496	0.8985
3487	0.8999
3478	0.9011
3469	0.9019
3460	0.9027
3451	0.9045
3442	0.9066
3433	0.9091
3424	0.9115
3415	0.915
3406	0.918
3397	0.9176
3388	0.9174
3379	0.9163
3370	0.9166
3361	0.9142
3352	0.9133
3343	0.9124
3334	0.9117
3325	0.9111
3316	0.911
3307	0.9111
3298	0.9104
3289	0.9091
3280	0.9064
3271	0.9045
3262	0.9029
3253	0.9015
3244	0.8991
3235	0.8981
3226	0.8947
3217	0.8938
3208	0.8906
3199	0.8895
3190	0.8881
3181	0.8868
3172	0.8863
3163	0.8872
3154	0.8852
3145	0.8809
3136	0.8773
3127	0.8692
3118	0.8485
3109	0.7966
3100	0.7513
3091	0.7318
3082	0.6842
3073	0.6751
3064	0.6553
3055	0.5913
3046	0.5637
3037	0.6873
3028	0.7699
3019	0.8082
3010	0.8296
3001	0.8404
2992	0.8498
2983	0.857
2974	0.8629
2965	0.8672
2956	0.8703
2947	0.8687
2938	0.8721
2929	0.8736
2920	0.8733
2911	0.8736
2902	0.8733
2893	0.87
2884	0.8659
2875	0.8625
2866	0.8657
2857	0.8689
2848	0.8707
2839	0.8726
2830	0.872
2821	0.8733
2812	0.8711
2803	0.871
2794	0.8699
2785	0.8688
2776	0.8695
2767	0.8693
2758	0.8692
2749	0.8691
2740	0.8689
2731	0.8689
2722	0.8688
2713	0.8685
2704	0.8682
2695	0.8677
2686	0.8674
2677	0.8671
2668	0.8668
2659	0.8664
2650	0.8612
2641	0.8607
2632	0.863
2623	0.8624
2614	0.8529
2605	0.8472
2596	0.857
2587	0.8588
2578	0.8528
2569	0.8538
2560	0.8556
2551	0.8572
2542	0.8589
2533	0.8605
2524	0.8624
2515	0.8637
2506	0.8645
2497	0.8653
2488	0.8654
2479	0.8666
2470	0.866
2461	0.8609
2452	0.8493
2443	0.8318
2434	0.8295
2425	0.8425
2416	0.853
2407	0.8528
2398	0.8403
2389	0.8408
2380	0.8513
2371	0.8585
2362	0.8596
2353	0.8681
2344	0.868
2335	0.8587
2326	0.8546
2317	0.8452
2308	0.8198
2299	0.8322
2290	0.8448
2281	0.8525
2272	0.8569
2263	0.8595
2254	0.8613
2245	0.8655
2236	0.8663
2227	0.862
2218	0.8529
2209	0.8554
2200	0.8604
2191	0.8623
2182	0.8656
2173	0.8653
2164	0.8626
2155	0.8633
2146	0.8648
2137	0.8663
2128	0.8669
2119	0.8669
2110	0.8669
2101	0.867
2092	0.8664
2083	0.8661
2074	0.8642
2065	0.8552
2056	0.8578
2047	0.8549
2038	0.8349
2029	0.8173
2020	0.8212
2011	0.8359
2002	0.8456
1993	0.8532
1984	0.8349
1975	0.8297
1966	0.8012
1957	0.7858
1948	0.7976
1939	0.7316
1930	0.7557
1921	0.8125
1912	0.8222
1903	0.8317
1894	0.8339
1885	0.8304
1876	0.7924
1867	0.8014
1858	0.7623
1849	0.7444
1840	0.8038
1831	0.8158
1822	0.828
1813	0.8318
1804	0.8252
1795	0.8228
1786	0.8138
1777	0.766
1768	0.7856
1759	0.8173
1750	0.825
1741	0.8156
1732	0.8139
1723	0.8139
1714	0.7431
1705	0.772
1696	0.803
1687	0.8207
1678	0.8269
1669	0.8384
1660	0.8488
1651	0.8562
1642	0.8536
1633	0.8193
1624	0.7388
1615	0.7308
1606	0.375
1597	0.012
1588	0.3989
1579	0.5813
1570	0.6807
1561	0.7247
1552	0.7453
1543	0.7341
1534	0.7285
1525	0.6281
1516	0.623
1507	0.4333
1498	0.0128
1489	0.0965
1480	0.4305
1471	0.4271
1462	0.6979
1453	0.6978
1444	0.7952
1435	0.8095
1426	0.8391
1417	0.8468
1408	0.8519
1399	0.8389
1390	0.7884
1381	0.855
1372	0.8489
1363	0.8528
1354	0.8473
1345	0.8372
1336	0.8089
1327	0.7254
1318	0.7945
1309	0.8047
1300	0.7433
1291	0.7685
1282	0.7711
1273	0.7732
1264	0.7542
1255	0.6428
1246	0.5799
1237	0.2144
1228	0.0415
1219	0.0098
1210	0.1086
1201	0.6125
1192	0.7181
1183	0.7276
1174	0.7638
1165	0.7325
1156	0.0944
1147	0.6447
1138	0.752
1129	0.7778
1120	0.8338
1111	0.845
1102	0.8185
1093	0.8273
1084	0.825
1075	0.7836
1066	0.3163
1057	0.7184
1048	0.7903
1039	0.8034
1030	0.8003
1021	0.4678
1012	0.7511
1003	0.7665
994	0.701
985	0.7685
976	0.7618
967	0.7808
958	0.7865
949	0.7919
940	0.7962
931	0.7978
922	0.7982
913	0.7908
904	0.7713
895	0.3474
886	0.6075
877	0.7529
868	0.7796
859	0.8016
850	0.8144
841	0.7802
832	0.6256
823	0.6603
814	0.4107
805	0.0318
796	0.6737
787	0.7301
778	0.694
769	0.6038
760	0.1609
751	0.006
742	0.5828
733	0.7388
724	0.7862
715	0.7988
706	0.7977
697	0.7289
688	0.3642
679	0.5796
670	0.7522
661	0.806
652	0.795
643	0.8196
634	0.8338
625	0.8382
616	0.8335
607	0.8338
598	0.8385
589	0.8412
580	0.8414
571	0.8416
562	0.837
553	0.8288
544	0.8142
535	0.7942
526	0.7184
517	0.4552
508	0.6499
499	0.1397
490	0.63
481	0.7057
472	0.7248
463	0.7377
454	0.7411
