Infrared Spectrum: CINEOLE
Formula: C10 H18 O
CAS: 470-82-6
State: SOLUTION (10% CCl4 FOR 3800-1330, 10% CS2 FOR 1330-400 CM^-^1)
Class: COBLENTZ III
Instrument: DOW KBr FOREPRISM-GRATING
Instrument parameters: BLAZED AT 3.5, 12.0, 20.0 MICRON AND CHANGED AT 5.0, 7.5, 14.9 MICRON
Sampling: TRANSMISSION
Path length: 0.011 CM, 0.011 CM
Resolution: 2
Origin: DOW CHEMICAL COMPANY
1/CM	TRANSMITTANCE
384	0.1836
393	0.2052
402	0.3716
411	0.6219
420	0.863
429	0.9
438	0.9235
447	0.8849
456	0.7296
465	0.9217
474	0.954
483	0.9641
492	0.9711
501	0.9702
510	0.992
519	1.002
528	1.0077
537	1.009
546	0.9871
555	1.0118
564	1
573	0.854
582	0.9748
591	1.0237
600	1.0186
609	1.0327
618	1.0199
627	1.0182
636	1.0094
645	0.9748
654	0.9863
663	1.034
672	1.0396
681	1.0468
690	1.0539
699	1.0624
708	1.0674
717	1.0744
726	1.0805
735	1.0859
744	1.0909
753	1.0868
762	0.9984
771	1.0807
780	1.0788
789	1.0502
798	1.0709
807	1.0554
816	0.9905
825	1.0807
834	1.0202
843	0.2739
852	0.7315
861	0.8814
870	0.9225
879	1.0054
888	0.9183
897	1.089
906	1.0947
915	1.0366
924	1.0031
933	1.0578
942	1.0861
951	1.0633
960	0.9942
969	0.8069
978	0.2073
987	0.0287
996	0.5423
1005	0.9044
1014	0.5712
1023	0.9664
1032	0.9855
1041	0.9468
1050	0.3841
1059	0.5652
1068	0.8087
1077	0.3038
1086	0.3832
1095	0.844
1104	0.935
1113	0.9642
1122	1.0139
1131	1.0184
1140	0.9987
1149	0.9263
1158	0.7704
1167	0.309
1176	0.514
1185	0.9132
1194	0.9265
1203	0.8615
1212	0.1462
1221	0.514
1230	0.6052
1239	0.3979
1248	0.8015
1257	0.8687
1266	0.7539
1275	0.6718
1284	0.9403
1293	0.9332
1302	0.7151
1311	0.6664
1320	0.9392
1329	0.931
1338	0.8709
1347	0.8745
1356	0.3466
1365	0.2619
1374	0.2444
1383	0.3868
1392	0.9059
1401	0.9442
1410	0.9487
1419	0.9246
1428	0.9028
1437	0.8325
1446	0.5849
1455	0.6628
1464	0.365
1473	0.3991
1482	0.8186
1491	0.8191
1500	0.864
1509	0.8328
1518	0.7899
1527	0.7469
1536	0.6747
1545	0.5749
1554	0.5421
1563	0.6339
1572	0.6838
1581	0.7225
1590	0.7474
1599	0.8423
1608	0.919
1617	0.9623
1626	0.9798
1635	0.9858
1644	1.0038
1653	1.0078
1662	1.0086
1671	1.0086
1680	1.0062
1689	1.0049
1698	1.0059
1707	1.0077
1716	1.0093
1725	1.0097
1734	1.009
1743	1.0097
1752	1.0102
1761	1.0075
1770	1.0111
1779	1.0132
1788	1.0075
1797	1.0002
1806	0.9966
1815	0.9946
1824	0.9842
1833	0.9837
1842	0.9985
1851	1.0016
1860	1.003
1869	1.0067
1878	1.0125
1887	1.0121
1896	1.0077
1905	1.0128
1914	1.014
1923	1.01
1932	1.0136
1941	1.0171
1950	1.021
1959	1.0187
1968	1.0191
1977	1.0165
1986	1.0146
1995	0.9896
2004	0.9683
2013	0.9681
2022	0.9695
2031	0.9714
2040	0.9732
2049	0.9749
2058	0.9766
2067	0.9783
2076	0.9806
2085	0.9805
2094	0.9797
2103	0.9789
2112	0.9778
2121	0.9768
2130	0.9757
2139	0.9747
2148	0.9747
2157	0.976
2166	0.9778
2175	0.9786
2184	0.9785
2193	0.9782
2202	0.9767
2211	0.9749
2220	0.9713
2229	0.9678
2238	0.9704
2247	0.9737
2256	0.971
2265	0.963
2274	0.9573
2283	0.9525
2292	0.9481
2301	0.9484
2310	0.9564
2319	0.9599
2328	0.9613
2337	0.9609
2346	0.9594
2355	0.9578
2364	0.9634
2373	0.9681
2382	0.9717
2391	0.9732
2400	0.9747
2409	0.9753
2418	0.9754
2427	0.9771
2436	0.9802
2445	0.9809
2454	0.981
2463	0.9806
2472	0.9802
2481	0.9803
2490	0.9799
2499	0.9778
2508	0.9747
2517	0.971
2526	0.9686
2535	0.969
2544	0.9711
2553	0.9734
2562	0.9747
2571	0.9757
2580	0.9771
2589	0.9753
2598	0.9711
2607	0.9667
2616	0.9665
2625	0.9648
2634	0.9608
2643	0.9677
2652	0.9659
2661	0.9636
2670	0.9644
2679	0.9611
2688	0.9656
2697	0.9697
2706	0.9618
2715	0.9583
2724	0.9598
2733	0.9634
2742	0.9657
2751	0.9643
2760	0.9617
2769	0.9568
2778	0.9487
2787	0.9409
2796	0.9314
2805	0.9195
2814	0.9041
2823	0.8852
2832	0.8518
2841	0.7069
2850	0.5006
2859	0.3949
2868	0.3728
2877	0.2121
2886	0.2329
2895	0.2542
2904	0.1677
2913	0.0613
2922	0.0413
2931	0.0522
2940	0.0551
2949	0.0541
2958	0.0503
2967	0.0325
2976	0.0443
2985	0.0897
2994	0.2874
3003	0.6678
3012	0.736
3021	0.8637
3030	0.9087
3039	0.9389
3048	0.9571
3057	0.97
3066	0.9777
3075	0.9818
3084	0.9854
3093	0.987
3102	0.9875
3111	0.9873
3120	0.9863
3129	0.9858
3138	0.9853
3147	0.9845
3156	0.9818
3165	0.9815
3174	0.9798
3183	0.9796
3192	0.9815
3201	0.9854
3210	0.9898
3219	0.9942
3228	0.9986
3237	1.0017
3246	1.0036
3255	1.005
3264	1.0058
3273	1.0067
3282	1.0065
3291	1.0062
3300	1.0059
3309	1.0056
3318	1.0051
3327	1.0046
3336	1.0041
3345	1.0036
3354	1.0032
3363	1.0027
3372	1.0023
3381	1.0018
3390	1.0014
3399	1.0009
3408	1.0004
3417	0.9999
3426	0.9995
3435	0.999
3444	0.999
3453	0.9991
3462	0.9991
3471	0.9992
3480	0.9992
3489	0.9992
3498	0.9991
3507	0.9991
3516	0.9991
3525	0.999
3534	0.9989
3543	0.9987
3552	0.9985
3561	0.9983
3570	0.9982
3579	0.9978
3588	0.9975
3597	0.9971
3606	0.9968
3615	0.9965
3624	0.9964
3633	0.9963
3642	0.9964
3651	0.9964
3660	0.9961
3669	0.9945
3678	0.988
3687	0.9855
3696	0.9928
3705	0.9942
3714	0.9939
3723	0.9934
3732	0.993
3741	0.9924
3750	0.9923
3759	0.9921
3768	0.9921
3777	0.9921
3786	0.9934
3795	0.9945
