Infrared Spectrum: NEOABIETIC ACID
Formula: C20 H30 O2
CAS: 471-77-2
State: SOLID (SPLIT MULL), HALOCARBON FOR 3800-1300 AND MINERAL OIL FOR 1300-225 CM^-^1
Class: COBLENTZ II
Instrument: PERKIN-ELMER 521 (GRATING)
Instrument parameters: FILTERS AT 3150, 2500, 2000, 1150, 700, 410. GRATING CHANGES: 2000, 630
Sampling: TRANSMISSION
Resolution: 2
Origin: DOW CORNING CORP.
1/CM	TRANSMITTANCE
3800	0.673
3791	0.6741
3782	0.6753
3773	0.6764
3764	0.6775
3755	0.6787
3746	0.6808
3737	0.6838
3728	0.6868
3719	0.6862
3710	0.6864
3701	0.6878
3692	0.6893
3683	0.6906
3674	0.6915
3665	0.6925
3656	0.6937
3647	0.6944
3638	0.6951
3629	0.6958
3620	0.6965
3611	0.6974
3602	0.6982
3593	0.6989
3584	0.6937
3575	0.7008
3566	0.7021
3557	0.7026
3548	0.7033
3539	0.704
3530	0.7048
3521	0.7056
3512	0.7064
3503	0.706
3494	0.7089
3485	0.7028
3476	0.7008
3467	0.6978
3458	0.6946
3449	0.6891
3440	0.6793
3431	0.6575
3422	0.6304
3413	0.6037
3404	0.5817
3395	0.5569
3386	0.5252
3377	0.4889
3368	0.4558
3359	0.4244
3350	0.3912
3341	0.3516
3332	0.3163
3323	0.2858
3314	0.2603
3305	0.246
3296	0.2374
3287	0.2324
3278	0.2303
3269	0.2306
3260	0.2325
3251	0.2368
3242	0.2425
3233	0.2492
3224	0.2569
3215	0.2656
3206	0.2762
3197	0.2902
3188	0.3038
3179	0.3168
3170	0.3289
3161	0.343
3152	0.3625
3143	0.4064
3134	0.4225
3125	0.4422
3116	0.4603
3107	0.4754
3098	0.4889
3089	0.5007
3080	0.5121
3071	0.5241
3062	0.5353
3053	0.539
3044	0.4984
3035	0.5255
3026	0.5389
3017	0.5046
3008	0.41
2999	0.386
2990	0.3862
2981	0.2484
2972	0.3197
2963	0.3396
2954	0.1777
2945	0.116
2936	0.1345
2927	0.1082
2918	0.1724
2909	0.2204
2900	0.2648
2891	0.2882
2882	0.3035
2873	0.2561
2864	0.2564
2855	0.3084
2846	0.3605
2837	0.3474
2828	0.3656
2819	0.3343
2810	0.5221
2801	0.5634
2792	0.6079
2783	0.639
2774	0.664
2765	0.6775
2756	0.6841
2747	0.6865
2738	0.689
2729	0.6931
2720	0.7057
2711	0.7157
2702	0.7204
2693	0.7239
2684	0.7261
2675	0.7271
2666	0.7217
2657	0.7165
2648	0.7246
2639	0.7342
2630	0.7436
2621	0.7505
2612	0.7535
2603	0.7536
2594	0.755
2585	0.7564
2576	0.7581
2567	0.7599
2558	0.7615
2549	0.7631
2540	0.7646
2531	0.7646
2522	0.7644
2513	0.7642
2504	0.7661
2495	0.7725
2486	0.7789
2477	0.784
2468	0.7875
2459	0.7903
2450	0.7917
2441	0.7925
2432	0.7951
2423	0.7991
2414	0.8031
2405	0.8069
2396	0.8087
2387	0.8084
2378	0.8104
2369	0.8139
2360	0.8174
2351	0.8213
2342	0.8175
2333	0.8184
2324	0.8181
2315	0.8181
2306	0.8191
2297	0.8202
2288	0.8223
2279	0.8243
2270	0.8271
2261	0.8308
2252	0.835
2243	0.8398
2234	0.8454
2225	0.8511
2216	0.8566
2207	0.8612
2198	0.8647
2189	0.8649
2180	0.8649
2171	0.8675
2162	0.8725
2153	0.8778
2144	0.8831
2135	0.8875
2126	0.8908
2117	0.8917
2108	0.893
2099	0.8944
2090	0.8966
2081	0.9001
2072	0.9039
2063	0.9068
2054	0.9091
2045	0.9116
2036	0.9137
2027	0.9161
2018	0.919
2009	0.922
2000	0.9368
1991	0.953
1982	0.9518
1973	0.9521
1964	0.9527
1955	0.9539
1946	0.9554
1937	0.9561
1928	0.9564
1919	0.9573
1910	0.9546
1901	0.9533
1892	0.9552
1883	0.9577
1874	0.9598
1865	0.9614
1856	0.9618
1847	0.962
1838	0.9621
1829	0.962
1820	0.9615
1811	0.9592
1802	0.95
1793	0.9345
1784	0.9236
1775	0.9209
1766	0.9146
1757	0.9018
1748	0.8644
1739	0.8094
1730	0.5119
1721	0.0876
1712	0.3347
1703	0.3822
1694	0.1898
1685	0.1258
1676	0.2745
1667	0.4932
1658	0.5697
1649	0.6286
1640	0.6818
1631	0.7317
1622	0.7132
1613	0.7584
1604	0.7856
1595	0.8084
1586	0.8263
1577	0.8371
1568	0.8478
1559	0.8555
1550	0.861
1541	0.8654
1532	0.8681
1523	0.8714
1514	0.872
1505	0.875
1496	0.8742
1487	0.8615
1478	0.822
1469	0.696
1460	0.4053
1451	0.4962
1442	0.4994
1433	0.5449
1424	0.5716
1415	0.7385
1406	0.7561
1397	0.7628
1388	0.426
1379	0.5917
1370	0.516
1361	0.4566
1352	0.5556
1343	0.7034
1334	0.7215
1325	0.6989
1316	0.6515
1307	0.5934
1298	0.6799
1289	0.7106
1280	0.6804
1271	0.6008
1262	0.6493
1253	0.6764
1244	0.6968
1235	0.596
1226	0.5351
1217	0.4264
1208	0.4047
1199	0.5052
1190	0.5712
1181	0.553
1172	0.3458
1163	0.2565
1154	0.1589
1145	0.1885
1136	0.416
1127	0.2041
1118	0.3598
1109	0.4843
1100	0.5448
1091	0.6469
1082	0.6484
1073	0.6701
1064	0.6933
1055	0.7275
1046	0.666
1037	0.7417
1028	0.7422
1019	0.6469
1010	0.761
1001	0.7171
992	0.8194
983	0.8099
974	0.6924
965	0.7245
956	0.7878
947	0.7918
938	0.7378
929	0.803
920	0.7915
911	0.7953
902	0.6503
893	0.6571
884	0.5929
875	0.5279
866	0.6636
857	0.5688
848	0.6224
839	0.5592
830	0.4175
821	0.3795
812	0.5135
803	0.6196
794	0.6715
785	0.674
776	0.6993
767	0.7443
758	0.7743
749	0.7861
740	0.7901
731	0.6858
722	0.7301
713	0.7208
704	0.7938
695	0.4087
686	0.7353
677	0.8508
668	0.8847
659	0.8907
650	0.8714
641	0.5642
632	0.7869
623	0.8793
614	0.9193
605	0.8875
596	0.9258
587	0.9236
578	0.8802
569	0.9287
560	0.9317
551	0.9023
542	0.8852
533	0.839
524	0.871
515	0.9425
506	0.9478
497	0.9015
488	0.8546
479	0.8988
470	0.9394
461	0.9497
452	0.9155
443	0.9275
434	0.9405
425	0.9381
416	0.9373
407	0.9825
398	0.9727
389	0.91
380	0.8752
371	0.915
362	0.9388
353	0.9688
344	0.9813
335	0.984
326	0.9767
317	0.9692
308	0.9698
299	0.9647
290	0.9468
281	0.9209
272	0.8787
263	0.8537
254	0.8209
245	0.7814
