Infrared Spectrum: Toluene, 3,4-bis(benzyloxy)-
Formula: C21 H20 O2
CAS: 4790-00-5
State: SOLUTION (5% CCl4 FOR 3800-1330, 5% CS2 FOR 1330-400 CM^-^1)
Class: COBLENTZ III
Instrument: DOW KBr FOREPRISM-GRATING
Instrument parameters: BLAZED AT 3.5, 12.0, 20.0 MICRON AND CHANGED AT 5.0, 7.5, 14.9 MICRON
Sampling: TRANSMISSION
Path length: 0.011 CM, 0.011 CM
Resolution: 2
Origin: DOW CHEMICAL COMPANY
1/CM	TRANSMITTANCE
390	0.1707
399	0.2025
408	0.3808
417	0.6444
426	0.7188
435	0.7529
444	0.7785
453	0.778
462	0.782
471	0.8067
480	0.8359
489	0.8436
498	0.8587
507	0.8843
516	0.9001
525	0.9088
534	0.9115
543	0.9171
552	0.922
561	0.9115
570	0.8981
579	0.8871
588	0.8013
597	0.887
606	0.8631
615	0.8778
624	0.8713
633	0.8791
642	0.869
651	0.8491
660	0.8879
669	0.8888
678	0.8549
687	0.8376
696	0.3233
705	0.6971
714	0.7442
723	0.6455
732	0.452
741	0.4471
750	0.5883
759	0.7112
768	0.8091
777	0.8341
786	0.865
795	0.6969
804	0.5483
813	0.7355
822	0.843
831	0.8547
840	0.7938
849	0.6661
858	0.6633
867	0.753
876	0.7811
885	0.833
894	0.8731
903	0.7934
912	0.8079
921	0.8736
930	0.8622
939	0.8534
948	0.8606
957	0.8894
966	0.8647
975	0.8218
984	0.7429
993	0.6984
1002	0.655
1011	0.5217
1020	0.3976
1029	0.3593
1038	0.5291
1047	0.6544
1056	0.8431
1065	0.8777
1074	0.8527
1083	0.8555
1092	0.8931
1101	0.8818
1110	0.8633
1119	0.7791
1128	0.5811
1137	0.3795
1146	0.6468
1155	0.5875
1164	0.543
1173	0.7691
1182	0.8029
1191	0.8061
1200	0.6744
1209	0.572
1218	0.4494
1227	0.377
1236	0.4148
1245	0.484
1254	0.437
1263	0.2134
1272	0.323
1281	0.444
1290	0.5449
1299	0.596
1308	0.668
1317	0.705
1326	0.6853
1335	0.7566
1344	0.8728
1353	0.8757
1362	0.8422
1371	0.7028
1380	0.6018
1389	0.7566
1398	0.8702
1407	0.8435
1416	0.74
1425	0.7438
1434	0.7755
1443	0.7621
1452	0.5839
1461	0.5864
1470	0.6854
1479	0.7936
1488	0.7484
1497	0.5996
1506	0.1791
1515	0.1502
1524	0.4249
1533	0.5166
1542	0.4577
1551	0.4457
1560	0.514
1569	0.5695
1578	0.5589
1587	0.5264
1596	0.649
1605	0.6938
1614	0.7908
1623	0.8648
1632	0.8863
1641	0.8955
1650	0.8977
1659	0.898
1668	0.8975
1677	0.8977
1686	0.9001
1695	0.9054
1704	0.9087
1713	0.9093
1722	0.9041
1731	0.8982
1740	0.8938
1749	0.9006
1758	0.9084
1767	0.9079
1776	0.9079
1785	0.9011
1794	0.8872
1803	0.8829
1812	0.891
1821	0.8963
1830	0.8961
1839	0.8932
1848	0.8881
1857	0.8785
1866	0.8766
1875	0.8841
1884	0.8928
1893	0.8993
1902	0.9022
1911	0.9011
1920	0.8983
1929	0.8913
1938	0.8731
1947	0.8788
1956	0.8808
1965	0.8867
1974	0.8893
1983	0.8874
1992	0.8813
2001	0.8897
2010	0.8887
2019	0.8862
2028	0.8863
2037	0.8869
2046	0.8872
2055	0.8872
2064	0.8876
2073	0.8879
2082	0.8885
2091	0.8893
2100	0.8905
2109	0.8922
2118	0.894
2127	0.8956
2136	0.8963
2145	0.8968
2154	0.8969
2163	0.8968
2172	0.8961
2181	0.8952
2190	0.8942
2199	0.8935
2208	0.8933
2217	0.892
2226	0.8908
2235	0.8892
2244	0.8875
2253	0.8857
2262	0.8832
2271	0.8805
2280	0.8771
2289	0.8747
2298	0.8743
2307	0.8749
2316	0.8761
2325	0.8782
2334	0.8806
2343	0.8824
2352	0.8834
2361	0.8836
2370	0.8836
2379	0.8828
2388	0.8825
2397	0.8895
2406	0.8899
2415	0.8896
2424	0.8893
2433	0.8892
2442	0.889
2451	0.8887
2460	0.8884
2469	0.8884
2478	0.8884
2487	0.8881
2496	0.8872
2505	0.8862
2514	0.885
2523	0.8839
2532	0.8828
2541	0.8818
2550	0.8811
2559	0.8803
2568	0.8796
2577	0.8788
2586	0.8791
2595	0.8808
2604	0.8831
2613	0.8848
2622	0.8852
2631	0.885
2640	0.8838
2649	0.8824
2658	0.8811
2667	0.8798
2676	0.8785
2685	0.8772
2694	0.8761
2703	0.8755
2712	0.8746
2721	0.8718
2730	0.8666
2739	0.8664
2748	0.8727
2757	0.8748
2766	0.8738
2775	0.8737
2784	0.8728
2793	0.8701
2802	0.8675
2811	0.8569
2820	0.8451
2829	0.8323
2838	0.8188
2847	0.7955
2856	0.7441
2865	0.6734
2874	0.7056
2883	0.7249
2892	0.7255
2901	0.7202
2910	0.7105
2919	0.6859
2928	0.6751
2937	0.6959
2946	0.7153
2955	0.7345
2964	0.7722
2973	0.7879
2982	0.7996
2991	0.8066
3000	0.8062
3009	0.7968
3018	0.7807
3027	0.7512
3036	0.5962
3045	0.6672
3054	0.7404
3063	0.7001
3072	0.6888
3081	0.7892
3090	0.7652
3099	0.7733
3108	0.8408
3117	0.8518
3126	0.8697
3135	0.872
3144	0.8731
3153	0.8741
3162	0.8751
3171	0.8755
3180	0.8757
3189	0.8758
3198	0.8758
3207	0.8758
3216	0.8757
3225	0.8757
3234	0.8758
3243	0.8759
3252	0.8761
3261	0.8764
3270	0.8768
3279	0.8771
3288	0.8772
3297	0.8773
3306	0.8774
3315	0.8775
3324	0.8777
3333	0.8778
3342	0.8779
3351	0.8781
3360	0.8779
3369	0.8777
3378	0.8775
3387	0.8773
3396	0.877
3405	0.8766
3414	0.8763
3423	0.8762
3432	0.8761
3441	0.8761
3450	0.8761
3459	0.8761
3468	0.8762
3477	0.8764
3486	0.8765
3495	0.8767
3504	0.8769
3513	0.8772
3522	0.8776
3531	0.8779
3540	0.8785
3549	0.8792
3558	0.8799
3567	0.8806
3576	0.8813
3585	0.8819
3594	0.8819
3603	0.8814
3612	0.8801
3621	0.8791
3630	0.8782
3639	0.8783
3648	0.8787
3657	0.8791
3666	0.8799
3675	0.8806
3684	0.881
3693	0.8814
3702	0.882
3711	0.8834
3720	0.8855
3729	0.886
3738	0.8857
3747	0.8856
3756	0.8856
3765	0.8858
3774	0.8861
3783	0.8865
3792	0.887
