Infrared Spectrum: BENZOTHIAZOLE, 2-MERCAPTO-6-NITRO-
Formula: C7 H4 N2 O2 S2
CAS: 4845-58-3
State: SOLID (0.5% IN 400 mg KBr DISC) VS KBr
Melting point: 251 C (DECOMP.)
Class: COBLENTZ II
Instrument: PERKIN-ELMER 621 (GRATING)
Instrument parameters: GRATING CHANGE AT 623; ORDER CHANGE AT 2000. FILTERS AT 3146, 2494, 2000, 1146, 698, 497 CM^-^1
Sampling: TRANSMISSION
Resolution: 2
Origin: PERKIN-ELMER CORP. (R. HANNAH)
1/CM	TRANSMITTANCE
4000	0.6059
3990	0.606
3980	0.6062
3970	0.6062
3960	0.607
3950	0.6079
3940	0.6088
3930	0.6099
3920	0.611
3910	0.6128
3900	0.615
3890	0.6172
3880	0.6193
3870	0.621
3860	0.6228
3850	0.6245
3840	0.626
3830	0.6274
3820	0.6288
3810	0.6302
3800	0.6315
3790	0.6329
3780	0.6343
3770	0.6359
3760	0.6377
3750	0.6394
3740	0.6411
3730	0.6428
3720	0.6444
3710	0.6456
3700	0.6468
3690	0.648
3680	0.6492
3670	0.6504
3660	0.6515
3650	0.6528
3640	0.6543
3630	0.6556
3620	0.6568
3610	0.6582
3600	0.6595
3590	0.6606
3580	0.6618
3570	0.663
3560	0.6641
3550	0.6655
3540	0.6675
3530	0.6697
3520	0.6717
3510	0.6725
3500	0.6732
3490	0.6739
3480	0.6747
3470	0.6758
3460	0.6771
3450	0.679
3440	0.6811
3430	0.6833
3420	0.6843
3410	0.6838
3400	0.6828
3390	0.6815
3380	0.6803
3370	0.6783
3360	0.6771
3350	0.6758
3340	0.674
3330	0.6721
3320	0.6701
3310	0.6683
3300	0.6665
3290	0.6645
3280	0.6625
3270	0.66
3260	0.6575
3250	0.6549
3240	0.6501
3230	0.645
3220	0.6356
3210	0.6262
3200	0.6132
3190	0.5999
3180	0.5832
3170	0.5612
3160	0.516
3150	0.4759
3140	0.4452
3130	0.4199
3120	0.3932
3110	0.3394
3100	0.2822
3090	0.2373
3080	0.2646
3070	0.3022
3060	0.2846
3050	0.3252
3040	0.3384
3030	0.355
3020	0.3764
3010	0.4178
3000	0.4362
2990	0.4343
2980	0.4306
2970	0.4601
2960	0.4736
2950	0.4599
2940	0.3839
2930	0.38
2920	0.3906
2910	0.3906
2900	0.4205
2890	0.4596
2880	0.4793
2870	0.47
2860	0.4182
2850	0.4088
2840	0.4465
2830	0.4745
2820	0.5075
2810	0.5337
2800	0.5527
2790	0.5605
2780	0.5665
2770	0.5795
2760	0.59
2750	0.5968
2740	0.5946
2730	0.5875
2720	0.5788
2710	0.593
2700	0.6218
2690	0.6373
2680	0.6471
2670	0.6536
2660	0.6585
2650	0.6631
2640	0.6688
2630	0.6739
2620	0.6845
2610	0.6919
2600	0.6955
2590	0.6981
2580	0.7018
2570	0.7067
2560	0.7108
2550	0.7119
2540	0.7125
2530	0.7144
2520	0.7169
2510	0.7199
2500	0.7228
2490	0.7258
2480	0.7291
2470	0.7322
2460	0.7351
2450	0.7383
2440	0.7451
2430	0.7518
2420	0.7561
2410	0.7586
2400	0.7607
2390	0.7622
2380	0.7639
2370	0.7669
2360	0.7706
2350	0.7741
2340	0.7772
2330	0.78
2320	0.7806
2310	0.7811
2300	0.7821
2290	0.7834
2280	0.7846
2270	0.7858
2260	0.7883
2250	0.7906
2240	0.7933
2230	0.7964
2220	0.7983
2210	0.7999
2200	0.8014
2190	0.8028
2180	0.8042
2170	0.8058
2160	0.8075
2150	0.8095
2140	0.811
2130	0.8122
2120	0.8136
2110	0.815
2100	0.8167
2090	0.8184
2080	0.8201
2070	0.8225
2060	0.8248
2050	0.8258
2040	0.8267
2030	0.8277
2020	0.8286
2010	0.8297
2000	0.8312
1990	0.8334
1980	0.8365
1970	0.8378
1960	0.839
1950	0.8399
1940	0.8415
1930	0.8418
1920	0.8417
1910	0.8436
1900	0.8325
1890	0.837
1880	0.8438
1870	0.848
1860	0.8494
1850	0.8503
1840	0.8516
1830	0.8496
1820	0.8475
1810	0.8506
1800	0.8497
1790	0.8491
1780	0.8495
1770	0.8505
1760	0.8555
1750	0.8596
1740	0.8603
1730	0.8578
1720	0.8528
1710	0.8394
1700	0.8331
1690	0.84
1680	0.8448
1670	0.8447
1660	0.8361
1650	0.8242
1640	0.8184
1630	0.8168
1620	0.8172
1610	0.5207
1600	0.6181
1590	0.6668
1580	0.6369
1570	0.7289
1560	0.7685
1550	0.6476
1540	0.1889
1530	0.3246
1520	0.3684
1510	0.5152
1500	0.5342
1490	0.2434
1480	0.0915
1470	0.4449
1460	0.5528
1450	0.6312
1440	0.6599
1430	0.7115
1420	0.7353
1410	0.7237
1400	0.6123
1390	0.4696
1380	0.6171
1370	0.5755
1360	0.5266
1350	0.2525
1340	0.0696
1330	0.0523
1320	0.3404
1310	0.5071
1300	0.5199
1290	0.4902
1280	0.6292
1270	0.6115
1260	0.438
1250	0.16
1240	0.3081
1230	0.497
1220	0.6323
1210	0.7068
1200	0.7518
1190	0.7721
1180	0.7901
1170	0.799
1160	0.8026
1150	0.8121
1140	0.7068
1130	0.6297
1120	0.7493
1110	0.8076
1100	0.8205
1090	0.8174
1080	0.8087
1070	0.3327
1060	0.3976
1050	0.6198
1040	0.5154
1030	0.6474
1020	0.7911
1010	0.8167
1000	0.8328
990	0.8487
980	0.8563
970	0.8625
960	0.8658
950	0.8267
940	0.8695
930	0.8724
920	0.8185
910	0.7707
900	0.7334
890	0.8086
880	0.8558
870	0.8777
860	0.8545
850	0.8499
840	0.3937
830	0.7193
820	0.3806
810	0.8566
800	0.8668
790	0.8757
780	0.8665
770	0.8249
760	0.7467
750	0.4667
740	0.6856
730	0.7506
720	0.7465
710	0.6525
700	0.7951
690	0.8209
680	0.5462
670	0.6999
660	0.6715
650	0.7556
640	0.8244
630	0.8453
620	0.8761
610	0.8883
600	0.897
590	0.9048
580	0.9084
570	0.7857
560	0.8452
550	0.8251
540	0.851
530	0.8866
520	0.9003
510	0.9049
500	0.9156
490	0.9161
480	0.9103
470	0.6708
460	0.7761
450	0.8944
440	0.9032
430	0.7828
420	0.8974
410	0.9151
400	0.922
390	0.9241
380	0.8793
370	0.9204
360	0.9225
350	0.9232
340	0.9173
330	0.9162
320	0.9196
310	0.9196
300	0.9195
