Infrared Spectrum: DECAHYDRONAPHTHALENE, TRANS
Formula: C10 H18
CAS: 493-02-7
State: SOLUTION (10% IN CCl4 FOR 3800-1335 AND 10% IN CS2 FOR 1335-470 CM^-^1) VS. SOLVENT
Class: COBLENTZ III
Instrument: DOW KBr FOREPRISM-GRATING
Instrument parameters: BLAZED AT 3.5, 12.0, 20.0 MICRON, CHANGED AT 5.0, 7.5, 14.9 MICRON
Sampling: TRANSMISSION
Path length: 0.011, 0.012CM
Resolution: 4
Origin: DOW CHEMICAL COMPANY
1/CM	TRANSMITTANCE
467.306	1.058
475.826	1.047
484.345	1.034
492.865	1.025
501.385	1.022
509.905	1.014
518.424	1.002
526.944	0.94
535.464	1.002
543.984	1.005
552.503	1.003
561.023	1.009
569.543	1.001
578.062	1.009
586.582	1
595.102	0.998
603.622	0.994
612.141	1
620.661	0.992
629.181	0.998
637.7	0.998
646.22	1.002
654.74	0.998
663.26	0.993
671.779	0.992
680.299	0.992
688.819	0.989
697.339	0.998
705.858	0.992
714.378	0.99
722.898	0.993
731.417	0.997
739.937	0.986
748.457	0.992
756.977	0.988
765.496	0.993
774.016	0.993
782.536	0.997
791.056	0.99
799.575	0.984
808.095	0.982
816.615	0.969
825.134	0.6831
833.654	0.929
842.174	0.711
850.694	0.982
859.213	0.977
867.733	0.973
876.253	0.981
884.772	0.989
893.292	0.99
901.812	0.981
910.332	0.977
918.851	0.938
927.371	0.824
935.891	0.972
944.411	0.982
952.93	0.986
961.45	0.977
969.97	0.7779
978.489	0.941
987.009	0.924
995.529	0.976
1004.05	0.988
1012.57	0.986
1021.09	0.985
1029.61	0.8721
1038.13	0.978
1046.65	0.956
1055.17	0.879
1063.69	0.968
1072.21	0.978
1080.73	0.978
1089.25	0.98
1097.77	0.978
1106.29	0.981
1114.81	0.976
1123.32	0.964
1131.84	0.932
1140.36	0.8691
1148.88	0.918
1157.4	0.92
1165.92	0.946
1174.44	0.961
1182.96	0.969
1191.48	0.968
1200	0.965
1208.52	0.95
1217.04	0.912
1225.56	0.86
1234.08	0.893
1242.6	0.879
1251.12	0.7011
1259.64	0.9
1268.16	0.907
1276.68	0.903
1285.2	0.907
1293.72	0.884
1302.24	0.739
1310.76	0.876
1319.28	0.872
1327.8	0.715
1336.32	0.8241
1344.84	0.8359
1353.36	0.881
1361.88	0.908
1370.4	0.928
1378.92	0.933
1387.44	0.934
1395.96	0.934
1404.48	0.934
1413	0.921
1421.52	0.908
1430.03	0.871
1438.55	0.7089
1447.07	0.1428
1455.59	0.5791
1464.11	0.8021
1472.63	0.896
1481.15	0.921
1489.67	0.937
1498.19	0.954
1506.71	0.966
1515.23	0.98
1523.75	1.001
1532.27	0.985
1540.79	0.99
1549.31	0.994
1557.83	1
1566.35	1.001
1574.87	0.989
1583.39	0.986
1591.91	0.992
1600.43	0.99
1608.95	0.985
1617.47	0.984
1625.99	0.98
1634.51	0.974
1643.03	0.974
1651.55	0.972
1660.07	0.973
1668.59	0.97
1677.11	0.97
1685.63	0.968
1694.15	0.968
1702.67	0.962
1711.19	0.962
1719.71	0.964
1728.23	0.964
1736.74	0.961
1745.26	0.96
1753.78	0.961
1762.3	0.966
1770.82	0.964
1779.34	0.966
1787.86	0.958
1796.38	0.957
1804.9	0.96
1813.42	0.961
1821.94	0.965
1830.46	0.968
1838.98	0.965
1847.5	0.968
1856.02	0.964
1864.54	0.964
1873.06	0.96
1881.58	0.962
1890.1	0.958
1898.62	0.957
1907.14	0.956
1915.66	0.958
1924.18	0.957
1932.7	0.956
1941.22	0.954
1949.74	0.96
1958.26	0.957
1966.78	0.957
1975.3	0.952
1983.82	0.948
1992.34	0.945
2000.86	0.95
2009.38	0.95
2017.9	0.9485
2026.42	0.943
2034.94	0.952
2043.45	0.95
2051.97	0.95
2060.49	0.946
2069.01	0.9515
2077.53	0.951
2086.05	0.9485
2094.57	0.9495
2103.09	0.952
2111.61	0.952
2120.13	0.9519
2128.65	0.95
2137.17	0.9485
2145.69	0.948
2154.21	0.946
2162.73	0.9451
2171.25	0.9445
2179.77	0.9352
2188.29	0.9325
2196.81	0.94
2205.33	0.93
2213.85	0.932
2222.37	0.9384
2230.89	0.942
2239.41	0.9415
2247.93	0.937
2256.45	0.937
2264.97	0.937
2273.49	0.933
2282.01	0.9277
2290.53	0.924
2299.05	0.9286
2307.57	0.925
2316.09	0.926
2324.61	0.932
2333.13	0.929
2341.65	0.9294
2350.16	0.93
2358.68	0.933
2367.2	0.926
2375.72	0.9216
2384.24	0.9126
2392.76	0.9051
2401.28	0.9222
2409.8	0.9192
2418.32	0.9116
2426.84	0.918
2435.36	0.9174
2443.88	0.921
2452.4	0.9256
2460.92	0.9216
2469.44	0.9134
2477.96	0.9086
2486.48	0.9102
2495	0.9002
2503.52	0.9026
2512.04	0.912
2520.56	0.9116
2529.08	0.904
2537.6	0.904
2546.12	0.901
2554.64	0.897
2563.16	0.8942
2571.68	0.8791
2580.2	0.8545
2588.72	0.8585
2597.24	0.8602
2605.76	0.859
2614.28	0.8596
2622.8	0.8605
2631.32	0.8341
2639.84	0.8338
2648.36	0.8537
2656.88	0.7828
2665.39	0.7064
2673.91	0.8204
2682.43	0.8291
2690.95	0.8325
2699.47	0.8243
2707.99	0.8307
2716.51	0.8557
2725.03	0.871
2733.55	0.873
2742.07	0.8676
2750.59	0.855
2759.11	0.8536
2767.63	0.8336
2776.15	0.8013
2784.67	0.7629
2793.19	0.7013
2801.71	0.7047
2810.23	0.651
2818.75	0.6367
2827.27	0.5255
2835.79	0.2338
2844.31	0.0261
2852.83	0.007
2861.35	0.0154
2869.87	0.1808
2878.39	0.1648
2886.91	0.0654
2895.43	0.0254
2903.95	0.0077
2912.47	0.0017
2920.99	0.002
2929.51	0.005
2938.03	0.0079
2946.55	0.0498
2955.07	0.2972
2963.59	0.4876
2972.1	0.611
2980.62	0.7268
2989.14	0.7703
2997.66	0.809
3006.18	0.8393
3014.7	0.8563
3023.22	0.8689
3031.74	0.877
3040.26	0.88
3048.78	0.8757
3057.3	0.8753
3065.82	0.8793
3074.34	0.8843
3082.86	0.8923
3091.38	0.9008
3099.9	0.9043
3108.42	0.907
3116.94	0.907
3125.46	0.907
3133.98	0.903
3142.5	0.901
3151.02	0.9033
3159.54	0.9073
3168.06	0.912
3176.58	0.912
3185.1	0.909
3193.62	0.904
3202.14	0.903
3210.66	0.904
3219.18	0.908
3227.7	0.905
3236.22	0.903
3244.74	0.9038
3253.26	0.904
3261.78	0.9072
3270.3	0.9095
3278.81	0.915
3287.33	0.9152
3295.85	0.917
3304.37	0.916
3312.89	0.915
3321.41	0.915
3329.93	0.917
3338.45	0.917
3346.97	0.916
3355.49	0.917
3364.01	0.918
3372.53	0.918
3381.05	0.9162
3389.57	0.9178
3398.09	0.915
3406.61	0.913
3415.13	0.913
3423.65	0.9152
3432.17	0.912
3440.69	0.909
3449.21	0.909
3457.73	0.912
3466.25	0.911
3474.77	0.9152
3483.29	0.917
3491.81	0.918
3500.33	0.9202
3508.85	0.9212
3517.37	0.924
3525.89	0.92
3534.41	0.9202
3542.93	0.9218
3551.45	0.918
3559.97	0.9184
3568.49	0.918
3577.01	0.916
3585.52	0.912
3594.04	0.911
3602.56	0.909
3611.08	0.909
3619.6	0.9078
3628.12	0.9038
3636.64	0.901
3645.16	0.9
3653.68	0.9
3662.2	0.899
3670.72	0.899
3679.24	0.897
3687.76	0.896
3696.28	0.893
3704.8	0.8933
3713.32	0.895
3721.84	0.896
3730.36	0.8947
3738.88	0.8919
3747.4	0.892
3755.92	0.891
3764.44	0.895
3772.96	0.899
3781.48	0.896
3790	0.897
3798.52	0.8951
