Infrared Spectrum: DECAHYDRONAPHTHALENE, TRANS
Formula: C10 H18
CAS: 493-02-7
State: LIQUID (NEAT)
Class: COBLENTZ III
Instrument: DOW KBr FOREPRISM-GRATING
Instrument parameters: BLAZED AT 3.5, 12.0, 20.0 MICRON, CHANGED AT 5.0, 7.5, 14.9 MICRON
Sampling: TRANSMISSION
Path length: 0.012 CM
Resolution: 4
Origin: DOW CHEMICAL COMPANY
1/CM	TRANSMITTANCE
445.957	0.924
454.468	0.921
462.978	0.922
471.489	0.922
480	0.922
488.51	0.922
497.021	0.924
505.532	0.924
514.042	0.917
522.553	0.86
531.064	0.62
539.574	0.926
548.085	0.941
556.596	0.948
565.106	0.949
573.617	0.956
582.128	0.961
590.638	0.962
599.149	0.965
607.659	0.969
616.17	0.977
624.681	0.978
633.191	0.98
641.702	0.984
650.213	0.988
658.723	0.989
667.234	0.986
675.745	0.99
684.255	0.988
692.766	0.986
701.277	0.986
709.787	0.988
718.298	0.984
726.809	0.981
735.319	0.978
743.83	0.973
752.341	0.953
760.851	0.962
769.362	0.976
777.873	0.969
786.383	0.958
794.894	0.945
803.405	0.899
811.915	0.88
820.426	0.73
828.937	0.1381
837.447	0.29
845.958	0.2491
854.469	0.787
862.979	0.814
871.49	0.849
880	0.871
888.511	0.873
897.022	0.849
905.532	0.827
914.043	0.775
922.554	0.3499
931.064	0.2611
939.575	0.758
948.086	0.839
956.596	0.831
965.107	0.755
973.618	0.009
982.128	0.667
990.639	0.5231
999.15	0.815
1007.66	0.847
1016.17	0.835
1024.68	0.726
1033.19	0.446
1041.7	0.778
1050.21	0.664
1058.72	0.223
1067.23	0.776
1075.75	0.837
1084.26	0.841
1092.77	0.857
1101.28	0.869
1109.79	0.873
1118.3	0.855
1126.81	0.787
1135.32	0.5529
1143.83	0.4511
1152.34	0.67
1160.85	0.731
1169.36	0.844
1177.87	0.861
1186.38	0.863
1194.89	0.851
1203.41	0.83
1211.92	0.784
1220.43	0.617
1228.94	0.2401
1237.45	0.644
1245.96	0.588
1254.47	0.0919
1262.98	0.62
1271.49	0.694
1280	0.697
1288.51	0.686
1297.02	0.646
1305.53	0.3869
1314.04	0.3202
1322.55	0.625
1331.07	0.4669
1339.58	0.3541
1348.09	0.0589
1356.6	0.456
1365.11	0.549
1373.62	0.686
1382.13	0.664
1390.64	0.632
1399.15	0.644
1407.66	0.601
1416.17	0.4789
1424.68	0.414
1433.19	0.1669
1441.7	0.007
1450.21	0.005
1458.73	0.007
1467.24	0.1031
1475.75	0.447
1484.26	0.609
1492.77	0.707
1501.28	0.771
1509.79	0.772
1518.3	0.746
1526.81	0.6241
1535.32	0.889
1543.83	0.913
1552.34	0.928
1560.85	0.932
1569.36	0.929
1577.87	0.911
1586.38	0.903
1594.9	0.913
1603.41	0.921
1611.92	0.928
1620.43	0.917
1628.94	0.901
1637.45	0.903
1645.96	0.895
1654.47	0.915
1662.98	0.925
1671.49	0.921
1680	0.922
1688.51	0.932
1697.02	0.93
1705.53	0.912
1714.04	0.926
1722.56	0.945
1731.07	0.938
1739.58	0.904
1748.09	0.913
1756.6	0.932
1765.11	0.954
1773.62	0.95
1782.13	0.936
1790.64	0.883
1799.15	0.877
1807.66	0.909
1816.17	0.912
1824.68	0.945
1833.19	0.954
1841.7	0.956
1850.22	0.942
1858.73	0.925
1867.24	0.93
1875.75	0.924
1884.26	0.953
1892.77	0.938
1901.28	0.934
1909.79	0.929
1918.3	0.949
1926.81	0.937
1935.32	0.934
1943.83	0.932
1952.34	0.961
1960.85	0.968
1969.36	0.938
1977.88	0.918
1986.39	0.884
1994.9	0.911
2003.41	0.934
2011.92	0.94
2020.43	0.8893
2028.94	0.8967
2037.45	0.949
2045.96	0.9291
2054.47	0.9112
2062.98	0.9242
2071.49	0.9412
2080	0.9321
2088.51	0.8873
2097.02	0.9156
2105.53	0.9358
2114.05	0.9321
2122.56	0.9213
2131.07	0.904
2139.58	0.921
2148.09	0.9174
2156.6	0.8991
2165.11	0.869
2173.62	0.8576
2182.13	0.7691
2190.64	0.7942
2199.15	0.8392
2207.66	0.78
2216.17	0.7958
2224.68	0.8631
2233.19	0.8958
2241.71	0.884
2250.22	0.8808
2258.73	0.8838
2267.24	0.8769
2275.75	0.8355
2284.26	0.8052
2292.77	0.7915
2301.28	0.8146
2309.79	0.7771
2318.3	0.7897
2326.81	0.8179
2335.32	0.8096
2343.83	0.814
2352.34	0.8141
2360.85	0.8363
2369.37	0.8211
2377.88	0.8143
2386.39	0.7929
2394.9	0.667
2403.41	0.826
2411.92	0.7871
2420.43	0.7755
2428.94	0.8167
2437.45	0.8024
2445.96	0.8503
2454.47	0.884
2462.98	0.8705
2471.49	0.7752
2480	0.7588
2488.51	0.7843
2497.03	0.726
2505.54	0.6995
2514.05	0.8051
2522.56	0.8189
2531.07	0.7714
2539.58	0.7806
2548.09	0.7662
2556.6	0.7247
2565.11	0.7179
2573.62	0.6341
2582.13	0.4445
2590.64	0.5316
2599.15	0.4959
2607.66	0.5278
2616.17	0.4951
2624.69	0.5365
2633.2	0.3365
2641.71	0.4743
2650.22	0.4515
2658.73	0.1535
2667.24	0.0557
2675.75	0.347
2684.26	0.3716
2692.77	0.4044
2701.28	0.3479
2709.79	0.335
2718.3	0.4969
2726.81	0.5855
2735.32	0.5884
2743.83	0.56
2752.34	0.487
2760.86	0.4638
2769.37	0.3694
2777.88	0.2449
2786.39	0.1353
2794.9	0.0563
2803.41	0.0537
2811.92	0.0297
2820.43	0.0204
2828.94	0.002
2837.45	0.002
2845.96	0.002
2854.47	0.002
2862.98	0.002
2871.49	0.002
2880	0.002
2888.52	0.002
2897.03	0.002
2905.54	0.002
2914.05	0.002
2922.56	0.002
2931.07	0.002
2939.58	0.003
2948.09	0.005
2956.6	0.007
2965.11	0.0142
2973.62	0.0429
2982.13	0.155
2990.64	0.2695
2999.15	0.3596
3007.66	0.4833
3016.18	0.5728
3024.69	0.661
3033.2	0.67
3041.71	0.6617
3050.22	0.6454
3058.73	0.6371
3067.24	0.6508
3075.75	0.6907
3084.26	0.7424
3092.77	0.7956
3101.28	0.815
3109.79	0.8138
3118.3	0.8058
3126.81	0.7939
3135.32	0.7698
3143.84	0.751
3152.35	0.7601
3160.86	0.7883
3169.37	0.815
3177.88	0.812
3186.39	0.796
3194.9	0.763
3203.41	0.755
3211.92	0.76
3220.43	0.76
3228.94	0.754
3237.45	0.745
3245.96	0.7371
3254.47	0.726
3262.98	0.7495
3271.49	0.7827
3280.01	0.8174
3288.52	0.8359
3297.03	0.8399
3305.54	0.84
3314.05	0.839
3322.56	0.839
3331.07	0.8351
3339.58	0.8385
3348.09	0.8508
3356.6	0.855
3365.11	0.8513
3373.62	0.8401
3382.13	0.8324
3390.64	0.8235
3399.15	0.822
3407.67	0.82
3416.18	0.815
3424.69	0.818
3433.2	0.8124
3441.71	0.8006
3450.22	0.7952
3458.73	0.795
3467.24	0.7996
3475.75	0.8108
3484.26	0.8238
3492.77	0.8493
3501.28	0.879
3509.79	0.8982
3518.3	0.9117
3526.81	0.912
3535.33	0.912
3543.84	0.912
3552.35	0.9127
3560.86	0.912
3569.37	0.911
3577.88	0.909
3586.39	0.907
3594.9	0.905
3603.41	0.9043
3611.92	0.904
3620.43	0.9003
3628.94	0.8924
3637.45	0.865
3645.96	0.852
3654.47	0.855
3662.99	0.8514
3671.5	0.8318
3680.01	0.8288
3688.52	0.8156
3697.03	0.81
3705.54	0.8013
3714.05	0.7946
3722.56	0.811
3731.07	0.8093
3739.58	0.7933
3748.09	0.7795
3756.6	0.776
3765.11	0.7832
3773.62	0.8072
