Infrared Spectrum: SODIUM CARBONATE
Formula: Na2 C O3
CAS: 497-19-8
State: SOLID (NUJOL MULL)
Class: COBLENTZ
Instrument: Not specified, most likely a prism, grating, or hybrid spectrometer.
Sampling: TRANSMISSION
Resolution: 4
Origin: MELLON INSTITUTE
MICROMETERS	TRANSMITTANCE
2.025	0.829
2.06592	0.834
2.10684	0.841
2.14775	0.845
2.18867	0.846
2.22959	0.843
2.27051	0.815
2.31142	0.795
2.35234	0.788
2.39326	0.793
2.43418	0.802
2.4751	0.803
2.51601	0.826
2.55693	0.831
2.59785	0.838
2.63877	0.86
2.67969	0.869
2.7206	0.87
2.76152	0.864
2.80244	0.85
2.84336	0.81
2.88427	0.76
2.92519	0.734
2.96611	0.719
3.00703	0.7
3.04795	0.69
3.08886	0.683
3.12978	0.672
3.1707	0.662
3.21162	0.659
3.25253	0.621
3.29345	0.368
3.33437	0.132
3.37529	0.034
3.41621	0.022
3.45712	0.018
3.49804	0.084
3.53896	0.497
3.57988	0.605
3.6208	0.7
3.66171	0.714
3.70263	0.746
3.74355	0.757
3.78447	0.757
3.82538	0.731
3.8663	0.736
3.90722	0.729
3.94814	0.638
3.98906	0.543
4.02997	0.755
4.07089	0.833
4.11181	0.858
4.15273	0.865
4.19365	0.87
4.23456	0.862
4.27548	0.87
4.3164	0.867
4.35732	0.874
4.39823	0.879
4.43915	0.876
4.48007	0.872
4.52099	0.869
4.56191	0.87
4.60282	0.869
4.64374	0.865
4.68466	0.862
4.72558	0.858
4.76649	0.855
4.80741	0.862
4.84833	0.86
4.88925	0.864
4.93017	0.867
4.97108	0.867
5.012	0.87
5.05292	0.872
5.09384	0.867
5.13476	0.862
5.17567	0.855
5.21659	0.845
5.25751	0.845
5.29843	0.848
5.33934	0.839
5.38026	0.834
5.42118	0.824
5.4621	0.812
5.50302	0.805
5.54393	0.784
5.58485	0.764
5.62577	0.719
5.66669	0.471
5.7076	0.506
5.74852	0.636
5.78944	0.648
5.83036	0.641
5.87128	0.624
5.91219	0.588
5.95311	0.569
5.99403	0.543
6.03495	0.509
6.07587	0.478
6.11678	0.435
6.1577	0.392
6.19862	0.351
6.23954	0.287
6.28045	0.253
6.32137	0.222
6.36229	0.163
6.40321	0.139
6.44413	0.106
6.48504	0.084
6.52596	0.075
6.56688	0.068
6.6078	0.063
6.64871	0.048
6.68963	0.03
6.73055	0.024
6.77147	0.022
6.81239	0.022
6.8533	0.022
6.89422	0.013
6.93514	0.01
6.97606	0.008
7.01698	0.008
7.05789	0.01
7.09881	0.01
7.13973	0.01
7.18065	0.008
7.22156	0.01
7.26248	0.022
7.3034	0.037
7.34432	0.08
7.38524	0.111
7.42615	0.13
7.46707	0.172
7.50799	0.208
7.54891	0.225
7.58983	0.24
7.63074	0.271
7.67166	0.29
7.71258	0.314
7.7535	0.344
7.79441	0.37
7.83533	0.395
7.87625	0.419
7.91717	0.449
7.95809	0.476
7.999	0.499
8.03992	0.507
8.08084	0.535
8.12176	0.552
8.16267	0.567
8.20359	0.576
8.24451	0.585
8.28543	0.6
8.32635	0.623
8.36726	0.636
8.40818	0.647
8.4491	0.655
8.49002	0.667
8.53094	0.676
8.57185	0.683
8.61277	0.686
8.65369	0.695
8.69461	0.703
8.73552	0.721
8.77644	0.733
8.81736	0.743
8.85828	0.755
8.8992	0.771
8.94011	0.783
8.98103	0.788
9.02195	0.79
9.06287	0.793
9.10378	0.802
9.1447	0.802
9.18562	0.803
9.22654	0.803
9.26746	0.8
9.30837	0.805
9.34929	0.805
9.39021	0.808
9.43113	0.82
9.47205	0.829
9.51296	0.836
9.55388	0.841
9.5948	0.846
9.63572	0.848
9.67663	0.848
9.71755	0.848
9.75847	0.848
9.79939	0.848
9.84031	0.848
9.88122	0.853
9.92214	0.853
9.96306	0.853
10.004	0.855
10.0449	0.857
10.0858	0.857
10.1267	0.851
10.1676	0.846
10.2086	0.845
10.2495	0.841
10.2904	0.831
10.3313	0.829
10.3722	0.826
10.4132	0.826
10.4541	0.831
10.495	0.836
10.5359	0.836
10.5768	0.833
10.6177	0.831
10.6587	0.827
10.6996	0.829
10.7405	0.824
10.7814	0.82
10.8223	0.819
10.8633	0.815
10.9042	0.81
10.9451	0.805
10.986	0.798
11.0269	0.784
11.0678	0.762
11.1088	0.736
11.1497	0.7
11.1906	0.559
11.2315	0.299
11.2724	0.163
11.3133	0.098
11.3543	0.079
11.3952	0.075
11.4361	0.218
11.477	0.309
11.5179	0.385
11.5589	0.466
11.5998	0.598
11.6407	0.683
11.6816	0.662
11.7225	0.667
11.7634	0.71
11.8044	0.76
11.8453	0.814
11.8862	0.846
11.9271	0.877
11.968	0.895
12.009	0.907
12.0499	0.92
12.0908	0.931
12.1317	0.932
12.1726	0.941
12.2135	0.941
12.2545	0.943
12.2954	0.944
12.3363	0.948
12.3772	0.951
12.4181	0.953
12.459	0.955
12.5	0.955
12.5409	0.95
12.5818	0.948
12.6227	0.953
12.6636	0.955
12.7046	0.953
12.7455	0.95
12.7864	0.95
12.8273	0.95
12.8682	0.941
12.9091	0.936
12.9501	0.936
12.991	0.931
13.0319	0.927
13.0728	0.934
13.1137	0.929
13.1547	0.922
13.1956	0.924
13.2365	0.922
13.2774	0.919
13.3183	0.915
13.3592	0.913
13.4002	0.907
13.4411	0.891
13.482	0.876
13.5229	0.867
13.5638	0.858
13.6047	0.848
13.6457	0.831
13.6866	0.814
13.7275	0.798
13.7684	0.779
13.8093	0.767
13.8503	0.774
13.8912	0.791
13.9321	0.798
13.973	0.814
14.0139	0.805
14.0548	0.755
14.0958	0.643
14.1367	0.518
14.1776	0.437
14.2185	0.516
14.2594	0.535
14.3003	0.507
14.3413	0.547
14.3822	0.657
14.4231	0.703
14.464	0.714
14.5049	0.719
14.5459	0.728
14.5868	0.74
14.6277	0.745
14.6686	0.745
14.7095	0.741
14.7504	0.734
14.7914	0.716
14.8323	0.717
14.8732	0.729
14.9141	0.719
14.955	0.705
14.996	0.7
15.0369	0.691
15.0778	0.679
15.1187	0.674
15.1596	0.674
15.2005	0.674
15.2415	0.674
15.2824	0.674
15.3233	0.671
15.3642	0.671
15.4051	0.669
15.446	0.664
15.487	0.662
15.5279	0.664
15.5688	0.66
15.6097	0.664
15.6506	0.667
15.6916	0.672
15.7325	0.667
15.7734	0.667
15.8143	0.669
15.8552	0.671
15.8961	0.676
15.9371	0.679
15.978	0.678
