Infrared Spectrum: Sodium carbonate
Formula: Na 2 C O 3
CAS: 497-19-8
State: solid
Instrument: Bruker Tensor 37 FTIR
Resolution: 0.96450084
Origin: Pacific Northwest National Laboratory Under IARPA Contract
1/cm	Reflectance
7498.99	0.92805
7481.63	0.930515
7464.27	0.931766
7446.91	0.93071
7429.55	0.93089
7412.19	0.931385
7394.84	0.931315
7377.48	0.931256
7360.12	0.931125
7342.76	0.931075
7325.4	0.930659
7308.04	0.930806
7290.68	0.931586
7273.32	0.93155
7255.96	0.931174
7238.6	0.931448
7221.24	0.931951
7203.88	0.931387
7186.52	0.931419
7169.16	0.931883
7151.8	0.931522
7134.44	0.931718
7117.08	0.932023
7099.72	0.932368
7082.36	0.931308
7065	0.931748
7047.64	0.932005
7030.28	0.931794
7012.92	0.932174
6995.56	0.93226
6978.2	0.93237
6960.84	0.932953
6943.48	0.932918
6926.12	0.932641
6908.76	0.93389
6891.4	0.934925
6874.04	0.935374
6856.68	0.935703
6839.32	0.936434
6821.96	0.936203
6804.6	0.935854
6787.24	0.935957
6769.88	0.935801
6752.52	0.935713
6735.16	0.935734
6717.8	0.935115
6700.44	0.933757
6683.08	0.932915
6665.72	0.93248
6648.36	0.930778
6631	0.930688
6613.64	0.929787
6596.28	0.928862
6578.92	0.927685
6561.56	0.932073
6544.2	0.935769
6526.85	0.93616
6509.49	0.933962
6492.13	0.931717
6474.77	0.925977
6457.41	0.918936
6440.05	0.915255
6422.69	0.9041
6405.33	0.88472
6387.97	0.901782
6370.61	0.910731
6353.25	0.910135
6335.89	0.91052
6318.53	0.907992
6301.17	0.903525
6283.81	0.898562
6266.45	0.896505
6249.09	0.88441
6231.73	0.8826
6214.37	0.907011
6197.01	0.915783
6179.65	0.920168
6162.29	0.920963
6144.93	0.920136
6127.57	0.918695
6110.21	0.911326
6092.85	0.907075
6075.49	0.898351
6058.13	0.87453
6040.77	0.88274
6023.41	0.89305
6006.05	0.88444
5988.69	0.86736
5971.33	0.84498
5953.97	0.81539
5936.61	0.7701
5919.25	0.74851
5901.89	0.72799
5884.53	0.66802
5867.17	0.67812
5849.81	0.81773
5832.45	0.84343
5815.09	0.8351
5797.73	0.80943
5780.37	0.76371
5763.01	0.67786
5745.65	0.65081
5728.29	0.60155
5710.93	0.5285
5693.57	0.7033
5676.21	0.79243
5658.86	0.83792
5641.5	0.85272
5624.14	0.8471
5606.78	0.80711
5589.42	0.74354
5572.06	0.67259
5554.7	0.61575
5537.34	0.51166
5519.98	0.53772
5502.62	0.57106
5485.26	0.55886
5467.9	0.54493
5450.54	0.53386
5433.18	0.52591
5415.82	0.52344
5398.46	0.50709
5381.1	0.49874
5363.74	0.48145
5346.38	0.41396
5329.02	0.4811
5311.66	0.47349
5294.3	0.44632
5276.94	0.40207
5259.58	0.34175
5242.22	0.20182
5224.86	0.11765
5207.5	0.13208
5190.14	0.10609
5172.78	0.09068
5155.42	0.32183
5138.06	0.40981
5120.7	0.48919
5103.34	0.50996
5085.98	0.48923
5068.62	0.39321
5051.26	0.13375
5033.9	0.12257
5016.54	0.0855
4999.18	0.04672
4981.82	0.19287
4964.46	0.37594
4947.1	0.46156
4929.74	0.49995
4912.38	0.53521
4895.02	0.56981
4877.66	0.60002
4860.3	0.47013
4842.94	0.47495
4825.58	0.36686
4808.22	0.26191
4790.86	0.58806
4773.51	0.63109
4756.15	0.62732
4738.79	0.59769
4721.43	0.55958
4704.07	0.51163
4686.71	0.43846
4669.35	0.33924
4651.99	0.21743
4634.63	0.03829
4617.27	0.08699
4599.91	0.05448
4582.55	0.0342
4565.19	0.02551
4547.83	0.03214
4530.47	0.07086
4513.11	0.14673
4495.75	0.13961
4478.39	0.11675
4461.03	0.10334
4443.67	0.0703
4426.31	0.08197
4408.95	0.0912
4391.59	0.09553
4374.23	0.11224
4356.87	0.12494
4339.51	0.16353
4322.15	0.20612
4304.79	0.20931
4287.43	0.15669
4270.07	0.19028
4252.71	0.19801
4235.35	0.21109
4217.99	0.20522
4200.63	0.12715
4183.27	0.07241
4165.91	0.2087
4148.55	0.26796
4131.19	0.27177
4113.83	0.28604
4096.47	0.04603
4079.11	0.33314
4061.75	0.32208
4044.39	0.919707
4027.03	0.927053
4009.67	0.930437
3992.31	0.930116
3974.95	0.931894
3957.59	0.932126
3940.23	0.932225
3922.87	0.931082
3905.52	0.931514
3888.16	0.930571
3870.8	0.931214
3853.44	0.931622
3836.08	0.93104
3818.72	0.930378
3801.36	0.930884
3784	0.929855
3766.64	0.931766
3749.28	0.931016
3731.92	0.932062
3714.56	0.930987
3697.2	0.930247
3679.84	0.930557
3662.48	0.931387
3645.12	0.931478
3627.76	0.931309
3610.4	0.932317
3593.04	0.93188
3575.68	0.931845
3558.32	0.933106
3540.96	0.93316
3523.6	0.932415
3506.24	0.933958
3488.88	0.932991
3471.52	0.933115
3454.16	0.93371
3436.8	0.935044
3419.44	0.935336
3402.08	0.934818
3384.72	0.935205
3367.36	0.934863
3350	0.935899
3332.64	0.935616
3315.28	0.935608
3297.92	0.935594
3280.56	0.933371
3263.2	0.934792
3245.84	0.933098
3228.48	0.931647
3211.12	0.930495
3193.76	0.929775
3176.4	0.928175
3159.04	0.927829
3141.68	0.925628
3124.32	0.926542
3106.96	0.933257
3089.6	0.934033
3072.24	0.931646
3054.88	0.930963
3037.53	0.929137
3020.17	0.921632
3002.81	0.914774
2985.45	0.911358
2968.09	0.896635
2950.73	0.878161
2933.37	0.902783
2916.01	0.906709
2898.65	0.907419
2881.29	0.90722
2863.93	0.905194
2846.57	0.89907
2829.21	0.895425
2811.85	0.890836
2794.49	0.875224
2777.13	0.890676
2759.77	0.909273
2742.41	0.915414
2725.05	0.918302
2707.69	0.919818
2690.33	0.919061
2672.97	0.915958
2655.61	0.908192
2638.25	0.903403
2620.89	0.89025
2603.53	0.869808
2586.17	0.889473
2568.81	0.888952
2551.45	0.878544
2534.09	0.858762
2516.73	0.832372
2499.37	0.795691
2482.01	0.751541
2464.65	0.736866
2447.29	0.702687
2429.93	0.639222
2412.57	0.723692
2395.21	0.829052
2377.85	0.837501
2360.49	0.824817
2343.13	0.794361
2325.77	0.731705
2308.41	0.652375
2291.05	0.635221
2273.69	0.560498
2256.33	0.531032
2238.97	0.750062
2221.61	0.809568
2204.25	0.8418
2186.89	0.849909
2169.53	0.838938
2152.18	0.778304
2134.82	0.716137
2117.46	0.652428
2100.1	0.582695
2082.74	0.449467
2065.38	0.54444
2048.02	0.560157
2030.66	0.546175
2013.3	0.533767
1995.94	0.524307
1978.58	0.518411
1961.22	0.513357
1943.86	0.493915
1926.5	0.492319
1909.14	0.456618
1891.78	0.402102
1874.42	0.475431
1857.06	0.458065
1839.7	0.426567
1822.34	0.375531
1804.98	0.307842
1787.62	0.132878
1770.26	0.120364
1752.9	0.126067
1735.54	0.0919513
1718.18	0.161801
1700.82	0.343298
1683.46	0.433632
1666.1	0.493947
1648.74	0.500832
1631.38	0.463492
1614.02	0.306788
1596.66	0.115586
1579.3	0.132761
1561.94	0.0645181
1544.58	0.0481412
1527.22	0.268384
1509.86	0.398623
1492.5	0.469717
1475.14	0.50743
1457.78	0.532979
1440.42	0.582727
1423.06	0.572448
1405.7	0.447764
1388.34	0.458544
1370.98	0.310523
1353.62	0.361176
1336.26	0.614875
1318.9	0.631018
1301.54	0.618918
1284.19	0.560498
1266.83	0.544642
1249.47	0.486754
1232.11	0.405795
1214.75	0.303181
1197.39	0.125588
1180.03	0.0966761
1162.67	0.0723927
1145.31	0.0484817
1127.95	0.0303596
1110.59	0.0262201
1093.23	0.0379575
1075.87	0.100145
1058.51	0.150713
1041.15	0.130143
1023.79	0.108871
1006.43	0.0793733
989.068	0.0757447
971.709	0.0845237
954.349	0.0927494
936.989	0.10106
919.629	0.113958
902.269	0.135921
884.91	0.179465
867.55	0.217455
850.19	0.191086
832.83	0.176784
815.47	0.193831
798.111	0.208335
780.751	0.212411
763.391	0.20311
746.031	0.064848
728.671	0.0808312
711.312	0.238524
693.952	0.276003
676.592	0.288581
659.232	0.229064
641.872	0.208516
624.513	0.333391
607.153	0.32723
