Infrared Spectrum: NORBORNYLENE
Formula: C7 H10
CAS: 498-66-8
State: SOLUTION (10% IN CCl4 FOR 4000-1300, 10% IN CS2 FOR 1300-650 CM^-^1) VS. SOLVENT
Class: COBLENTZ III
Instrument: CARY 90 (GRATING)
Instrument parameters: GRATING CHANGES AT 3000, 2000, 1200 CM^-^1
Sampling: TRANSMISSION
Path length: 0.010, 0.010 CM
Resolution: 4
Origin: WESTERN REGIONAL RES. USDA
1/CM	TRANSMITTANCE
456.14	0.751
465.195	0.749
474.25	0.744
483.305	0.66
492.36	0.77
501.415	0.795
510.47	0.806
519.524	0.805
528.579	0.803
537.634	0.806
546.689	0.812
555.744	0.772
564.799	0.825
573.854	0.83
582.909	0.834
591.964	0.839
601.019	0.843
610.074	0.84
619.129	0.843
628.184	0.844
637.238	0.844
646.293	0.843
655.348	0.839
664.403	0.829
673.458	0.799
682.513	0.801
691.568	0.777
700.623	0.645
709.678	0.084
718.733	0.443
727.788	0.68
736.843	0.726
745.898	0.758
754.952	0.8
764.007	0.766
773.062	0.577
782.117	0.811
791.172	0.802
800.227	0.749
809.282	0.797
818.337	0.811
827.392	0.779
836.447	0.542
845.502	0.793
854.557	0.651
863.612	0.81
872.667	0.565
881.721	0.658
890.776	0.799
899.831	0.748
908.886	0.523
917.941	0.767
926.996	0.8
936.051	0.79
945.106	0.758
954.161	0.796
963.216	0.786
972.271	0.792
981.326	0.781
990.381	0.799
999.435	0.823
1008.49	0.822
1017.55	0.779
1026.6	0.765
1035.66	0.758
1044.71	0.81
1053.76	0.82
1062.82	0.822
1071.87	0.805
1080.93	0.787
1089.98	0.693
1099.04	0.73
1108.09	0.766
1117.15	0.711
1126.2	0.48
1135.26	0.732
1144.31	0.772
1153.37	0.773
1162.42	0.721
1171.48	0.746
1180.53	0.772
1189.59	0.793
1198.64	0.813
1207.7	0.818
1216.75	0.831
1225.81	0.828
1234.86	0.84
1243.92	0.818
1252.97	0.6681
1262.03	0.802
1271.08	0.611
1280.14	0.681
1289.19	0.751
1298.25	0.75
1307.3	0.825
1316.36	0.811
1325.41	0.803
1334.47	0.154
1343.52	0.6581
1352.58	0.808
1361.63	0.841
1370.69	0.84
1379.74	0.832
1388.8	0.839
1397.85	0.844
1406.91	0.843
1415.96	0.826
1425.02	0.829
1434.07	0.828
1443.13	0.6909
1452.18	0.7001
1461.24	0.817
1470.29	0.778
1479.35	0.843
1488.4	0.865
1497.46	0.87
1506.51	0.876
1515.57	0.888
1524.62	0.89
1533.68	0.883
1542.73	0.876
1551.79	0.864
1560.84	0.852
1569.9	0.727
1578.95	0.827
1588.01	0.844
1597.06	0.855
1606.12	0.828
1615.17	0.758
1624.23	0.828
1633.28	0.823
1642.34	0.846
1651.39	0.875
1660.44	0.887
1669.5	0.886
1678.55	0.888
1687.61	0.887
1696.66	0.881
1705.72	0.873
1714.77	0.866
1723.83	0.851
1732.88	0.825
1741.94	0.843
1750.99	0.846
1760.05	0.852
1769.1	0.864
1778.16	0.869
1787.21	0.876
1796.27	0.881
1805.32	0.876
1814.38	0.879
1823.43	0.896
1832.49	0.899
1841.54	0.899
1850.6	0.9
1859.65	0.904
1868.71	0.904
1877.76	0.9
1886.82	0.906
1895.87	0.906
1904.93	0.906
1913.98	0.905
1923.04	0.905
1932.09	0.905
1941.15	0.905
1950.2	0.905
1959.26	0.905
1968.31	0.905
1977.37	0.905
1986.42	0.905
1995.48	0.904
2004.53	0.904
2013.59	0.902
2022.64	0.902
2031.7	0.9005
2040.75	0.8975
2049.81	0.8925
2058.86	0.891
2067.92	0.892
2076.97	0.8965
2086.03	0.8985
2095.08	0.9005
2104.14	0.902
2113.19	0.9055
2122.25	0.907
2131.3	0.907
2140.36	0.906
2149.41	0.905
2158.47	0.904
2167.52	0.902
2176.58	0.901
2185.63	0.901
2194.69	0.9004
2203.74	0.901
2212.8	0.902
2221.85	0.9046
2230.91	0.9056
2239.96	0.9066
2249.01	0.9076
2258.07	0.91
2267.12	0.91
2276.18	0.91
2285.23	0.9084
2294.29	0.908
2303.34	0.9074
2312.4	0.907
2321.45	0.907
2330.51	0.907
2339.56	0.906
2348.62	0.906
2357.67	0.905
2366.73	0.905
2375.78	0.905
2384.84	0.905
2393.89	0.905
2402.95	0.906
2412	0.906
2421.06	0.9066
2430.11	0.907
2439.17	0.907
2448.22	0.908
2457.28	0.908
2466.33	0.907
2475.39	0.907
2484.44	0.907
2493.5	0.908
2502.55	0.908
2511.61	0.908
2520.66	0.908
2529.72	0.9063
2538.77	0.906
2547.83	0.906
2556.88	0.908
2565.94	0.909
2574.99	0.909
2584.05	0.907
2593.1	0.906
2602.16	0.9067
2611.21	0.908
2620.27	0.909
2629.32	0.911
2638.38	0.9137
2647.43	0.915
2656.49	0.916
2665.54	0.9167
2674.6	0.917
2683.65	0.9153
2692.71	0.914
2701.76	0.911
2710.82	0.908
2719.87	0.9053
2728.93	0.904
2737.98	0.902
2747.04	0.9057
2756.09	0.907
2765.15	0.907
2774.2	0.906
2783.26	0.905
2792.31	0.904
2801.37	0.9002
2810.42	0.8958
2819.48	0.8865
2828.53	0.87
2837.59	0.8389
2846.64	0.7308
2855.69	0.5701
2864.75	0.1763
2873.8	0.0948
2882.86	0.5401
2891.91	0.6315
2900.97	0.391
2910.02	0.425
2919.08	0.1964
2928.13	0.2262
2937.19	0.1166
2946.24	0.0362
2955.3	0.0304
2964.35	0.0106
2973.41	0.0048
2982.46	0.0266
2991.52	0.2316
3000.57	0.4686
3009.63	0.6352
3018.68	0.7054
3027.74	0.7283
3036.79	0.7261
3045.85	0.6628
3054.9	0.4554
3063.96	0.4264
3073.01	0.6866
3082.07	0.8135
3091.12	0.8562
3100.18	0.8757
3109.23	0.8865
3118.29	0.8826
3127.34	0.85
3136.4	0.8268
3145.45	0.8643
3154.51	0.8897
3163.56	0.8999
3172.62	0.901
3181.67	0.8971
3190.73	0.892
3199.78	0.8891
3208.84	0.8917
3217.89	0.8969
3226.95	0.9019
3236	0.9069
3245.06	0.908
3254.11	0.908
3263.17	0.907
3272.22	0.906
3281.28	0.905
3290.33	0.904
3299.39	0.902
3308.44	0.901
3317.5	0.9001
3326.55	0.9
3335.61	0.899
3344.66	0.9
3353.72	0.902
3362.77	0.906
3371.83	0.907
3380.88	0.906
3389.94	0.904
3398.99	0.901
3408.05	0.8971
3417.1	0.8931
3426.16	0.891
3435.21	0.8919
3444.26	0.895
3453.32	0.899
3462.37	0.902
3471.43	0.904
3480.48	0.905
3489.54	0.904
3498.59	0.899
3507.65	0.896
3516.7	0.893
3525.76	0.892
3534.81	0.895
3543.87	0.896
3552.92	0.897
3561.98	0.899
3571.03	0.9
3580.09	0.9
3589.14	0.901
3598.2	0.902
3607.25	0.902
3616.31	0.905
3625.36	0.907
3634.42	0.908
3643.47	0.909
3652.53	0.911
3661.58	0.911
3670.64	0.91
3679.69	0.908
3688.75	0.905
3697.8	0.9
3706.86	0.897
3715.91	0.893
3724.97	0.891
3734.02	0.891
3743.08	0.892
3752.13	0.895
3761.19	0.8971
3770.24	0.899
3779.3	0.901
3788.35	0.902
3797.41	0.902
3806.46	0.902
3815.52	0.902
3824.57	0.904
3833.63	0.905
3842.68	0.905
3851.74	0.906
3860.79	0.906
3869.85	0.907
3878.9	0.907
3887.96	0.907
3897.01	0.907
3906.07	0.907
3915.12	0.907
3924.18	0.9059
3933.23	0.904
3942.29	0.902
3951.34	0.9
3960.4	0.8989
3969.45	0.897
