Infrared Spectrum: Diphenyl acetylene
Formula: C14 H10
CAS: 501-65-5
State: SOLID (SPLIT MULL), FLUOROLUBE FOR 3800-1330 CM^-^1, NUJOL FOR 1330-400 CM^-^1
Class: COBLENTZ
Instrument: BECKMAN IR-9 (GRATING)
Instrument parameters: ORDER CHANGES: 670, 1200, 2000 CM^-^1
Sampling: TRANSMISSION
Resolution: 2
Origin: DOW CHEMICAL COMPANY
1/CM	TRANSMITTANCE
404	0.6247
413	0.6498
422	0.6978
431	0.7247
440	0.753
449	0.7668
458	0.7825
467	0.7696
476	0.8028
485	0.811
494	0.8134
503	0.7312
512	0.8065
521	0.8474
530	0.8487
539	0.8621
548	0.8758
557	0.8841
566	0.888
575	0.8886
584	0.889
593	0.8882
602	0.8853
611	0.8817
620	0.8713
629	0.8714
638	0.8642
647	0.8544
656	0.8378
665	0.7985
674	0.7903
683	0.5174
692	0.5169
701	0.7786
710	0.8153
719	0.8092
728	0.7911
737	0.7845
746	0.7411
755	0.1289
764	0.764
773	0.8114
782	0.8302
791	0.8267
800	0.8108
809	0.8085
818	0.8094
827	0.8121
836	0.8144
845	0.8099
854	0.8048
863	0.8084
872	0.8094
881	0.8061
890	0.7996
899	0.7868
908	0.7492
917	0.5982
926	0.7914
935	0.7999
944	0.8022
953	0.7996
962	0.7925
971	0.7812
980	0.7785
989	0.7724
998	0.7432
1007	0.7703
1016	0.7558
1025	0.6521
1034	0.7518
1043	0.7568
1052	0.7578
1061	0.7501
1070	0.5793
1079	0.7421
1088	0.7503
1097	0.7496
1106	0.7469
1115	0.7569
1124	0.7591
1133	0.7595
1142	0.7575
1151	0.7547
1160	0.7358
1169	0.75
1178	0.7461
1187	0.7532
1196	0.7565
1205	0.7517
1214	0.7462
1223	0.7448
1232	0.7432
1241	0.7398
1250	0.7328
1259	0.7106
1268	0.7069
1277	0.7062
1286	0.7114
1295	0.7137
1304	0.7042
1313	0.6732
1322	0.7044
1331	0.7055
1340	0.7257
1349	0.7315
1358	0.7337
1367	0.7349
1376	0.7355
1385	0.7355
1394	0.7398
1403	0.7455
1412	0.7455
1421	0.7435
1430	0.7375
1439	0.6926
1448	0.7988
1457	0.7804
1466	0.7633
1475	0.7499
1484	0.7261
1493	0.5396
1502	0.6152
1511	0.8181
1520	0.8114
1529	0.7953
1538	0.7772
1547	0.7767
1556	0.778
1565	0.7743
1574	0.7506
1583	0.7605
1592	0.7562
1601	0.6499
1610	0.7682
1619	0.7748
1628	0.7775
1637	0.7761
1646	0.7681
1655	0.7621
1664	0.7587
1673	0.7571
1682	0.7557
1691	0.7547
1700	0.7539
1709	0.7534
1718	0.7521
1727	0.7484
1736	0.7428
1745	0.738
1754	0.7333
1763	0.7286
1772	0.7301
1781	0.7318
1790	0.731
1799	0.7268
1808	0.7184
1817	0.7161
1826	0.7146
1835	0.7126
1844	0.7132
1853	0.7134
1862	0.711
1871	0.705
1880	0.6948
1889	0.6911
1898	0.6954
1907	0.6968
1916	0.6968
1925	0.6968
1934	0.6944
1943	0.6858
1952	0.6714
1961	0.6815
1970	0.6851
1979	0.6853
1988	0.6851
1997	0.6832
2006	0.6796
2015	0.6768
2024	0.6739
2033	0.6711
2042	0.6683
2051	0.6655
2060	0.6628
2069	0.66
2078	0.6571
2087	0.6541
2096	0.651
2105	0.6478
2114	0.6449
2123	0.6425
2132	0.6401
2141	0.6378
2150	0.6354
2159	0.6329
2168	0.6304
2177	0.6279
2186	0.6249
2195	0.6217
2204	0.618
2213	0.614
2222	0.6097
2231	0.6046
2240	0.6002
2249	0.5967
2258	0.5931
2267	0.5898
2276	0.587
2285	0.5843
2294	0.582
2303	0.5804
2312	0.5789
2321	0.5773
2330	0.576
2339	0.5746
2348	0.5739
2357	0.5732
2366	0.5731
2375	0.5737
2384	0.5729
2393	0.5677
2402	0.565
2411	0.5636
2420	0.5623
2429	0.5612
2438	0.5602
2447	0.5588
2456	0.5569
2465	0.555
2474	0.553
2483	0.551
2492	0.5492
2501	0.5472
2510	0.5453
2519	0.5433
2528	0.5414
2537	0.5394
2546	0.5375
2555	0.5356
2564	0.5337
2573	0.5318
2582	0.5299
2591	0.5278
2600	0.5258
2609	0.5243
2618	0.5228
2627	0.521
2636	0.5191
2645	0.5171
2654	0.5151
2663	0.5136
2672	0.5122
2681	0.5107
2690	0.5092
2699	0.5077
2708	0.506
2717	0.5043
2726	0.5026
2735	0.5009
2744	0.4995
2753	0.4981
2762	0.4967
2771	0.4952
2780	0.4934
2789	0.4915
2798	0.4895
2807	0.487
2816	0.4845
2825	0.4816
2834	0.478
2843	0.4743
2852	0.4706
2861	0.4667
2870	0.4626
2879	0.4588
2888	0.4571
2897	0.4566
2906	0.4559
2915	0.4543
2924	0.4495
2933	0.4432
2942	0.437
2951	0.4332
2960	0.4315
2969	0.431
2978	0.4307
2987	0.4312
2996	0.4318
3005	0.4319
3014	0.4314
3023	0.4275
3032	0.4248
3041	0.424
3050	0.4232
3059	0.4116
3068	0.4054
3077	0.4369
3086	0.4312
3095	0.4399
3104	0.4406
3113	0.4405
3122	0.4404
3131	0.44
3140	0.4388
3149	0.4376
3158	0.4365
3167	0.4354
3176	0.434
3185	0.4322
3194	0.4303
3203	0.4284
3212	0.4267
3221	0.425
3230	0.4233
3239	0.4216
3248	0.42
3257	0.4184
3266	0.4169
3275	0.4153
3284	0.4138
3293	0.4124
3302	0.411
3311	0.4095
3320	0.4082
3329	0.4066
3338	0.4053
3347	0.4038
3356	0.4024
3365	0.4009
3374	0.3994
3383	0.3979
3392	0.3959
3401	0.3938
3410	0.3918
3419	0.3904
3428	0.389
3437	0.3877
3446	0.3874
3455	0.3871
3464	0.3868
3473	0.3866
3482	0.3864
3491	0.386
3500	0.3858
3509	0.3853
3518	0.3849
3527	0.3845
3536	0.3841
3545	0.3836
3554	0.3834
3563	0.383
3572	0.383
3581	0.3828
3590	0.3826
3599	0.3822
3608	0.3818
3617	0.3816
3626	0.3812
3635	0.3805
3644	0.3797
3653	0.3788
3662	0.378
3671	0.3772
3680	0.3762
3689	0.3747
3698	0.3726
3707	0.3704
3716	0.3693
3725	0.3687
3734	0.368
3743	0.3673
3752	0.3666
3761	0.3659
3770	0.3653
3779	0.3646
3788	0.3644
3797	0.3641
