Infrared Spectrum: BARBITURIC ACID, 5,5-DIETHYL-1-METHYL-
Formula: C9 H14 N2 O3
CAS: 50-11-3
State: SOLID (KBr DISC)
Melting point: 151-55 C
Class: COBLENTZ III
Instrument: PERKIN-ELMER 21 (GRATING)
Instrument parameters: FILTER AT ABOUT 10 MICRONS
Sampling: TRANSMISSION
Resolution: 2
1/CM	TRANSMITTANCE
4000	0.8611
3991	0.8612
3982	0.8612
3973	0.8614
3964	0.8615
3955	0.8617
3946	0.8617
3937	0.8618
3928	0.862
3919	0.8621
3910	0.8623
3901	0.8623
3892	0.8625
3883	0.8625
3874	0.8628
3865	0.8628
3856	0.863
3847	0.8631
3838	0.8633
3829	0.8634
3820	0.8635
3811	0.8636
3802	0.8638
3793	0.8639
3784	0.864
3775	0.8642
3766	0.8643
3757	0.8644
3748	0.8646
3739	0.8647
3730	0.8649
3721	0.865
3712	0.8651
3703	0.8653
3694	0.8654
3685	0.8655
3676	0.8657
3667	0.8658
3658	0.8653
3649	0.864
3640	0.8621
3631	0.8594
3622	0.8546
3613	0.8488
3604	0.8421
3595	0.833
3586	0.8237
3577	0.8151
3568	0.8065
3559	0.7937
3550	0.7786
3541	0.7672
3532	0.7586
3523	0.7496
3514	0.7389
3505	0.7278
3496	0.7188
3487	0.7111
3478	0.7032
3469	0.6953
3460	0.6874
3451	0.6795
3442	0.6711
3433	0.6628
3424	0.6594
3415	0.6565
3406	0.6549
3397	0.6543
3388	0.6557
3379	0.6601
3370	0.6658
3361	0.6718
3352	0.6792
3343	0.6865
3334	0.6938
3325	0.6951
3316	0.6951
3307	0.6908
3298	0.6778
3289	0.6558
3280	0.5905
3271	0.5407
3262	0.4905
3253	0.44
3244	0.3894
3235	0.3384
3226	0.2871
3217	0.2378
3208	0.2421
3199	0.3094
3190	0.377
3181	0.4451
3172	0.5125
3163	0.5428
3154	0.5631
3145	0.5818
3136	0.5967
3127	0.6021
3118	0.6052
3109	0.6188
3100	0.6486
3091	0.6785
3082	0.7086
3073	0.7389
3064	0.7614
3055	0.7758
3046	0.7894
3037	0.7988
3028	0.8042
3019	0.8065
3010	0.8078
3001	0.8081
2992	0.798
2983	0.7441
2974	0.6881
2965	0.6318
2956	0.5787
2947	0.5779
2938	0.6233
2929	0.6586
2920	0.6886
2911	0.7048
2902	0.7225
2893	0.7393
2884	0.7494
2875	0.7511
2866	0.7537
2857	0.7618
2848	0.7726
2839	0.7804
2830	0.7814
2821	0.7825
2812	0.7861
2803	0.7908
2794	0.7965
2785	0.8044
2776	0.8126
2767	0.8211
2758	0.8294
2749	0.8371
2740	0.8446
2731	0.8499
2722	0.8543
2713	0.8587
2704	0.862
2695	0.8641
2686	0.8661
2677	0.8671
2668	0.8678
2659	0.8675
2650	0.8654
2641	0.8658
2632	0.8674
2623	0.8696
2614	0.8713
2605	0.8721
2596	0.8725
2587	0.8721
2578	0.8718
2569	0.8709
2560	0.8699
2551	0.8695
2542	0.8695
2533	0.8696
2524	0.8697
2515	0.8704
2506	0.8717
2497	0.8728
2488	0.8738
2479	0.8745
2470	0.8753
2461	0.8756
2452	0.8757
2443	0.8758
2434	0.8762
2425	0.8774
2416	0.8787
2407	0.88
2398	0.8813
2389	0.8815
2380	0.8802
2371	0.8783
2362	0.8764
2353	0.8745
2344	0.8725
2335	0.8704
2326	0.8701
2317	0.87
2308	0.8731
2299	0.8759
2290	0.8781
2281	0.8803
2272	0.8815
2263	0.8825
2254	0.8836
2245	0.884
2236	0.8845
2227	0.8848
2218	0.885
2209	0.885
2200	0.8851
2191	0.8852
2182	0.8847
2173	0.8838
2164	0.8828
2155	0.8818
2146	0.881
2137	0.8801
2128	0.8793
2119	0.8787
2110	0.8781
2101	0.8775
2092	0.877
2083	0.8768
2074	0.8767
2065	0.8766
2056	0.8764
2047	0.8757
2038	0.8752
2029	0.8745
2020	0.874
2011	0.8745
2002	0.8742
1993	0.8734
1984	0.8723
1975	0.8712
1966	0.8712
1957	0.8704
1948	0.867
1939	0.8634
1930	0.861
1921	0.8588
1912	0.857
1903	0.8564
1894	0.8549
1885	0.8514
1876	0.8478
1867	0.8423
1858	0.8371
1849	0.8304
1840	0.8225
1831	0.8132
1822	0.8033
1813	0.7922
1804	0.773
1795	0.7515
1786	0.724
1777	0.6885
1768	0.6178
1759	0.4007
1750	0.211
1741	0.451
1732	0.2872
1723	0.1306
1714	0.0876
1705	0.1844
1696	0.348
1687	0.3093
1678	0.153
1669	0.0425
1660	0.1844
1651	0.3327
1642	0.4883
1633	0.5733
1624	0.6188
1615	0.6615
1606	0.6935
1597	0.7304
1588	0.7675
1579	0.7896
1570	0.8004
1561	0.8028
1552	0.8048
1543	0.8051
1534	0.7976
1525	0.7865
1516	0.7478
1507	0.7389
1498	0.7246
1489	0.6851
1480	0.5975
1471	0.4648
1462	0.1969
1453	0.2143
1444	0.2257
1435	0.3318
1426	0.4328
1417	0.6228
1408	0.5712
1399	0.2961
1390	0.2845
1381	0.1873
1372	0.3782
1363	0.5374
1354	0.6543
1345	0.5404
1336	0.3047
1327	0.1322
1318	0.397
1309	0.5962
1300	0.7086
1291	0.7507
1282	0.7458
1273	0.5375
1264	0.4687
1255	0.6824
1246	0.7638
1237	0.7939
1228	0.8014
1219	0.7875
1210	0.6761
1201	0.4833
1192	0.6594
1183	0.7904
1174	0.7761
1165	0.7735
1156	0.7326
1147	0.8128
1138	0.8242
1129	0.8243
1120	0.8267
1111	0.8255
1102	0.8244
1093	0.8068
1084	0.714
1075	0.5724
1066	0.7461
1057	0.769
1048	0.6512
1039	0.6686
1030	0.7892
1021	0.8221
1012	0.827
1003	0.8343
994	0.837
985	0.8307
976	0.7683
967	0.8093
958	0.8442
949	0.842
940	0.8356
931	0.8614
922	0.8665
913	0.8661
904	0.8639
895	0.8628
886	0.8595
877	0.8421
868	0.7811
859	0.8262
850	0.8168
841	0.7768
832	0.7125
823	0.5526
814	0.4523
805	0.6461
796	0.7168
787	0.7115
778	0.7839
769	0.8167
760	0.8196
751	0.7721
742	0.6425
733	0.8254
724	0.8285
715	0.7837
706	0.7334
697	0.8221
688	0.7796
679	0.836
670	0.8434
661	0.8455
