Infrared Spectrum: 2-AMINOPYRIDINE
Formula: C5 H6 N2
CAS: 504-29-0
State: SOLID (MINERAL OIL MULL)
Class: COBLENTZ
Instrument: Not specified, most likely a prism, grating, or hybrid spectrometer.
Sampling: TRANSMISSION
Resolution: 4
Origin: WYANDOTTE CHEMICALS CORP., WYANDOTTE, MICHIGAN, USA
MICROMETERS	TRANSMITTANCE
2.041	0.164
2.08184	0.164
2.12267	0.167
2.16351	0.179
2.20434	0.182
2.24518	0.193
2.28601	0.194
2.32685	0.206
2.36768	0.205
2.40852	0.205
2.44935	0.22
2.49019	0.22
2.53103	0.227
2.57186	0.234
2.6127	0.247
2.65353	0.256
2.69437	0.27
2.7352	0.27
2.77604	0.283
2.81687	0.302
2.85771	0.304
2.89854	0.153
2.93938	0.082
2.98021	0.188
3.02105	0.206
3.06189	0.147
3.10272	0.193
3.14356	0.141
3.18439	0.111
3.22523	0.148
3.26606	0.141
3.3069	0.133
3.34773	0.082
3.38857	0.03
3.4294	0.041
3.47024	0.082
3.51108	0.08
3.55191	0.316
3.59275	0.381
3.63358	0.386
3.67442	0.391
3.71525	0.411
3.75609	0.396
3.79692	0.401
3.83776	0.422
3.87859	0.422
3.91943	0.442
3.96027	0.454
4.0011	0.468
4.04194	0.483
4.08277	0.483
4.12361	0.497
4.16444	0.502
4.20528	0.509
4.24611	0.507
4.28695	0.49
4.32778	0.511
4.36862	0.538
4.40946	0.555
4.45029	0.56
4.49113	0.572
4.53196	0.582
4.5728	0.598
4.61363	0.608
4.65447	0.608
4.6953	0.61
4.73614	0.623
4.77697	0.644
4.81781	0.649
4.85864	0.661
4.89948	0.668
4.94032	0.668
4.98115	0.685
5.02199	0.705
5.06282	0.714
5.10366	0.728
5.14449	0.743
5.18533	0.724
5.22616	0.752
5.267	0.723
5.30783	0.772
5.34867	0.801
5.38951	0.818
5.43034	0.832
5.47118	0.83
5.51201	0.808
5.55285	0.849
5.59368	0.89
5.63452	0.916
5.67535	0.926
5.71619	0.935
5.75702	0.945
5.79786	0.969
5.8387	0.938
5.87953	0.914
5.92037	0.935
5.9612	0.955
6.00204	0.902
6.04287	0.6
6.08371	0.157
6.12454	0.052
6.16538	0.218
6.20621	0.215
6.24705	0.273
6.28788	0.523
6.32872	0.47
6.36956	0.117
6.41039	0.287
6.45123	0.461
6.49206	0.659
6.5329	0.745
6.57373	0.68
6.61457	0.41
6.6554	0.094
6.69624	0.054
6.73707	0.164
6.77791	0.268
6.81875	0.307
6.85958	0.237
6.90042	0.037
6.94125	0.088
6.98209	0.194
7.02292	0.331
7.06376	0.393
7.10459	0.435
7.14543	0.492
7.18626	0.504
7.2271	0.456
7.26794	0.444
7.30877	0.57
7.34961	0.685
7.39044	0.743
7.43128	0.492
7.47211	0.379
7.51295	0.439
7.55378	0.408
7.59462	0.547
7.63545	0.603
7.67629	0.627
7.71713	0.641
7.75796	0.617
7.7988	0.473
7.83963	0.434
7.88047	0.594
7.9213	0.622
7.96214	0.663
8.00297	0.719
8.04381	0.755
8.08464	0.776
8.12548	0.788
8.16631	0.805
8.20715	0.822
8.24799	0.83
8.28882	0.841
8.32966	0.852
8.37049	0.858
8.41133	0.859
8.45216	0.866
8.493	0.875
8.53383	0.888
8.57467	0.902
8.6155	0.543
8.65634	0.806
8.69718	0.846
8.73801	0.446
8.77885	0.475
8.81968	0.719
8.86052	0.765
8.90135	0.765
8.94219	0.803
8.98302	0.829
9.02386	0.837
9.06469	0.846
9.10553	0.852
9.14637	0.854
9.1872	0.854
9.22804	0.852
9.26887	0.844
9.30971	0.841
9.35054	0.823
9.39138	0.825
9.43221	0.837
9.47305	0.844
9.51388	0.856
9.55472	0.856
9.59555	0.803
9.63639	0.798
9.67723	0.873
9.71806	0.907
9.7589	0.921
9.79973	0.94
9.84057	0.943
9.8814	0.952
9.92224	0.945
9.96307	0.894
10.0039	0.747
10.0447	0.569
10.0856	0.461
10.1264	0.401
10.1673	0.454
10.2081	0.623
10.2489	0.738
10.2898	0.798
10.3306	0.83
10.3714	0.839
10.4123	0.791
10.4531	0.694
10.4939	0.866
10.5348	0.894
10.5756	0.914
10.6164	0.921
10.6573	0.923
10.6981	0.929
10.7389	0.931
10.7798	0.933
10.8206	0.935
10.8615	0.938
10.9023	0.941
10.9431	0.94
10.984	0.938
11.0248	0.938
11.0656	0.94
11.1065	0.941
11.1473	0.935
11.1881	0.929
11.229	0.928
11.2698	0.926
11.3106	0.929
11.3515	0.924
11.3923	0.924
11.4331	0.923
11.474	0.921
11.5148	0.912
11.5557	0.895
11.5965	0.851
11.6373	0.803
11.6782	0.712
11.719	0.707
11.7598	0.888
11.8007	0.878
11.8415	0.798
11.8823	0.774
11.9232	0.793
11.964	0.805
12.0048	0.817
12.0457	0.81
12.0865	0.813
12.1274	0.805
12.1682	0.8
12.209	0.796
12.2499	0.791
12.2907	0.782
12.3315	0.777
12.3724	0.77
12.4132	0.772
12.454	0.762
12.4949	0.753
12.5357	0.745
12.5765	0.729
12.6174	0.716
12.6582	0.699
12.699	0.661
12.7399	0.622
12.7807	0.547
12.8216	0.451
12.8624	0.309
12.9032	0.181
12.9441	0.114
12.9849	0.1
13.0257	0.107
13.0666	0.128
13.1074	0.198
13.1482	0.331
13.1891	0.488
13.2299	0.641
13.2707	0.702
13.3116	0.726
13.3524	0.7
13.3933	0.635
13.4341	0.55
13.4749	0.476
13.5158	0.398
13.5566	0.377
13.5974	0.406
13.6383	0.47
13.6791	0.555
13.7199	0.615
13.7608	0.654
13.8016	0.69
13.8424	0.711
13.8833	0.726
13.9241	0.736
13.9649	0.769
14.0058	0.779
14.0466	0.786
14.0875	0.8
14.1283	0.801
14.1691	0.801
14.21	0.8
14.2508	0.796
14.2916	0.789
14.3325	0.781
14.3733	0.767
14.4141	0.758
14.455	0.741
14.4958	0.728
14.5366	0.704
14.5775	0.682
14.6183	0.663
14.6591	0.641
14.7	0.615
14.7408	0.598
14.7817	0.576
14.8225	0.555
14.8633	0.543
14.9042	0.526
14.945	0.519
14.9858	0.499
15.0267	0.473
15.0675	0.454
15.1083	0.482
15.1492	0.507
15.19	0.512
15.2308	0.511
15.2717	0.507
15.3125	0.511
15.3534	0.511
15.3942	0.511
15.435	0.511
15.4759	0.512
15.5167	0.511
15.5575	0.509
15.5984	0.509
15.6392	0.502
15.68	0.5
15.7209	0.5
15.7617	0.494
15.8025	0.482
15.8434	0.466
15.8842	0.449
15.925	0.432
15.9659	0.41
