Infrared Spectrum: 2,8-DECADIENE-4,6-DIYNOIC ACID, METHYL ESTER
Formula: C11 H10 O2
CAS: 505-02-2
State: SOLUTION (10% CS2 FOR 5000-2380 AND 1390-625, 10% C2Cl4 FOR 2380-1390 CM^-^1)
Class: COBLENTZ
Instrument: PERKIN-ELMER
Sampling: TRANSMISSION
Path length: 0.01 CM, 0.01 CM
Resolution: 4
Origin: HORMEL INSTITUTE
MICROMETERS	TRANSMITTANCE
2.047	0.913
2.08084	0.913
2.11468	0.911
2.14852	0.911
2.18236	0.911
2.21621	0.911
2.25005	0.906
2.28389	0.891
2.31773	0.896
2.35157	0.9
2.38541	0.9
2.41925	0.9
2.45309	0.901
2.48693	0.905
2.52078	0.906
2.55462	0.903
2.58846	0.906
2.6223	0.906
2.65614	0.903
2.68998	0.903
2.72382	0.908
2.75766	0.911
2.79151	0.91
2.82535	0.908
2.85919	0.903
2.89303	0.893
2.92687	0.871
2.96071	0.876
2.99455	0.881
3.02839	0.886
3.06223	0.893
3.09608	0.893
3.12992	0.893
3.16376	0.891
3.1976	0.886
3.23144	0.874
3.26528	0.849
3.29912	0.694
3.33296	0.664
3.3668	0.677
3.40065	0.557
3.43449	0.671
3.46833	0.766
3.50217	0.796
3.53601	0.81
3.56985	0.866
3.60369	0.881
3.63753	0.893
3.67138	0.901
3.70522	0.898
3.73906	0.901
3.7729	0.903
3.80674	0.91
3.84058	0.91
3.87442	0.903
3.90826	0.901
3.9421	0.901
3.97595	0.903
4.00979	0.905
4.04363	0.903
4.07747	0.911
4.11131	0.911
4.14515	0.905
4.17899	0.901
4.21283	0.903
4.24667	0.898
4.28052	0.898
4.31436	0.901
4.3482	0.915
4.38204	0.916
4.41588	0.913
4.44972	0.906
4.48356	0.881
4.5174	0.649
4.55124	0.333
4.58509	0.759
4.61893	0.862
4.65277	0.877
4.68661	0.801
4.72045	0.861
4.75429	0.891
4.78813	0.898
4.82197	0.9
4.85582	0.893
4.88966	0.903
4.9235	0.91
4.95734	0.903
4.99118	0.894
5.02502	0.874
5.05886	0.857
5.0927	0.891
5.12654	0.894
5.16039	0.894
5.19423	0.903
5.22807	0.9
5.26191	0.903
5.29575	0.901
5.32959	0.901
5.36343	0.906
5.39727	0.908
5.43111	0.91
5.46496	0.903
5.4988	0.894
5.53264	0.883
5.56648	0.859
5.60032	0.833
5.63416	0.8
5.668	0.759
5.70184	0.705
5.73568	0.486
5.76953	0.1
5.80337	0.096
5.83721	0.089
5.87105	0.493
5.90489	0.633
5.93873	0.732
5.97257	0.742
6.00641	0.738
6.04026	0.745
6.0741	0.777
6.10794	0.759
6.14178	0.684
6.17562	0.457
6.20946	0.201
6.2433	0.289
6.27714	0.532
6.31098	0.674
6.34483	0.755
6.37867	0.81
6.41251	0.835
6.44635	0.844
6.48019	0.845
6.51403	0.849
6.54787	0.854
6.58171	0.857
6.61555	0.857
6.6494	0.854
6.68324	0.849
6.71708	0.84
6.75092	0.82
6.78476	0.788
6.8186	0.7
6.85244	0.633
6.88628	0.571
6.92013	0.394
6.95397	0.181
6.98781	0.55
7.02165	0.693
7.05549	0.633
7.08933	0.401
7.12317	0.606
7.15701	0.564
7.19085	0.54
7.2247	0.625
7.25854	0.694
7.29238	0.679
7.32622	0.452
7.36006	0.647
7.3939	0.745
7.42774	0.776
7.46158	0.788
7.49542	0.786
7.52927	0.779
7.56311	0.772
7.59695	0.747
7.63079	0.745
7.66463	0.722
7.69847	0.647
7.73231	0.41
7.76615	0.279
7.79999	0.394
7.83384	0.583
7.86768	0.51
7.90152	0.393
7.93536	0.538
7.9692	0.591
8.00304	0.589
8.03688	0.567
8.07072	0.503
8.10457	0.396
8.13841	0.254
8.17225	0.122
8.20609	0.122
8.23993	0.071
8.27377	0.016
8.30761	0.011
8.34145	0.042
8.37529	0.191
8.40914	0.25
8.44298	0.25
8.47682	0.128
8.51066	0.033
8.5445	0.006
8.57834	0.006
8.61218	0.03
8.64602	0.186
8.67986	0.349
8.71371	0.5
8.74755	0.593
8.78139	0.655
8.81523	0.694
8.84907	0.725
8.88291	0.742
8.91675	0.752
8.95059	0.764
8.98443	0.776
9.01828	0.786
9.05212	0.789
9.08596	0.793
9.1198	0.794
9.15364	0.786
9.18748	0.786
9.22132	0.803
9.25516	0.813
9.28901	0.818
9.32285	0.825
9.35669	0.827
9.39053	0.832
9.42437	0.832
9.45821	0.832
9.49205	0.828
9.52589	0.815
9.55973	0.796
9.59358	0.761
9.62742	0.698
9.66126	0.584
9.6951	0.491
9.72894	0.533
9.76278	0.632
9.79662	0.671
9.83046	0.681
9.8643	0.622
9.89815	0.491
9.93199	0.43
9.96583	0.518
9.99967	0.628
10.0335	0.71
10.0674	0.74
10.1012	0.757
10.135	0.757
10.1689	0.727
10.2027	0.666
10.2366	0.554
10.2704	0.51
10.3042	0.549
10.3381	0.594
10.3719	0.64
10.4058	0.661
10.4396	0.649
10.4734	0.633
10.5073	0.664
10.5411	0.711
10.575	0.728
10.6088	0.745
10.6427	0.766
10.6765	0.781
10.7103	0.793
10.7442	0.796
10.778	0.786
10.8119	0.767
10.8457	0.776
10.8795	0.794
10.9134	0.806
10.9472	0.815
10.9811	0.816
11.0149	0.815
11.0487	0.815
11.0826	0.818
11.1164	0.825
11.1503	0.825
11.1841	0.823
11.218	0.816
11.2518	0.82
11.2856	0.832
11.3195	0.842
11.3533	0.847
11.3872	0.85
11.421	0.85
11.4548	0.847
11.4887	0.844
11.5225	0.844
11.5564	0.84
11.5902	0.83
11.624	0.823
11.6579	0.813
11.6917	0.793
11.7256	0.769
11.7594	0.742
11.7933	0.723
11.8271	0.725
11.8609	0.732
11.8948	0.744
11.9286	0.742
11.9625	0.735
11.9963	0.718
12.0301	0.693
12.064	0.662
12.0978	0.62
12.1317	0.559
12.1655	0.489
12.1993	0.416
12.2332	0.349
12.267	0.25
12.3009	0.162
12.3347	0.135
12.3685	0.194
12.4024	0.308
12.4362	0.496
12.4701	0.584
12.5039	0.64
12.5378	0.676
12.5716	0.713
12.6054	0.74
12.6393	0.752
12.6731	0.766
12.707	0.769
12.7408	0.771
12.7746	0.771
12.8085	0.767
12.8423	0.757
12.8762	0.742
12.91	0.713
12.9438	0.694
12.9777	0.686
13.0115	0.706
13.0454	0.732
13.0792	0.747
13.1131	0.772
13.1469	0.783
13.1807	0.794
13.2146	0.801
13.2484	0.808
13.2823	0.813
13.3161	0.815
13.3499	0.816
13.3838	0.822
13.4176	0.816
13.4515	0.813
13.4853	0.811
13.5191	0.81
13.553	0.803
13.5868	0.794
13.6207	0.779
13.6545	0.762
13.6884	0.74
13.7222	0.701
13.756	0.669
13.7899	0.618
13.8237	0.535
13.8576	0.438
13.8914	0.371
13.9252	0.269
13.9591	0.208
13.9929	0.194
14.0268	0.238
14.0606	0.33
14.0944	0.447
14.1283	0.542
14.1621	0.613
14.196	0.659
14.2298	0.693
14.2637	0.723
14.2975	0.747
14.3313	0.755
14.3652	0.769
14.399	0.781
14.4329	0.789
14.4667	0.794
14.5005	0.793
14.5344	0.789
14.5682	0.791
14.6021	0.793
14.6359	0.796
14.6697	0.803
14.7036	0.816
14.7374	0.828
14.7713	0.83
14.8051	0.838
14.839	0.84
14.8728	0.845
14.9066	0.85
14.9405	0.849
14.9743	0.844
15.0082	0.855
15.042	0.869
