Infrared Spectrum: 1,4-DIMETHYLPIPERAZINE-2,5-DIONE (OIL MULL)
Formula: C6 H10 N2 O2
CAS: 5076-82-4
State: SOLID (OIL MULL)
Class: COBLENTZ
Instrument: Not specified, most likely a grating spectrometer.
Sampling: TRANSMISSION
Resolution: 4
Origin: ABBOTT LABORATORIES
MICROMETERS	TRANSMITTANCE
2.007	0.654
2.0468	0.655
2.08659	0.662
2.12639	0.67
2.16618	0.673
2.20598	0.681
2.24578	0.691
2.28557	0.683
2.32537	0.68
2.36516	0.685
2.40496	0.691
2.44476	0.698
2.48455	0.704
2.52435	0.717
2.56414	0.72
2.60394	0.725
2.64374	0.73
2.68353	0.738
2.72333	0.74
2.76313	0.741
2.80292	0.746
2.84272	0.733
2.88251	0.73
2.92231	0.733
2.96211	0.733
3.0019	0.732
3.0417	0.732
3.08149	0.74
3.12129	0.748
3.16109	0.738
3.20088	0.737
3.24068	0.741
3.28047	0.732
3.32027	0.688
3.36007	0.378
3.39986	0.15
3.43966	0.086
3.47945	0.22
3.51925	0.228
3.55905	0.681
3.59884	0.753
3.63864	0.787
3.67843	0.788
3.71823	0.798
3.75803	0.793
3.79782	0.803
3.83762	0.805
3.87741	0.801
3.91721	0.813
3.95701	0.829
3.9968	0.824
4.0366	0.818
4.07639	0.832
4.11619	0.839
4.15599	0.821
4.19578	0.824
4.23558	0.836
4.27538	0.842
4.31517	0.844
4.35497	0.844
4.39476	0.842
4.43456	0.842
4.47436	0.844
4.51415	0.845
4.55395	0.84
4.59374	0.845
4.63354	0.845
4.67334	0.845
4.71313	0.849
4.75293	0.845
4.79272	0.844
4.83252	0.845
4.87232	0.844
4.91211	0.845
4.95191	0.849
4.9917	0.849
5.0315	0.849
5.0713	0.849
5.11109	0.849
5.15089	0.85
5.19068	0.85
5.23048	0.852
5.27028	0.85
5.31007	0.847
5.34987	0.849
5.38966	0.847
5.42946	0.845
5.46926	0.847
5.50905	0.842
5.54885	0.837
5.58865	0.826
5.62844	0.811
5.66824	0.8
5.70803	0.777
5.74783	0.728
5.78763	0.699
5.82742	0.66
5.86722	0.584
5.90701	0.441
5.94681	0.3
5.98661	0.15
6.0264	0.108
6.0662	0.095
6.10599	0.129
6.14579	0.271
6.18559	0.375
6.22538	0.487
6.26518	0.547
6.30497	0.582
6.34477	0.612
6.38457	0.636
6.42436	0.639
6.46416	0.649
6.50395	0.67
6.54375	0.681
6.58355	0.67
6.62334	0.503
6.66314	0.324
6.70293	0.347
6.74273	0.519
6.78253	0.558
6.82232	0.375
6.86212	0.285
6.90192	0.3
6.94171	0.327
6.98151	0.551
7.0213	0.662
7.0611	0.699
7.1009	0.712
7.14069	0.469
7.18049	0.448
7.22028	0.599
7.26008	0.555
7.29988	0.586
7.33967	0.597
7.37947	0.522
7.41926	0.4
7.45906	0.282
7.49886	0.266
7.53865	0.423
7.57845	0.522
7.61824	0.586
7.65804	0.625
7.69784	0.641
7.73763	0.634
7.77743	0.668
7.81722	0.678
7.85702	0.668
7.89682	0.616
7.93661	0.501
7.97641	0.459
8.0162	0.48
8.056	0.574
8.0958	0.631
8.13559	0.62
8.17539	0.662
8.21518	0.694
8.25498	0.701
8.29478	0.715
8.33457	0.728
8.37437	0.733
8.41417	0.733
8.45396	0.738
8.49376	0.741
8.53355	0.741
8.57335	0.704
8.61315	0.644
8.65294	0.693
8.69274	0.717
8.73253	0.735
8.77233	0.727
8.81213	0.702
8.85192	0.693
8.89172	0.719
8.93151	0.74
8.97131	0.748
9.01111	0.756
9.0509	0.758
9.0907	0.758
9.13049	0.764
9.17029	0.758
9.21009	0.762
9.24988	0.767
9.28968	0.774
9.32947	0.764
9.36927	0.774
9.40907	0.775
9.44886	0.774
9.48866	0.775
9.52845	0.764
9.56825	0.771
9.60805	0.769
9.64784	0.762
9.68764	0.75
9.72744	0.72
9.76723	0.646
9.80703	0.438
9.84682	0.376
9.88662	0.503
9.92642	0.62
9.96621	0.681
10.006	0.719
10.0458	0.728
10.0856	0.685
10.1254	0.714
10.1652	0.751
10.205	0.759
10.2448	0.772
10.2846	0.772
10.3244	0.774
10.3642	0.775
10.404	0.78
10.4438	0.784
10.4836	0.787
10.5234	0.784
10.5632	0.785
10.6029	0.782
10.6427	0.787
10.6825	0.79
10.7223	0.788
10.7621	0.792
10.8019	0.795
10.8417	0.797
10.8815	0.793
10.9213	0.797
10.9611	0.803
11.0009	0.801
11.0407	0.798
11.0805	0.798
11.1203	0.798
11.1601	0.805
11.1999	0.805
11.2397	0.801
11.2795	0.805
11.3193	0.805
11.3591	0.798
11.3989	0.8
11.4387	0.81
11.4785	0.806
11.5183	0.801
11.5581	0.805
11.5978	0.803
11.6376	0.805
11.6774	0.798
11.7172	0.808
11.757	0.803
11.7968	0.805
11.8366	0.806
11.8764	0.761
11.9162	0.675
11.956	0.751
11.9958	0.785
12.0356	0.8
12.0754	0.81
12.1152	0.813
12.155	0.813
12.1948	0.81
12.2346	0.813
12.2744	0.811
12.3142	0.811
12.354	0.813
12.3938	0.801
12.4336	0.811
12.4734	0.808
12.5132	0.798
12.553	0.808
12.5928	0.806
12.6325	0.81
12.6723	0.81
12.7121	0.8
12.7519	0.806
12.7917	0.798
12.8315	0.798
12.8713	0.795
12.9111	0.795
12.9509	0.797
12.9907	0.793
13.0305	0.792
13.0703	0.785
13.1101	0.787
13.1499	0.779
13.1897	0.78
13.2295	0.774
13.2693	0.771
13.3091	0.761
13.3489	0.746
13.3887	0.725
13.4285	0.678
13.4683	0.621
13.5081	0.569
13.5479	0.561
13.5877	0.602
13.6274	0.649
13.6672	0.676
13.707	0.689
13.7468	0.693
13.7866	0.696
13.8264	0.698
13.8662	0.701
13.906	0.702
13.9458	0.707
13.9856	0.715
14.0254	0.717
14.0652	0.72
14.105	0.719
14.1448	0.715
14.1846	0.717
14.2244	0.711
14.2642	0.709
14.304	0.711
14.3438	0.707
14.3836	0.702
14.4234	0.699
14.4632	0.699
14.503	0.699
14.5428	0.701
14.5826	0.698
14.6224	0.688
14.6621	0.688
14.7019	0.689
14.7417	0.683
14.7815	0.676
14.8213	0.672
14.8611	0.667
14.9009	0.662
14.9407	0.662
14.9805	0.659
15.0203	0.647
15.0601	0.644
15.0999	0.639
15.1397	0.637
15.1795	0.629
15.2193	0.623
15.2591	0.62
15.2989	0.612
15.3387	0.603
15.3785	0.602
15.4183	0.594
15.4581	0.592
