Infrared Spectrum: Trimethyl Phosphate
Formula: C 3 H 9 O 4 P
CAS: 512-56-1
State: liquid
Instrument: Bruker Vertex 70 FTIR
Resolution: 0.48217186
Origin: Pacific Northwest National Laboratory Under IARPA Contract
1/cm	dispersion index
7799.05	1.38447
7780.25	1.38448
7761.44	1.38448
7742.64	1.38447
7723.83	1.38446
7705.03	1.38446
7686.22	1.38445
7667.42	1.38444
7648.61	1.38443
7629.81	1.38442
7611	1.38442
7592.2	1.38441
7573.4	1.3844
7554.59	1.38439
7535.79	1.38438
7516.98	1.38437
7498.18	1.38436
7479.37	1.38435
7460.57	1.38434
7441.76	1.38434
7422.96	1.38433
7404.15	1.38432
7385.35	1.38431
7366.54	1.3843
7347.74	1.38429
7328.93	1.38429
7310.13	1.38428
7291.32	1.38427
7272.52	1.38426
7253.72	1.38425
7234.91	1.38424
7216.11	1.38423
7197.3	1.38423
7178.5	1.38422
7159.69	1.38421
7140.89	1.3842
7122.08	1.38419
7103.28	1.38418
7084.47	1.38417
7065.67	1.38416
7046.86	1.38415
7028.06	1.38414
7009.25	1.38413
6990.45	1.38412
6971.64	1.38411
6952.84	1.3841
6934.04	1.38409
6915.23	1.38408
6896.43	1.38407
6877.62	1.38406
6858.82	1.38405
6840.01	1.38404
6821.21	1.38402
6802.4	1.38401
6783.6	1.384
6764.79	1.38399
6745.99	1.38398
6727.18	1.38396
6708.38	1.38395
6689.57	1.38394
6670.77	1.38393
6651.96	1.38391
6633.16	1.3839
6614.36	1.38389
6595.55	1.38387
6576.75	1.38386
6557.94	1.38385
6539.14	1.38383
6520.33	1.38382
6501.53	1.3838
6482.72	1.38379
6463.92	1.38378
6445.11	1.38376
6426.31	1.38375
6407.5	1.38373
6388.7	1.38372
6369.89	1.3837
6351.09	1.38369
6332.28	1.38367
6313.48	1.38366
6294.68	1.38364
6275.87	1.38362
6257.07	1.38361
6238.26	1.38359
6219.46	1.38357
6200.65	1.38355
6181.85	1.38354
6163.04	1.38352
6144.24	1.3835
6125.43	1.38348
6106.63	1.38346
6087.82	1.38344
6069.02	1.38342
6050.21	1.3834
6031.41	1.38338
6012.6	1.38337
5993.8	1.38336
5975	1.38336
5956.19	1.38336
5937.39	1.38334
5918.58	1.38332
5899.78	1.38331
5880.97	1.38329
5862.17	1.38327
5843.36	1.38325
5824.56	1.38324
5805.75	1.38324
5786.95	1.38323
5768.14	1.38321
5749.34	1.38319
5730.53	1.38316
5711.73	1.38314
5692.92	1.38311
5674.12	1.38309
5655.32	1.38306
5636.51	1.38304
5617.71	1.38303
5598.9	1.38301
5580.1	1.38298
5561.29	1.38296
5542.49	1.38293
5523.68	1.3829
5504.88	1.38288
5486.07	1.38286
5467.27	1.38283
5448.46	1.3828
5429.66	1.38278
5410.85	1.38275
5392.05	1.38272
5373.24	1.3827
5354.44	1.38268
5335.64	1.38265
5316.83	1.38262
5298.03	1.38259
5279.22	1.38256
5260.42	1.38253
5241.61	1.3825
5222.81	1.38247
5204	1.38244
5185.2	1.38241
5166.39	1.38239
5147.59	1.38235
5128.78	1.38232
5109.98	1.38229
5091.17	1.38225
5072.37	1.38222
5053.57	1.38218
5034.76	1.38215
5015.96	1.38211
4997.15	1.38207
4978.35	1.38203
4959.54	1.38199
4940.74	1.38196
4921.93	1.38192
4903.13	1.38187
4884.32	1.38183
4865.52	1.38179
4846.71	1.38174
4827.91	1.38169
4809.1	1.38164
4790.3	1.38159
4771.49	1.38154
4752.69	1.38149
4733.89	1.38145
4715.08	1.3814
4696.28	1.38132
4677.47	1.38125
4658.67	1.3812
4639.86	1.38113
4621.06	1.38105
4602.25	1.38096
4583.45	1.38087
4564.64	1.38075
4545.84	1.38064
4527.03	1.38051
4508.23	1.38034
4489.42	1.3802
4470.62	1.38026
4451.81	1.38076
4433.01	1.38134
4414.21	1.38148
4395.4	1.38144
4376.6	1.38122
4357.79	1.38105
4338.99	1.38088
4320.18	1.38073
4301.38	1.3807
4282.57	1.38069
4263.77	1.38053
4244.96	1.38037
4226.16	1.3802
4207.35	1.38019
4188.55	1.3804
4169.74	1.38043
4150.94	1.38041
4132.13	1.38025
4113.33	1.38008
4094.53	1.37999
4075.72	1.37999
4056.92	1.3801
4038.11	1.38022
4019.31	1.3802
4000.5	1.3802
3981.7	1.38022
3962.89	1.38005
3944.09	1.37989
3925.28	1.37976
3906.48	1.37965
3887.67	1.37961
3868.87	1.37954
3850.06	1.37932
3831.26	1.37918
3812.45	1.37908
3793.65	1.37894
3774.85	1.37884
3756.04	1.37876
3737.24	1.37857
3718.43	1.37841
3699.63	1.37826
3680.82	1.37811
3662.02	1.37791
3643.21	1.37775
3624.41	1.37761
3605.6	1.3774
3586.8	1.3772
3567.99	1.37708
3549.19	1.37714
3530.38	1.37721
3511.58	1.37706
3492.77	1.37691
3473.97	1.37691
3455.17	1.37679
3436.36	1.37658
3417.56	1.37632
3398.75	1.37607
3379.95	1.37579
3361.14	1.37551
3342.34	1.37522
3323.53	1.37494
3304.73	1.3746
3285.92	1.37422
3267.12	1.37385
3248.31	1.37347
3229.51	1.37302
3210.7	1.37251
3191.9	1.37192
3173.09	1.37127
3154.29	1.37053
3135.49	1.36971
3116.68	1.3688
3097.88	1.36775
3079.07	1.36642
3060.27	1.36436
3041.46	1.36067
3022.66	1.36156
3003.85	1.36673
2985.05	1.36732
2966.24	1.35845
2947.44	1.39878
2928.63	1.3882
2909.83	1.386
2891.02	1.38309
2872.22	1.37652
2853.41	1.39511
2834.61	1.39048
2815.81	1.38588
2797	1.38358
2778.2	1.38202
2759.39	1.38083
2740.59	1.3799
2721.78	1.37912
2702.98	1.37837
2684.17	1.37764
2665.37	1.37693
2646.56	1.3765
2627.76	1.37639
2608.95	1.37622
2590.15	1.37573
2571.34	1.37513
2552.54	1.37487
2533.73	1.37458
2514.93	1.37424
2496.13	1.37377
2477.32	1.3733
2458.52	1.37289
2439.71	1.37241
2420.91	1.37192
2402.1	1.37144
2383.3	1.37099
2364.49	1.37043
2345.69	1.37
2326.88	1.36938
2308.08	1.36896
2289.27	1.36884
2270.47	1.36828
2251.66	1.36769
2232.86	1.3671
2214.05	1.36648
2195.25	1.36586
2176.45	1.3653
2157.64	1.36449
2138.84	1.36374
2120.03	1.36326
2101.23	1.36275
2082.42	1.36202
2063.62	1.36122
2044.81	1.36039
2026.01	1.36007
2007.2	1.35971
1988.4	1.35812
1969.59	1.35638
1950.79	1.35417
1931.98	1.35343
1913.18	1.35473
1894.38	1.35547
1875.57	1.3569
1856.77	1.35517
1837.96	1.35245
1819.16	1.34985
1800.35	1.3479
1781.55	1.34857
1762.74	1.34921
1743.94	1.34706
1725.13	1.34399
1706.33	1.34151
1687.52	1.33938
1668.72	1.3368
1649.91	1.33379
1631.11	1.33059
1612.3	1.32699
1593.5	1.32402
1574.7	1.32128
1555.89	1.3175
1537.09	1.31217
1518.28	1.3055
1499.48	1.29433
1480.67	1.27809
1461.87	1.30339
1443.06	1.34416
1424.26	1.32258
1405.45	1.30469
1386.65	1.28857
1367.84	1.27308
1349.04	1.25062
1330.23	1.21608
1311.43	1.14492
1292.62	0.968782
1273.82	1.44528
1255.02	1.47925
1236.21	1.36711
1217.41	1.30184
1198.6	1.24122
1179.8	1.36461
1160.99	1.31822
1142.19	1.26138
1123.38	1.19692
1104.58	1.10628
1085.77	0.94832
1066.97	0.803717
1048.16	1.21173
1029.36	1.99732
1010.55	1.99525
991.749	1.74133
972.945	1.62857
954.14	1.56222
935.335	1.51157
916.53	1.46364
897.726	1.40697
878.921	1.3078
860.116	1.04957
841.312	1.81744
822.507	1.74719
803.702	1.61991
784.898	1.56189
766.093	1.50985
747.288	1.56052
728.483	1.57354
709.679	1.53313
690.874	1.51299
672.069	1.49763
653.265	1.48532
634.46	1.47352
615.655	1.46193
596.851	1.44949
578.046	1.43272
559.241	1.40571
540.436	1.34372
521.632	1.40839
502.827	1.45552
484.022	1.49539
465.218	1.40595
446.413	1.58166
427.608	1.58414
408.804	1.55301
