Infrared Spectrum: 2,4-Dinitrophenol
Formula: C6 H4 N2 O5
CAS: 51-28-5
State: SOLUTION, SATURATED (CCl4 FOR 3800-1330, CS2 FOR 1330-400 CM^-^1)
Class: COBLENTZ III
Instrument: DOW KBr FOREPRISM-GRATING
Instrument parameters: BLAZED AT 3.5, 12.0, 20.0 MICRON AND CHANGED AT 5.0, 7.5, 14.9 MICRON
Sampling: TRANSMISSION
Path length: 0.05 CM, 0.05 CM
Resolution: 2
Origin: DOW CHEMICAL COMPANY
1/CM	TRANSMITTANCE
3814	0.9099
3805	0.9116
3796	0.9109
3787	0.911
3778	0.9093
3769	0.9076
3760	0.9058
3751	0.9084
3742	0.9153
3733	0.9127
3724	0.9137
3715	0.9124
3706	0.916
3697	0.9169
3688	0.9166
3679	0.9153
3670	0.9193
3661	0.9159
3652	0.9154
3643	0.9146
3634	0.9132
3625	0.9146
3616	0.9126
3607	0.9102
3598	0.9061
3589	0.9054
3580	0.9027
3571	0.8957
3562	0.8919
3553	0.8888
3544	0.8869
3535	0.8855
3526	0.8806
3517	0.8793
3508	0.8782
3499	0.8776
3490	0.8772
3481	0.8779
3472	0.8798
3463	0.8826
3454	0.8858
3445	0.8888
3436	0.8908
3427	0.8825
3418	0.8783
3409	0.8784
3400	0.8787
3391	0.8766
3382	0.8732
3373	0.8701
3364	0.8655
3355	0.8596
3346	0.8527
3337	0.8484
3328	0.8341
3319	0.8206
3310	0.8069
3301	0.7831
3292	0.7579
3283	0.7299
3274	0.6933
3265	0.6515
3256	0.6235
3247	0.5935
3238	0.5636
3229	0.5419
3220	0.536
3211	0.5682
3202	0.608
3193	0.6312
3184	0.6491
3175	0.6732
3166	0.7055
3157	0.7546
3148	0.7673
3139	0.7722
3130	0.7308
3121	0.7258
3112	0.6052
3103	0.608
3094	0.7854
3085	0.8232
3076	0.8575
3067	0.8739
3058	0.8871
3049	0.8939
3040	0.9173
3031	0.9043
3022	0.8967
3013	0.9005
3004	0.9014
2995	0.8958
2986	0.8935
2977	0.894
2968	0.8988
2959	0.9023
2950	0.9027
2941	0.9015
2932	0.9012
2923	0.9021
2914	0.8996
2905	0.8877
2896	0.8831
2887	0.8707
2878	0.8562
2869	0.8707
2860	0.8921
2851	0.8989
2842	0.9053
2833	0.8994
2824	0.8971
2815	0.8998
2806	0.9067
2797	0.9098
2788	0.9097
2779	0.9153
2770	0.9154
2761	0.9098
2752	0.8999
2743	0.8986
2734	0.9049
2725	0.9114
2716	0.9169
2707	0.9185
2698	0.9179
2689	0.9169
2680	0.9158
2671	0.9142
2662	0.913
2653	0.9165
2644	0.9144
2635	0.9158
2626	0.92
2617	0.9187
2608	0.9136
2599	0.9137
2590	0.9178
2581	0.9233
2572	0.9273
2563	0.9297
2554	0.9316
2545	0.9298
2536	0.9311
2527	0.9347
2518	0.9394
2509	0.942
2500	0.9376
2491	0.9339
2482	0.9304
2473	0.9326
2464	0.9325
2455	0.9313
2446	0.9356
2437	0.9367
2428	0.9381
2419	0.9373
2410	0.9337
2401	0.9308
2392	0.9283
2383	0.9324
2374	0.9413
2365	0.9299
2356	0.9261
2347	0.9155
2338	0.9073
2329	0.9101
2320	0.91
2311	0.8995
2302	0.8951
2293	0.9088
2284	0.9214
2275	0.9265
2266	0.9345
2257	0.9444
2248	0.9504
2239	0.9558
2230	0.958
2221	0.9565
2212	0.9546
2203	0.9545
2194	0.9565
2185	0.9566
2176	0.963
2167	0.9606
2158	0.96
2149	0.9596
2140	0.9597
2131	0.9602
2122	0.9581
2113	0.9644
2104	0.964
2095	0.962
2086	0.9604
2077	0.9511
2068	0.9502
2059	0.9501
2050	0.9533
2041	0.9549
2032	0.9684
2023	0.9459
2014	0.9426
2005	0.9322
1996	0.871
1987	0.9028
1978	0.9022
1969	0.9018
1960	0.8967
1951	0.8916
1942	0.8882
1933	0.9072
1924	0.9181
1915	0.9153
1906	0.9141
1897	0.9116
1888	0.9091
1879	0.9102
1870	0.9043
1861	0.896
1852	0.8894
1843	0.887
1834	0.8619
1825	0.8831
1816	0.8995
1807	0.894
1798	0.9005
1789	0.911
1780	0.9127
1771	0.9097
1762	0.9089
1753	0.9128
1744	0.9178
1735	0.9125
1726	0.9135
1717	0.9111
1708	0.9071
1699	0.9017
1690	0.8783
1681	0.8744
1672	0.8886
1663	0.8726
1654	0.8347
1645	0.7719
1636	0.4653
1627	0.014
1618	0.3006
1609	0.175
1600	-0.0036
1591	0.1878
1582	0.1933
1573	0.123
1564	0.0239
1555	-0.0036
1546	-0.0036
1537	-0.0036
1528	0.1234
1519	0.2024
1510	0.3051
1501	0.389
1492	0.4641
1483	0.1853
1474	0.442
1465	0.5351
1456	0.4738
1447	0.0987
1438	0.1385
1429	0.4789
1420	0.6668
1411	0.7192
1402	0.7492
1393	0.75
1384	0.7277
1375	0.6456
1366	0.4592
1357	0.2779
1348	0.0389
1339	0.0803
1330	-0.0036
1321	0.2529
1312	0.6071
1303	0.6818
1294	0.6741
1285	0.5843
1276	0.3993
1267	0.0071
1258	0.3974
1249	0.7084
1240	0.7667
1231	0.7786
1222	0.7698
1213	0.7459
1204	0.5872
1195	0.1621
1186	0.4582
1177	0.7312
1168	0.8017
1159	0.8384
1150	0.8184
1141	0.1129
1132	0.6364
1123	0.7795
1114	0.67
1105	0.6106
1096	0.8252
1087	0.8611
1078	0.866
1069	0.8097
1060	0.4378
1051	0.7736
1042	0.8338
1033	0.8556
1024	0.8708
1015	0.8777
1006	0.8733
997	0.865
988	0.8725
979	0.8777
970	0.8731
961	0.8759
952	0.8795
943	0.8801
934	0.8739
925	0.8366
916	0.3054
907	0.7812
898	0.8095
889	0.7789
880	0.6498
871	0.5274
862	0.4442
853	0.3868
844	0.4668
835	0.3115
826	0.7535
817	0.7658
808	0.7949
799	0.8158
790	0.8093
781	0.8031
772	0.7989
763	0.5089
754	0.7645
745	0.1739
736	0.6453
727	0.7108
718	0.6163
709	0.2389
700	0.4112
691	0.3925
682	0.3994
673	0.3846
664	0.5459
655	0.558
646	0.6137
637	0.3205
628	0.7363
619	0.7801
610	0.8003
601	0.817
592	0.8289
583	0.8384
574	0.7138
565	0.8086
556	0.837
547	0.8396
538	0.8344
529	0.7844
520	0.7081
511	0.721
502	0.7652
493	0.7758
484	0.7791
475	0.7769
466	0.7556
457	0.7182
448	0.6719
439	0.6237
430	0.5514
421	0.4643
412	0.3546
403	0.2676
394	0.2188
385	0.1645
