Infrared Spectrum: 2,4-Dinitrophenol
Formula: C 6 H 4 N 2 O 5
CAS: 51-28-5
State: solid
Instrument: Bruker Tensor 37 FTIR
Resolution: 0.96450084
Origin: Pacific Northwest National Laboratory Under IARPA Contract
1/cm	Reflectance
7498.99	0.417706
7481.63	0.404394
7464.27	0.393782
7446.91	0.384031
7429.55	0.379746
7412.19	0.373348
7394.84	0.36492
7377.48	0.347715
7360.12	0.311805
7342.76	0.276854
7325.4	0.244584
7308.04	0.222072
7290.68	0.20696
7273.32	0.196362
7255.96	0.190927
7238.6	0.187856
7221.24	0.183943
7203.88	0.183754
7186.52	0.182762
7169.16	0.182636
7151.8	0.184167
7134.44	0.18712
7117.08	0.191299
7099.72	0.195267
7082.36	0.198645
7065	0.202785
7047.64	0.204978
7030.28	0.20891
7012.92	0.21287
6995.56	0.21612
6978.2	0.218451
6960.84	0.220967
6943.48	0.222637
6926.12	0.227181
6908.76	0.231639
6891.4	0.238239
6874.04	0.241891
6856.68	0.247336
6839.32	0.24953
6821.96	0.239409
6804.6	0.19154
6787.24	0.15802
6769.88	0.22265
6752.52	0.25287
6735.16	0.26476
6717.8	0.28028
6700.44	0.282964
6683.08	0.287371
6665.72	0.285879
6648.36	0.284449
6631	0.28618
6613.64	0.283477
6596.28	0.278279
6578.92	0.275265
6561.56	0.270539
6544.2	0.270394
6526.85	0.26939
6509.49	0.270581
6492.13	0.271804
6474.77	0.269958
6457.41	0.264224
6440.05	0.24787
6422.69	0.21589
6405.33	0.16959
6387.97	0.13626
6370.61	0.12195
6353.25	0.1168
6335.89	0.11607
6318.53	0.11666
6301.17	0.11993
6283.81	0.12317
6266.45	0.12863
6249.09	0.13365
6231.73	0.13705
6214.37	0.13729
6197.01	0.13116
6179.65	0.12522
6162.29	0.12216
6144.93	0.12763
6127.57	0.12829
6110.21	0.11721
6092.85	0.11758
6075.49	0.10978
6058.13	0.11309
6040.77	0.11353
6023.41	0.10093
6006.05	0.10019
5988.69	0.09628
5971.33	0.08649
5953.97	0.08978
5936.61	0.08651
5919.25	0.09763
5901.89	0.11524
5884.53	0.11745
5867.17	0.11636
5849.81	0.09612
5832.45	0.11241
5815.09	0.11739
5797.73	0.11582
5780.37	0.10396
5763.01	0.08783
5745.65	0.08863
5728.29	0.09581
5710.93	0.10054
5693.57	0.10525
5676.21	0.09946
5658.86	0.10264
5641.5	0.10152
5624.14	0.09471
5606.78	0.08669
5589.42	0.08413
5572.06	0.07665
5554.7	0.07357
5537.34	0.07096
5519.98	0.0721
5502.62	0.07448
5485.26	0.0729
5467.9	0.07064
5450.54	0.06857
5433.18	0.06485
5415.82	0.06161
5398.46	0.05917
5381.1	0.06138
5363.74	0.06227
5346.38	0.06451
5329.02	0.06407
5311.66	0.06052
5294.3	0.06195
5276.94	0.06305
5259.58	0.06516
5242.22	0.06466
5224.86	0.06276
5207.5	0.06479
5190.14	0.06358
5172.78	0.0652
5155.42	0.06571
5138.06	0.06711
5120.7	0.06395
5103.34	0.06946
5085.98	0.07031
5068.62	0.06711
5051.26	0.06838
5033.9	0.06976
5016.54	0.06988
4999.18	0.06984
4981.82	0.06695
4964.46	0.07109
4947.1	0.07103
4929.74	0.07264
4912.38	0.07036
4895.02	0.0704
4877.66	0.07036
4860.3	0.07301
4842.94	0.06866
4825.58	0.06784
4808.22	0.07032
4790.86	0.06856
4773.51	0.06943
4756.15	0.07103
4738.79	0.06643
4721.43	0.06763
4704.07	0.06904
4686.71	0.06879
4669.35	0.06121
4651.99	0.06348
4634.63	0.05752
4617.27	0.05409
4599.91	0.04586
4582.55	0.03927
4565.19	0.05547
4547.83	0.12446
4530.47	0.04413
4513.11	0.07333
4495.75	0.05373
4478.39	0.04502
4461.03	0.06487
4443.67	0.04041
4426.31	0.18133
4408.95	0.08424
4391.59	0.05405
4374.23	0.09028
4356.87	0.0556
4339.51	0.08729
4322.15	0.0742
4304.79	0.08615
4287.43	0.07274
4270.07	0.07743
4252.71	0.07513
4235.35	0.07853
4217.99	0.07104
4200.63	0.07911
4183.27	0.06255
4165.91	0.07841
4148.55	0.07568
4131.19	0.06561
4113.83	0.0586
4096.47	0.05741
4079.11	0.07277
4061.75	0.08171
4044.39	0.41765
4027.03	0.403312
4009.67	0.396838
3992.31	0.38753
3974.95	0.37912
3957.59	0.37529
3940.23	0.365759
3922.87	0.342242
3905.52	0.308568
3888.16	0.275364
3870.8	0.242619
3853.44	0.220652
3836.08	0.207595
3818.72	0.199103
3801.36	0.192821
3784	0.190346
3766.64	0.188947
3749.28	0.185875
3731.92	0.185813
3714.56	0.18719
3697.2	0.187494
3679.84	0.192193
3662.48	0.19634
3645.12	0.200132
3627.76	0.202688
3610.4	0.206723
3593.04	0.210159
3575.68	0.215254
3558.32	0.216258
3540.96	0.219794
3523.6	0.222736
3506.24	0.225413
3488.88	0.225788
3471.52	0.231673
3454.16	0.237446
3436.8	0.23986
3419.44	0.245793
3402.08	0.249789
3384.72	0.250987
3367.36	0.232794
3350	0.176405
3332.64	0.163964
3315.28	0.233911
3297.92	0.257768
3280.56	0.272407
3263.2	0.28245
3245.84	0.286428
3228.48	0.290147
3211.12	0.286681
3193.76	0.288484
3176.4	0.288559
3159.04	0.284459
3141.68	0.280673
3124.32	0.277204
3106.96	0.272679
3089.6	0.273902
3072.24	0.273426
3054.88	0.274629
3037.53	0.274546
3020.17	0.272726
3002.81	0.26463
2985.45	0.243209
2968.09	0.206555
2950.73	0.159479
2933.37	0.129835
2916.01	0.121306
2898.65	0.118077
2881.29	0.116083
2863.93	0.118738
2846.57	0.122386
2829.21	0.125714
2811.85	0.131169
2794.49	0.13615
2777.13	0.13864
2759.77	0.136381
2742.41	0.127213
2725.05	0.128282
2707.69	0.120579
2690.33	0.128634
2672.97	0.123444
2655.61	0.113019
2638.25	0.115355
2620.89	0.10838
2603.53	0.110981
2586.17	0.108986
2568.81	0.0959164
2551.45	0.100049
2534.09	0.092357
2516.73	0.0843126
2499.37	0.0888638
2482.01	0.087883
2464.65	0.101977
2447.29	0.11821
2429.93	0.115366
2412.57	0.112094
2395.21	0.105746
2377.85	0.106198
2360.49	0.117923
2343.13	0.110496
2325.77	0.0985722
2308.41	0.0831775
2291.05	0.0899767
2273.69	0.0980653
2256.33	0.0963793
2238.97	0.104666
2221.61	0.0988697
2204.25	0.101724
2186.89	0.100379
2169.53	0.0938778
2152.18	0.08677
2134.82	0.081778
2117.46	0.0748355
2100.1	0.0731054
2082.74	0.0694138
2065.38	0.0727418
2048.02	0.0737335
2030.66	0.0718602
2013.3	0.0701301
1995.94	0.0670996
1978.58	0.0638708
1961.22	0.0604988
1943.86	0.0588678
1926.5	0.0613142
1909.14	0.0630774
1891.78	0.0640802
1874.42	0.0627688
1857.06	0.0590001
1839.7	0.0598155
1822.34	0.0636835
1804.98	0.0647965
1787.62	0.0633198
1770.26	0.0643998
1752.9	0.063992
1735.54	0.0632207
1718.18	0.0663723
1700.82	0.065645
1683.46	0.0662511
1666.1	0.0654687
1648.74	0.0711549
1631.38	0.0670115
1614.02	0.0676727
1596.66	0.0662952
1579.3	0.0710337
1561.94	0.0694799
1544.58	0.0686865
1527.22	0.067309
1509.86	0.0697334
1492.5	0.0720585
1475.14	0.0734581
1457.78	0.0711439
1440.42	0.0683228
1423.06	0.0740531
1405.7	0.0710337
1388.34	0.0703835
1370.98	0.0713092
1353.62	0.0712872
1336.26	0.0675735
1318.9	0.0693477
1301.54	0.0706811
1284.19	0.0657001
1266.83	0.0708243
1249.47	0.0687636
1232.11	0.0681024
1214.75	0.0543277
1197.39	0.0635512
1180.03	0.0598266
1162.67	0.053975
1145.31	0.045611
1127.95	0.037291
1110.59	0.0474623
1093.23	0.0746482
1075.87	0.0383159
1058.51	0.068951
1041.15	0.0597494
1023.79	0.0386134
1006.43	0.0578981
989.068	0.0356932
971.709	0.147809
954.349	0.073998
936.989	0.0457763
919.629	0.0724112
902.269	0.051716
884.91	0.0763893
867.55	0.105779
850.19	0.0849848
832.83	0.0768301
815.47	0.0821527
798.111	0.077315
780.751	0.0817339
763.391	0.0607302
746.031	0.0788137
728.671	0.0505589
711.312	0.0729732
693.952	0.0759926
676.592	0.0522008
659.232	0.0570826
641.872	0.0795189
624.513	0.065083
607.153	0.083971
