Infrared Spectrum: 2,3-BUTANEDIOL
Formula: C4 H10 O2
CAS: 513-85-9
State: LIQUID (NEAT)
Class: COBLENTZ III
Instrument: DOW KBr FOREPRISM-GRATING
Instrument parameters: BLAZED AT 3.5, 12.0, 20.0 MICRON, CHANGED AT 5.0, 7.5, 14.9 MICRON
Sampling: TRANSMISSION
Path length: CAPILLARY
Resolution: 4
Origin: DOW CHEMICAL COMPANY
1/CM	TRANSMITTANCE
379.861	0.647
388.567	0.643
397.273	0.64
405.978	0.636
414.684	0.628
423.39	0.604
432.096	0.553
440.801	0.522
449.507	0.551
458.213	0.578
466.919	0.579
475.624	0.579
484.33	0.578
493.036	0.559
501.742	0.531
510.447	0.506
519.153	0.461
527.859	0.447
536.565	0.476
545.27	0.463
553.976	0.47
562.682	0.468
571.388	0.458
580.093	0.45
588.799	0.447
597.505	0.434
606.211	0.428
614.916	0.417
623.622	0.41
632.328	0.385
641.034	0.352
649.739	0.364
658.445	0.391
667.151	0.406
675.857	0.425
684.562	0.442
693.268	0.462
701.974	0.48
710.68	0.496
719.385	0.517
728.091	0.54
736.797	0.568
745.503	0.597
754.208	0.62
762.914	0.625
771.62	0.564
780.326	0.575
789.031	0.699
797.737	0.749
806.443	0.783
815.149	0.764
823.854	0.824
832.56	0.855
841.266	0.873
849.972	0.893
858.677	0.892
867.383	0.865
876.089	0.702
884.795	0.187
893.5	0.227
902.206	0.756
910.912	0.832
919.618	0.711
928.323	0.325
937.029	0.56
945.735	0.847
954.441	0.891
963.146	0.829
971.852	0.723
980.558	0.627
989.264	0.205
997.969	0.22
1006.68	0.155
1015.38	0.427
1024.09	0.634
1032.79	0.545
1041.5	0.303
1050.2	0.103
1058.91	0.068
1067.62	0.095
1076.32	0.076
1085.03	0.076
1093.73	0.103
1102.44	0.159
1111.14	0.175
1119.85	0.161
1128.56	0.385
1137.26	0.578
1145.97	0.461
1154.67	0.357
1163.38	0.356
1172.08	0.56
1180.79	0.759
1189.5	0.809
1198.2	0.813
1206.91	0.795
1215.61	0.764
1224.32	0.715
1233.02	0.631
1241.73	0.514
1250.44	0.424
1259.14	0.359
1267.85	0.342
1276.55	0.342
1285.26	0.344
1293.96	0.349
1302.67	0.364
1311.38	0.402
1320.08	0.409
1328.79	0.394
1337.49	0.424
1346.2	0.439
1354.91	0.474
1363.61	0.398
1372.32	0.182
1381.02	0.213
1389.73	0.319
1398.43	0.315
1407.14	0.308
1415.85	0.319
1424.55	0.346
1433.26	0.379
1441.96	0.368
1450.67	0.277
1459.37	0.273
1468.08	0.395
1476.79	0.613
1485.49	0.746
1494.2	0.829
1502.9	0.87
1511.61	0.899
1520.31	0.914
1529.02	0.933
1537.73	0.945
1546.43	0.955
1555.14	0.96
1563.84	0.964
1572.55	0.965
1581.25	0.967
1589.96	0.961
1598.67	0.956
1607.37	0.938
1616.08	0.91
1624.78	0.878
1633.49	0.848
1642.19	0.827
1650.9	0.812
1659.61	0.817
1668.31	0.84
1677.02	0.873
1685.72	0.914
1694.43	0.945
1703.14	0.967
1711.84	0.98
1720.55	0.998
1729.25	1.013
1737.96	1.023
1746.66	1.027
1755.37	1.028
1764.08	1.029
1772.78	1.032
1781.49	1.04
1790.19	1.044
1798.9	1.046
1807.6	1.042
1816.31	1.04
1825.02	1.044
1833.72	1.048
1842.43	1.048
1851.13	1.046
1859.84	1.044
1868.54	1.04
1877.25	1.038
1885.96	1.039
1894.66	1.042
1903.37	1.044
1912.07	1.044
1920.78	1.042
1929.48	1.039
1938.19	1.039
1946.9	1.044
1955.6	1.047
1964.31	1.038
1973.01	1.031
1981.72	1.023
1990.42	1.02
1999.13	1.019
2007.84	1.019
2016.54	1.02
2025.25	1.02
2033.95	1.018
2042.66	1.013
2051.37	1.0135
2060.07	1.013
2068.78	1.013
2077.48	1.012
2086.19	1.01
2094.89	1.009
2103.6	1.008
2112.31	1.006
2121.01	1.0044
2129.72	1.002
2138.42	1.0014
2147.13	1
2155.83	0.998
2164.54	0.9992
2173.25	1.001
2181.95	1.0006
2190.66	1.001
2199.36	1.0033
2208.07	1.0056
2216.77	1.008
2225.48	1.006
2234.19	1.006
2242.89	1.008
2251.6	1.0093
2260.3	1.0067
2269.01	1.009
2277.71	1.0127
2286.42	1.014
2295.13	1.013
2303.83	1.01
2312.54	1.006
2321.24	1.0013
2329.95	0.9973
2338.65	0.9933
2347.36	0.9937
2356.07	0.9915
2364.77	0.982
2373.48	0.9852
2382.18	0.9898
2390.89	0.9902
2399.6	0.989
2408.3	0.987
2417.01	0.9862
2425.71	0.986
2434.42	0.9862
2443.12	0.986
2451.83	0.9822
2460.54	0.9782
2469.24	0.972
2477.95	0.9642
2486.65	0.963
2495.36	0.9573
2504.06	0.955
2512.77	0.9463
2521.48	0.9385
2530.18	0.9343
2538.89	0.9301
2547.59	0.919
2556.3	0.9141
2565	0.912
2573.71	0.911
2582.42	0.91
2591.12	0.9082
2599.83	0.9033
2608.53	0.8932
2617.24	0.8841
2625.94	0.8721
2634.65	0.8592
2643.36	0.8541
2652.06	0.8472
2660.77	0.8401
2669.47	0.832
2678.18	0.824
2686.89	0.8141
2695.59	0.805
2704.3	0.7941
2713	0.7861
2721.71	0.78
2730.41	0.78
2739.12	0.78
2747.83	0.78
2756.53	0.776
2765.24	0.77
2773.94	0.757
2782.65	0.742
2791.35	0.7289
2800.06	0.7079
2808.77	0.6798
2817.47	0.6467
2826.18	0.6134
2834.88	0.5706
2843.59	0.5331
2852.29	0.4769
2861	0.404
2869.71	0.3238
2878.41	0.2302
2887.12	0.2089
2895.82	0.2081
2904.53	0.2192
2913.23	0.2422
2921.94	0.2458
2930.65	0.2389
2939.35	0.244
2948.06	0.3421
2956.76	0.4239
2965.47	0.2459
2974.17	0.0741
2982.88	0.0769
2991.59	0.1408
3000.29	0.3418
3009	0.5758
3017.7	0.6484
3026.41	0.6704
3035.12	0.6684
3043.82	0.6548
3052.53	0.6398
3061.23	0.618
3069.94	0.6003
3078.64	0.5685
3087.35	0.5391
3096.06	0.5124
3104.76	0.4806
3113.47	0.4553
3122.17	0.4101
3130.88	0.3737
3139.58	0.3445
3148.29	0.3137
3157	0.2791
3165.7	0.2443
3174.41	0.2063
3183.11	0.1831
3191.82	0.1551
3200.52	0.1306
3209.23	0.1034
3217.94	0.0911
3226.64	0.0777
3235.35	0.0644
3244.05	0.0564
3252.76	0.0467
3261.46	0.0387
3270.17	0.0333
3278.88	0.0277
3287.58	0.024
3296.29	0.0206
3304.99	0.02
3313.7	0.0183
3322.4	0.0166
3331.11	0.0152
3339.82	0.013
3348.52	0.013
3357.23	0.012
3365.93	0.012
3374.64	0.01
3383.35	0.01
3392.05	0.01
3400.76	0.012
3409.46	0.014
3418.17	0.016
3426.87	0.017
3435.58	0.021
3444.29	0.0235
3452.99	0.028
3461.7	0.0315
3470.4	0.0364
3479.11	0.043
3487.81	0.0505
3496.52	0.062
3505.23	0.0785
3513.93	0.093
3522.64	0.1176
3531.34	0.1506
3540.05	0.1742
3548.75	0.2092
3557.46	0.2573
3566.17	0.2924
3574.87	0.3395
3583.58	0.3978
3592.28	0.4687
3600.99	0.5229
3609.69	0.599
3618.4	0.6545
3627.11	0.7086
3635.81	0.7493
3644.52	0.7906
3653.22	0.8274
3661.93	0.8524
3670.63	0.8715
3679.34	0.8835
3688.05	0.9049
3696.75	0.9283
3705.46	0.9473
3714.16	0.9566
3722.87	0.961
3731.58	0.9623
3740.28	0.961
3748.99	0.9647
3757.69	0.964
3766.4	0.967
3775.1	0.968
3783.81	0.9703
3792.52	0.97
