Infrared Spectrum: 5-DECANOL
Formula: C10 H22 O
CAS: 5205-34-5
State: LIQUID (NEAT)
Class: COBLENTZ II
Instrument: PERKIN-ELMER 621 (GRATING)
Instrument parameters: GRATING CHANGE AT 623; ORDER CHANGE AT 2000. FILTERS AT 3146, 2494, 2000, 1146, 698, 497 CM^-^1
Sampling: TRANSMISSION
Path length: 0.0015 CM (CsBr WINDOWS VS. CsBr WINDOW; DEMOUNTABLE WINDOWS)
Resolution: 2
Origin: PERKIN-ELMER CORP. (R. HANNAH)
1/CM	TRANSMITTANCE
3998	0.8914
3988	0.8913
3978	0.8913
3968	0.8913
3958	0.8912
3948	0.8912
3938	0.8912
3928	0.8911
3918	0.8911
3908	0.8911
3898	0.891
3888	0.891
3878	0.891
3868	0.8909
3858	0.8909
3848	0.8909
3838	0.8912
3828	0.8915
3818	0.8918
3808	0.8921
3798	0.8923
3788	0.8927
3778	0.8932
3768	0.8937
3758	0.8942
3748	0.8947
3738	0.8952
3728	0.8955
3718	0.8951
3708	0.8946
3698	0.8941
3688	0.8936
3678	0.8933
3668	0.8931
3658	0.8927
3648	0.8905
3638	0.8757
3628	0.8598
3618	0.8605
3608	0.8611
3598	0.8623
3588	0.8648
3578	0.8633
3568	0.8541
3558	0.8404
3548	0.8085
3538	0.7767
3528	0.7508
3518	0.7295
3508	0.7095
3498	0.688
3488	0.6612
3478	0.6162
3468	0.5862
3458	0.562
3448	0.5353
3438	0.499
3428	0.4824
3418	0.4658
3408	0.4531
3398	0.4412
3388	0.4292
3378	0.4184
3368	0.4098
3358	0.4032
3348	0.4021
3338	0.4044
3328	0.412
3318	0.4224
3308	0.4355
3298	0.4522
3288	0.4758
3278	0.5032
3268	0.5394
3258	0.576
3248	0.6048
3238	0.6422
3228	0.6793
3218	0.7104
3208	0.7288
3198	0.7448
3188	0.761
3178	0.7787
3168	0.7917
3158	0.8011
3148	0.8085
3138	0.8155
3128	0.8212
3118	0.825
3108	0.8283
3098	0.8299
3088	0.8312
3078	0.8325
3068	0.8335
3058	0.8332
3048	0.8317
3038	0.8275
3028	0.8158
3018	0.799
3008	0.7793
2998	0.7415
2988	0.6784
2978	0.5706
2968	0.3422
2958	0.0792
2948	0.0876
2938	0.1042
2928	0.0279
2918	0.0274
2908	0.1354
2898	0.2158
2888	0.2996
2878	0.3302
2868	0.191
2858	0.1507
2848	0.2212
2838	0.4366
2828	0.6338
2818	0.696
2808	0.7404
2798	0.7685
2788	0.7867
2778	0.8008
2768	0.8124
2758	0.8203
2748	0.8239
2738	0.8232
2728	0.8206
2718	0.8225
2708	0.8271
2698	0.8302
2688	0.8321
2678	0.8327
2668	0.8327
2658	0.8331
2648	0.8344
2638	0.8393
2628	0.8466
2618	0.8503
2608	0.8533
2598	0.8542
2588	0.8545
2578	0.8555
2568	0.8565
2558	0.8575
2548	0.8586
2538	0.8601
2528	0.8618
2518	0.8635
2508	0.8655
2498	0.8673
2488	0.8685
2478	0.8697
2468	0.8707
2458	0.8713
2448	0.8718
2438	0.8725
2428	0.8725
2418	0.8725
2408	0.8725
2398	0.8731
2388	0.874
2378	0.8748
2368	0.876
2358	0.8773
2348	0.8786
2338	0.8799
2328	0.8814
2318	0.8828
2308	0.8843
2298	0.8858
2288	0.8871
2278	0.8878
2268	0.8883
2258	0.8888
2248	0.8888
2238	0.8885
2228	0.8883
2218	0.888
2208	0.8878
2198	0.8875
2188	0.8871
2178	0.8864
2168	0.8857
2158	0.8851
2148	0.8848
2138	0.8845
2128	0.8842
2118	0.8839
2108	0.8839
2098	0.8841
2088	0.8846
2078	0.885
2068	0.8846
2058	0.8843
2048	0.8827
2038	0.8828
2028	0.8825
2018	0.8821
2008	0.8818
1998	0.8816
1988	0.8841
1978	0.8853
1968	0.8863
1958	0.8862
1948	0.8861
1938	0.8861
1928	0.8861
1918	0.8861
1908	0.8851
1898	0.8844
1888	0.8843
1878	0.8842
1868	0.8842
1858	0.8845
1848	0.8842
1838	0.884
1828	0.8846
1818	0.885
1808	0.8851
1798	0.8851
1788	0.8849
1778	0.8857
1768	0.8858
1758	0.8852
1748	0.8838
1738	0.8817
1728	0.881
1718	0.8767
1708	0.8717
1698	0.8715
1688	0.8715
1678	0.8717
1668	0.8718
1658	0.8714
1648	0.871
1638	0.8706
1628	0.871
1618	0.8693
1608	0.8686
1598	0.8686
1588	0.8688
1578	0.8682
1568	0.8674
1558	0.8661
1548	0.8653
1538	0.8642
1528	0.8599
1518	0.8528
1508	0.8441
1498	0.8347
1488	0.8224
1478	0.7607
1468	0.4054
1458	0.4499
1448	0.6155
1438	0.6654
1428	0.7058
1418	0.7086
1408	0.7078
1398	0.7251
1388	0.7341
1378	0.5765
1368	0.7161
1358	0.7365
1348	0.733
1338	0.7075
1328	0.7103
1318	0.7161
1308	0.7211
1298	0.7226
1288	0.7281
1278	0.7324
1268	0.7369
1258	0.7482
1248	0.7506
1238	0.7601
1228	0.7676
1218	0.7758
1208	0.7685
1198	0.7694
1188	0.7768
1178	0.8003
1168	0.8131
1158	0.7946
1148	0.7247
1138	0.6385
1128	0.6351
1118	0.644
1108	0.748
1098	0.7755
1088	0.7322
1078	0.6925
1068	0.699
1058	0.671
1048	0.6541
1038	0.6341
1028	0.5951
1018	0.5842
1008	0.6249
998	0.6751
988	0.7251
978	0.7628
968	0.7838
958	0.786
948	0.7558
938	0.7661
928	0.7686
918	0.8165
908	0.81
898	0.7564
888	0.7919
878	0.8068
868	0.8301
858	0.8344
848	0.8467
838	0.8496
828	0.8348
818	0.8427
808	0.8528
798	0.8454
788	0.8126
778	0.8275
768	0.8209
758	0.8186
748	0.8118
738	0.7761
728	0.7257
718	0.7839
708	0.8006
698	0.8021
688	0.7964
678	0.7898
668	0.7831
658	0.7765
648	0.7721
638	0.7701
628	0.7686
618	0.7707
608	0.7742
598	0.7785
588	0.7828
578	0.7865
568	0.789
558	0.7919
548	0.7956
538	0.7982
528	0.801
518	0.804
508	0.8081
498	0.8115
488	0.8168
478	0.8221
468	0.8251
458	0.827
448	0.8304
438	0.8357
428	0.8438
418	0.8531
408	0.8603
398	0.8621
388	0.8628
378	0.8634
368	0.8638
358	0.8642
348	0.8643
338	0.8643
328	0.8636
318	0.8628
