Infrared Spectrum: PHTHALIC ACID, DIBENZYL ESTER
Formula: C22 H18 O4
CAS: 523-31-9
State: SOLUTION (10% CCl4 FOR 2-7.5, 10% CS2 FOR 7.5-15.9 MICRON)
Class: COBLENTZ III
Instrument: BAIRD (PRISM)
Instrument parameters: NaCl PRISM
Sampling: TRANSMISSION
Path length: 0.013 CM, 0.012 CM
Resolution: 2
Origin: DOW CHEMICAL COMPANY
MICROMETERS	TRANSMITTANCE
2.005	0.86
2.04403	0.86
2.08305	0.86
2.12208	0.855
2.1611	0.863
2.20013	0.863
2.23915	0.862
2.27818	0.862
2.3172	0.866
2.35623	0.867
2.39525	0.865
2.43428	0.859
2.4733	0.871
2.51233	0.867
2.55135	0.873
2.59038	0.868
2.62941	0.871
2.66843	0.872
2.70746	0.867
2.74648	0.868
2.78551	0.865
2.82453	0.866
2.86356	0.846
2.90258	0.838
2.94161	0.866
2.98063	0.862
3.01966	0.87
3.05868	0.871
3.09771	0.866
3.13673	0.86
3.17576	0.833
3.21479	0.747
3.25381	0.637
3.29284	0.659
3.33186	0.763
3.37089	0.696
3.40991	0.806
3.44894	0.8
3.48796	0.855
3.52699	0.87
3.56601	0.878
3.60504	0.879
3.64406	0.878
3.68309	0.882
3.72212	0.883
3.76114	0.882
3.80017	0.879
3.83919	0.882
3.87822	0.881
3.91724	0.886
3.95627	0.882
3.99529	0.888
4.03432	0.89
4.07334	0.882
4.11237	0.881
4.15139	0.886
4.19042	0.871
4.22944	0.86
4.26847	0.855
4.3075	0.872
4.34652	0.873
4.38555	0.873
4.42457	0.878
4.4636	0.886
4.50262	0.889
4.54165	0.886
4.58067	0.892
4.6197	0.892
4.65872	0.888
4.69775	0.889
4.73677	0.883
4.7758	0.881
4.81482	0.881
4.85385	0.886
4.89288	0.887
4.9319	0.876
4.97093	0.879
5.00995	0.867
5.04898	0.841
5.088	0.821
5.12703	0.829
5.16605	0.871
5.20508	0.867
5.2441	0.86
5.28313	0.829
5.32215	0.819
5.36118	0.835
5.4002	0.825
5.43923	0.822
5.47826	0.8
5.51728	0.774
5.55631	0.768
5.59533	0.7
5.63436	0.557
5.67338	0.35
5.71241	0.1
5.75143	0.029
5.79046	0.056
5.82948	0.389
5.86851	0.589
5.90753	0.678
5.94656	0.758
5.98558	0.784
6.02461	0.803
6.06364	0.808
6.10266	0.79
6.14169	0.74
6.18071	0.609
6.21974	0.533
6.25876	0.484
6.29779	0.449
6.33681	0.519
6.37584	0.475
6.41486	0.428
6.45389	0.463
6.49291	0.551
6.53194	0.583
6.57097	0.609
6.60999	0.537
6.64902	0.491
6.68804	0.676
6.72707	0.743
6.76609	0.649
6.80512	0.5
6.84414	0.443
6.88317	0.651
6.92219	0.779
6.96122	0.816
7.00024	0.823
7.03927	0.823
7.07829	0.813
7.11732	0.78
7.15635	0.702
7.19537	0.504
7.2344	0.377
7.27342	0.627
7.31245	0.752
7.35147	0.763
7.3905	0.747
7.42952	0.678
7.46855	0.639
7.50757	0.59
7.5466	0.511
7.58562	0.419
7.62465	0.27
7.66367	0.122
7.7027	0.024
7.74173	0.013
7.78075	0.013
7.81978	0.013
7.8588	0.012
7.89783	0.024
7.93685	0.049
7.97588	0.099
8.0149	0.21
8.05393	0.329
8.09295	0.43
8.13198	0.465
8.171	0.443
8.21003	0.444
8.24905	0.542
8.28808	0.591
8.32711	0.6
8.36613	0.601
8.40516	0.596
8.44418	0.59
8.48321	0.585
8.52223	0.562
8.56126	0.535
8.60028	0.537
8.63931	0.515
8.67833	0.443
8.71736	0.3
8.75638	0.12
8.79541	0.051
8.83443	0.03
8.87346	0.019
8.91249	0.018
8.95151	0.06
8.99054	0.181
9.02956	0.335
9.06859	0.454
9.10761	0.511
9.14664	0.514
9.18566	0.466
9.22469	0.311
9.26371	0.182
9.30274	0.09
9.34176	0.057
9.38079	0.14
9.41982	0.349
9.45884	0.5
9.49787	0.534
9.53689	0.47
9.57592	0.33
9.61494	0.4
9.65397	0.425
9.69299	0.388
9.73202	0.552
9.77104	0.585
9.81007	0.595
9.84909	0.598
9.88812	0.59
9.92714	0.572
9.96617	0.58
10.0052	0.591
10.0442	0.572
10.0832	0.551
10.1223	0.529
10.1613	0.518
10.2003	0.511
10.2393	0.5
10.2784	0.475
10.3174	0.448
10.3564	0.414
10.3954	0.404
10.4345	0.412
10.4735	0.437
10.5125	0.463
10.5515	0.479
10.5906	0.503
10.6296	0.55
10.6686	0.584
10.7077	0.601
10.7467	0.612
10.7857	0.613
10.8247	0.593
10.8638	0.552
10.9028	0.477
10.9418	0.416
10.9808	0.428
11.0199	0.501
11.0589	0.544
11.0979	0.552
11.1369	0.55
11.176	0.536
11.215	0.522
11.254	0.502
11.293	0.5
11.3321	0.506
11.3711	0.519
11.4101	0.529
11.4491	0.53
11.4882	0.53
11.5272	0.524
11.5662	0.517
11.6052	0.512
11.6443	0.507
11.6833	0.506
11.7223	0.513
11.7613	0.523
11.8004	0.539
11.8394	0.55
11.8784	0.557
11.9174	0.563
11.9565	0.566
11.9955	0.561
12.0345	0.553
12.0735	0.549
12.1126	0.542
12.1516	0.542
12.1906	0.55
12.2296	0.551
12.2687	0.55
12.3077	0.551
12.3467	0.545
12.3857	0.533
12.4248	0.519
12.4638	0.5
12.5028	0.465
12.5418	0.431
12.5809	0.421
12.6199	0.43
12.6589	0.441
12.6979	0.448
12.737	0.452
12.776	0.457
12.815	0.462
12.854	0.462
12.8931	0.46
12.9321	0.455
12.9711	0.45
13.0101	0.437
13.0492	0.419
13.0882	0.393
13.1272	0.35
13.1662	0.289
13.2053	0.21
13.2443	0.139
13.2833	0.089
13.3223	0.058
13.3614	0.04
13.4004	0.033
13.4394	0.025
13.4785	0.019
13.5175	0.023
13.5565	0.041
13.5955	0.064
13.6346	0.098
13.6736	0.128
13.7126	0.182
13.7516	0.248
13.7907	0.297
13.8297	0.339
13.8687	0.372
13.9077	0.387
13.9468	0.386
13.9858	0.373
14.0248	0.337
14.0638	0.285
14.1029	0.225
14.1419	0.167
14.1809	0.12
14.2199	0.085
14.259	0.055
14.298	0.03
14.337	0.022
14.376	0.042
14.4151	0.106
14.4541	0.187
14.4931	0.268
14.5321	0.327
14.5712	0.363
14.6102	0.387
14.6492	0.393
14.6882	0.393
14.7273	0.394
14.7663	0.395
14.8053	0.404
14.8443	0.406
14.8834	0.399
14.9224	0.398
14.9614	0.405
15.0004	0.408
15.0395	0.4
15.0785	0.39
15.1175	0.382
15.1565	0.368
15.1956	0.352
15.2346	0.335
15.2736	0.327
15.3126	0.313
15.3517	0.31
15.3907	0.307
15.4297	0.307
15.4687	0.307
15.5078	0.307
15.5468	0.306
15.5858	0.302
15.6248	0.301
15.6639	0.295
15.7029	0.29
15.7419	0.287
15.7809	0.284
15.82	0.278
15.859	0.278
15.898	0.287
