Infrared Spectrum: 6-Methoxyquinoline
Formula: C10 H9 N O
CAS: 5263-87-6
State: LIQUID (NEAT)
Boiling point: 148 C AT 15 mm
Class: COBLENTZ
Instrument: BAIRD (PRISM)
Instrument parameters: NaCl PRISM
Sampling: TRANSMISSION
Path length: 0.003 CM
Resolution: 2
Origin: WYANDOTTE CHEMICALS CORP.
1/CM	TRANSMITTANCE
626	0.8507
635	0.8587
644	0.8676
653	0.8788
662	0.8893
671	0.8921
680	0.8787
689	0.8592
698	0.8108
707	0.2858
716	0.7758
725	0.8523
734	0.8777
743	0.9311
752	0.8509
761	0.6949
770	0.3845
779	0.613
788	0.3428
797	0.6098
806	0.7088
815	0.4281
824	0.081
833	0.0768
842	0.0834
851	0.2029
860	0.4121
869	0.5925
878	0.7697
887	0.726
896	0.8156
905	0.3344
914	0.8848
923	0.9275
932	0.8834
941	0.74
950	0.529
959	0.8202
968	0.8299
977	0.7913
986	0.853
995	0.8561
1004	0.7936
1013	0.4832
1022	0.1157
1031	0.0926
1040	0.1535
1049	0.6126
1058	0.8056
1067	0.8805
1076	0.8895
1085	0.9055
1094	0.9104
1103	0.8534
1112	0.2525
1121	0.3512
1130	0.7257
1139	0.6624
1148	0.5044
1157	0.1699
1166	0.178
1175	0.5124
1184	0.5631
1193	0.4535
1202	0.5353
1211	0.5275
1220	0.166
1229	0.0452
1238	0.0559
1247	0.0773
1256	0.0968
1265	0.0932
1274	0.353
1283	0.7166
1292	0.7648
1301	0.7375
1310	0.7136
1319	0.4133
1328	0.1247
1337	0.3604
1346	0.4885
1355	0.5882
1364	0.5804
1373	0.4007
1382	0.1135
1391	0.3794
1400	0.6689
1409	0.7479
1418	0.7231
1427	0.4784
1436	0.2199
1445	0.2208
1454	0.269
1463	0.1986
1472	0.1737
1481	0.1776
1490	0.3045
1499	0.211
1508	0.0713
1517	0.1209
1526	0.284
1535	0.649
1544	0.7158
1553	0.7421
1562	0.7306
1571	0.6383
1580	0.476
1589	0.3798
1598	0.4939
1607	0.2314
1616	0.3022
1625	0.2437
1634	0.0802
1643	0.2929
1652	0.6672
1661	0.7307
1670	0.7596
1679	0.768
1688	0.7948
1697	0.8429
1706	0.8699
1715	0.8669
1724	0.8546
1733	0.8483
1742	0.8545
1751	0.8797
1760	0.9274
1769	0.9506
1778	0.9543
1787	0.9626
1796	0.9737
1805	0.9763
1814	0.9773
1823	0.9853
1832	0.9863
1841	0.9771
1850	0.9611
1859	0.9458
1868	0.931
1877	0.9266
1886	0.9195
1895	0.8984
1904	0.8777
1913	0.8658
1922	0.8584
1931	0.8826
1940	0.9256
1949	0.9637
1958	0.9727
1967	0.9788
1976	0.9871
1985	0.988
1994	0.9852
2003	0.9804
2012	0.9766
2021	0.9602
2030	0.9594
2039	0.9627
2048	0.9673
2057	0.9732
2066	0.979
2075	0.9827
2084	0.9849
2093	0.9854
2102	0.9836
2111	0.9806
2120	0.9796
2129	0.9819
2138	0.9837
2147	0.9818
2156	0.9812
2165	0.9817
2174	0.983
2183	0.9842
2192	0.9852
2201	0.9856
2210	0.9857
2219	0.985
2228	0.9834
2237	0.9817
2246	0.9808
2255	0.9811
2264	0.9828
2273	0.9841
2282	0.9829
2291	0.9805
2300	0.9774
2309	0.9699
2318	0.965
2327	0.9621
2336	0.9588
2345	0.9541
2354	0.9494
2363	0.9475
2372	0.9468
2381	0.9522
2390	0.9604
2399	0.963
2408	0.96
2417	0.9595
2426	0.9633
2435	0.9715
2444	0.9755
2453	0.9767
2462	0.978
2471	0.9791
2480	0.9797
2489	0.9819
2498	0.9846
2507	0.9818
2516	0.9785
2525	0.9752
2534	0.9721
2543	0.969
2552	0.9664
2561	0.9636
2570	0.9598
2579	0.956
2588	0.9512
2597	0.9464
2606	0.9417
2615	0.9374
2624	0.9378
2633	0.9483
2642	0.9573
2651	0.9553
2660	0.9501
2669	0.9511
2678	0.956
2687	0.9578
2696	0.9562
2705	0.9529
2714	0.9488
2723	0.945
2732	0.9413
2741	0.9384
2750	0.9355
2759	0.9328
2768	0.9293
2777	0.9231
2786	0.9114
2795	0.8968
2804	0.8794
2813	0.858
2822	0.807
2831	0.7418
2840	0.6772
2849	0.6164
2858	0.6079
2867	0.635
2876	0.694
2885	0.7103
2894	0.6827
2903	0.6468
2912	0.6112
2921	0.5758
2930	0.5406
2939	0.5056
2948	0.4709
2957	0.4363
2966	0.4035
2975	0.4023
2984	0.4084
2993	0.4327
3002	0.455
3011	0.4525
3020	0.4354
3029	0.4198
3038	0.4246
3047	0.4703
3056	0.4851
3065	0.492
3074	0.5213
3083	0.5511
3092	0.6107
3101	0.67
3110	0.7289
3119	0.7915
3128	0.8253
3137	0.8316
3146	0.8315
3155	0.831
3164	0.8283
3173	0.8233
3182	0.8146
3191	0.809
3200	0.8031
3209	0.8022
3218	0.8027
3227	0.8033
3236	0.8073
3245	0.8121
3254	0.8173
3263	0.821
3272	0.8214
3281	0.8186
3290	0.8157
3299	0.8124
3308	0.8095
3317	0.8094
3326	0.8157
3335	0.8241
3344	0.8307
3353	0.8361
3362	0.841
3371	0.8451
3380	0.8492
3389	0.8533
3398	0.8574
3407	0.8605
3416	0.8634
3425	0.8649
3434	0.866
3443	0.8673
3452	0.869
3461	0.8709
3470	0.8758
3479	0.8815
3488	0.8878
3497	0.896
3506	0.9082
3515	0.9185
3524	0.9269
3533	0.9327
3542	0.9379
3551	0.9431
3560	0.9461
3569	0.9484
3578	0.9507
3587	0.9529
3596	0.955
3605	0.9562
3614	0.9573
3623	0.9585
3632	0.9596
3641	0.9607
3650	0.9618
3659	0.9627
3668	0.9631
3677	0.9636
3686	0.9639
3695	0.9642
3704	0.9639
3713	0.9637
3722	0.9635
3731	0.9632
3740	0.9628
3749	0.9621
3758	0.9613
3767	0.9605
3776	0.9597
3785	0.9589
3794	0.9581
3803	0.9575
3812	0.9569
3821	0.9564
3830	0.9563
3839	0.957
3848	0.9576
3857	0.9582
3866	0.9588
3875	0.9595
3884	0.9585
3893	0.9575
3902	0.9557
3911	0.9536
3920	0.9517
3929	0.9499
3938	0.9482
3947	0.9464
3956	0.9447
3965	0.9425
3974	0.9403
3983	0.9383
3992	0.9372
