Infrared Spectrum: BENZENE, 1,2,3,5-TETRAMETHYL-
Formula: C10 H14
CAS: 527-53-7
State: SOLUTION (10% CCl4 FOR 3800-1335, 10% CS2 FOR 1335-460 CM^-^1)
Class: COBLENTZ III
Instrument: DOW KBr FOREPRISM-GRATING
Instrument parameters: BLAZED AT 3.5, 12.0, 20.0 MICRON AND CHANGED AT 5.0, 7.5, 14.9 MICRON
Sampling: TRANSMISSION
Path length: 0.012 CM, 0.011 CM
Resolution: 2
Origin: DOW CHEMICAL COMPANY
1/CM	TRANSMITTANCE
461	0.9997
470	0.9871
479	0.9799
488	0.9768
497	0.9703
506	0.9707
515	0.9633
524	0.9628
533	0.9588
542	0.9137
551	0.4968
560	0.9602
569	0.9693
578	0.9658
587	0.9682
596	0.9721
605	0.975
614	0.9816
623	0.989
632	0.9889
641	0.9912
650	0.9816
659	0.9968
668	1.025
677	1.0021
686	0.9985
695	0.991
704	0.611
713	0.9749
722	1.0024
731	1.0025
740	1.0037
749	1.0203
758	1.019
767	1.0173
776	1.0158
785	1.0096
794	1.0111
803	1.0144
812	1.0093
821	1.0005
830	0.9885
839	0.9425
848	0.4396
857	0.6661
866	0.9278
875	0.9378
884	0.9452
893	0.9663
902	0.9799
911	0.9859
920	0.9905
929	0.9893
938	0.9847
947	0.9935
956	0.9894
965	0.9777
974	0.9625
983	0.9078
992	0.8325
1001	0.7869
1010	0.5616
1019	0.6718
1028	0.8035
1037	0.7565
1046	0.866
1055	0.9297
1064	0.9453
1073	0.9265
1082	0.906
1091	0.9597
1100	0.9747
1109	0.9831
1118	0.9908
1127	1.0023
1136	1.0047
1145	0.9395
1154	1.0047
1163	1.0144
1172	1.0167
1181	1.0153
1190	1.0064
1199	1.0018
1208	0.9643
1217	0.8175
1226	0.9727
1235	0.9962
1244	0.99
1253	0.9861
1262	0.9912
1271	0.9845
1280	0.9864
1289	0.9805
1298	0.9647
1307	0.973
1316	0.9683
1325	0.9568
1334	0.937
1343	0.9217
1352	0.912
1361	0.8928
1370	0.8523
1379	0.497
1388	0.6183
1397	0.7925
1406	0.8207
1415	0.8181
1424	0.7458
1433	0.6574
1442	0.4034
1451	0.4299
1460	0.407
1469	0.453
1478	0.4878
1487	0.1646
1496	0.3823
1505	0.7054
1514	0.7542
1523	0.8183
1532	0.8373
1541	0.8643
1550	0.8651
1559	0.8402
1568	0.8366
1577	0.7355
1586	0.7153
1595	0.8368
1604	0.8465
1613	0.7051
1622	0.6599
1631	0.9205
1640	0.9436
1649	0.9515
1658	0.9568
1667	0.9612
1676	0.9632
1685	0.9623
1694	0.9581
1703	0.9524
1712	0.9385
1721	0.9089
1730	0.873
1739	0.9192
1748	0.9348
1757	0.9353
1766	0.9424
1775	0.9692
1784	0.9725
1793	0.9749
1802	0.9763
1811	0.9782
1820	0.9811
1829	0.9821
1838	0.9832
1847	0.9835
1856	0.983
1865	0.9824
1874	0.9759
1883	0.9574
1892	0.9616
1901	0.9718
1910	0.9754
1919	0.9728
1928	0.9781
1937	0.9847
1946	0.98
1955	0.9783
1964	0.9964
1973	0.9874
1982	0.9875
1991	0.9892
2000	1.0358
2009	1.0488
2018	1.0488
2027	1.0493
2036	1.0497
2045	1.0497
2054	1.0495
2063	1.0493
2072	1.049
2081	1.0484
2090	1.0477
2099	1.0451
2108	1.039
2117	1.0404
2126	1.0468
2135	1.046
2144	1.0443
2153	1.0424
2162	1.0407
2171	1.0392
2180	1.0384
2189	1.0373
2198	1.0362
2207	1.0351
2216	1.034
2225	1.0328
2234	1.0316
2243	1.0295
2252	1.0266
2261	1.0235
2270	1.0211
2279	1.0206
2288	1.021
2297	1.021
2306	1.0211
2315	1.0211
2324	1.0217
2333	1.0227
2342	1.0242
2351	1.0253
2360	1.0252
2369	1.0221
2378	1.0159
2387	1.0089
2396	1.0041
2405	1.0035
2414	1.0023
2423	1.0023
2432	1.0063
2441	1.0091
2450	1.0064
2459	1.0002
2468	0.9971
2477	0.9987
2486	1.0027
2495	1.0059
2504	1.0052
2513	1.0035
2522	1.002
2531	1.0053
2540	1.0121
2549	1.0134
2558	1.0139
2567	1.0139
2576	1.0128
2585	1.0057
2594	1.0055
2603	1.007
2612	1.0074
2621	1.0071
2630	1.0074
2639	1.0068
2648	1.0059
2657	1.0048
2666	1.002
2675	0.9964
2684	0.9978
2693	1.0031
2702	1.0037
2711	1.0016
2720	0.9877
2729	0.9328
2738	0.8094
2747	0.964
2756	0.9695
2765	0.9598
2774	0.9624
2783	0.9647
2792	0.9632
2801	0.9524
2810	0.9357
2819	0.9107
2828	0.8761
2837	0.8398
2846	0.7876
2855	0.5125
2864	0.3005
2873	0.3434
2882	0.4344
2891	0.4253
2900	0.3249
2909	0.2172
2918	0.1336
2927	0.1251
2936	0.1704
2945	0.1592
2954	0.2174
2963	0.2827
2972	0.2437
2981	0.2435
2990	0.3677
2999	0.3537
3008	0.3276
3017	0.3859
3026	0.4735
3035	0.5282
3044	0.6095
3053	0.7315
3062	0.8093
3071	0.8444
3080	0.8711
3089	0.8944
3098	0.91
3107	0.9244
3116	0.9359
3125	0.9464
3134	0.9539
3143	0.9593
3152	0.9634
3161	0.9659
3170	0.9702
3179	0.9733
3188	0.9771
3197	0.9798
3206	0.9817
3215	0.9831
3224	0.9839
3233	0.9843
3242	0.9848
3251	0.9851
3260	0.9859
3269	0.987
3278	0.9892
3287	0.9912
3296	0.9925
3305	0.9937
3314	0.9949
3323	0.9961
3332	0.9971
3341	0.9977
3350	0.9978
3359	0.9975
3368	0.9971
3377	0.9963
3386	0.9955
3395	0.9948
3404	0.9944
3413	0.9941
3422	0.9938
3431	0.9935
3440	0.9933
3449	0.9928
3458	0.9924
3467	0.9918
3476	0.9914
3485	0.9911
3494	0.991
3503	0.9911
3512	0.9913
3521	0.9915
3530	0.9918
3539	0.9918
3548	0.9914
3557	0.9915
3566	0.9921
3575	0.9921
3584	0.9957
3593	0.9953
3602	0.9951
3611	0.9952
3620	0.9955
3629	0.9941
3638	0.992
3647	0.9917
3656	0.9924
3665	0.9913
3674	0.9904
3683	0.9894
3692	0.9882
3701	0.9884
3710	0.9897
3719	0.9907
3728	0.9931
3737	0.9961
3746	0.995
3755	0.9915
3764	0.9894
3773	0.9899
3782	0.989
3791	0.9899
3800	0.9906
