Infrared Spectrum: CINNAMIC ACID, 4-HYDROXY-3,5-DIMETHOXY-
Formula: C11 H12 O5
CAS: 530-59-6
State: SOLID (OIL MULL)
Class: COBLENTZ III
Instrument: CARY 90 (GRATING)
Instrument parameters: ORDER CHANGES: 3000, 2000, 1200 CM^-^1
Sampling: TRANSMISSION
Resolution: 2
Origin: WESTERN REGIONAL RES. USDA
1/CM	TRANSMITTANCE
4000	0.7496
3991	0.7518
3982	0.7546
3973	0.7572
3964	0.76
3955	0.7625
3946	0.7649
3937	0.7672
3928	0.7696
3919	0.7715
3910	0.7738
3901	0.7758
3892	0.778
3883	0.7801
3874	0.7825
3865	0.7853
3856	0.7882
3847	0.7911
3838	0.794
3829	0.7962
3820	0.7984
3811	0.8005
3802	0.8025
3793	0.8047
3784	0.8068
3775	0.8089
3766	0.8111
3757	0.8132
3748	0.8153
3739	0.8174
3730	0.8196
3721	0.8215
3712	0.8235
3703	0.8254
3694	0.8271
3685	0.8281
3676	0.829
3667	0.8299
3658	0.8307
3649	0.8317
3640	0.8325
3631	0.8336
3622	0.8345
3613	0.8348
3604	0.8352
3595	0.8355
3586	0.8358
3577	0.8357
3568	0.8357
3559	0.8354
3550	0.8351
3541	0.8344
3532	0.8335
3523	0.8318
3514	0.8298
3505	0.8271
3496	0.8215
3487	0.8121
3478	0.7986
3469	0.7791
3460	0.7587
3451	0.7378
3442	0.7069
3433	0.6491
3424	0.5735
3415	0.5279
3406	0.4857
3397	0.3859
3388	0.3071
3379	0.301
3370	0.3529
3361	0.4047
3352	0.4084
3343	0.3716
3334	0.3366
3325	0.2997
3316	0.2854
3307	0.2883
3298	0.3634
3289	0.4049
3280	0.4387
3271	0.4648
3262	0.4885
3253	0.5091
3244	0.5225
3235	0.5319
3226	0.5391
3217	0.5445
3208	0.5485
3199	0.5509
3190	0.5533
3181	0.5552
3172	0.557
3163	0.5581
3154	0.5573
3145	0.5551
3136	0.5467
3127	0.5295
3118	0.5034
3109	0.4865
3100	0.4693
3091	0.4544
3082	0.4459
3073	0.4415
3064	0.4341
3055	0.4236
3046	0.4095
3037	0.3962
3028	0.3204
3019	0.3196
3010	0.3223
3001	0.2628
2992	0.2864
2983	0.253
2974	0.1403
2965	0.0767
2956	0.0574
2947	0.0572
2938	0.0442
2929	0.0261
2920	0.0266
2911	0.0367
2902	0.0835
2893	0.1433
2884	0.1633
2875	0.1601
2866	0.1202
2857	0.1058
2848	0.1088
2839	0.1934
2830	0.3022
2821	0.3522
2812	0.3827
2803	0.415
2794	0.4362
2785	0.4506
2776	0.4633
2767	0.4712
2758	0.4801
2749	0.4929
2740	0.5027
2731	0.4956
2722	0.4832
2713	0.4732
2704	0.4666
2695	0.4622
2686	0.4595
2677	0.4579
2668	0.4603
2659	0.4662
2650	0.476
2641	0.4826
2632	0.4862
2623	0.4869
2614	0.4857
2605	0.4798
2596	0.4547
2587	0.4498
2578	0.4479
2569	0.4462
2560	0.4453
2551	0.4446
2542	0.4457
2533	0.4532
2524	0.4725
2515	0.5102
2506	0.5368
2497	0.5617
2488	0.5819
2479	0.5989
2470	0.6151
2461	0.6302
2452	0.6437
2443	0.6571
2434	0.6706
2425	0.684
2416	0.6978
2407	0.7108
2398	0.7228
2389	0.7338
2380	0.7443
2371	0.7551
2362	0.7645
2353	0.7717
2344	0.7711
2335	0.7671
2326	0.7714
2317	0.7818
2308	0.7928
2299	0.8041
2290	0.8128
2281	0.8194
2272	0.8216
2263	0.822
2254	0.8221
2245	0.8268
2236	0.836
2227	0.8446
2218	0.8518
2209	0.8578
2200	0.8635
2191	0.8675
2182	0.871
2173	0.8725
2164	0.8661
2155	0.8639
2146	0.8695
2137	0.8774
2128	0.8864
2119	0.8881
2110	0.8884
2101	0.8941
2092	0.8985
2083	0.897
2074	0.8963
2065	0.8993
2056	0.9039
2047	0.9089
2038	0.9132
2029	0.9171
2020	0.9209
2011	0.9278
2002	0.9367
1993	0.94
1984	0.9383
1975	0.932
1966	0.9234
1957	0.9352
1948	0.9397
1939	0.939
1930	0.9333
1921	0.9251
1912	0.9354
1903	0.9421
1894	0.9448
1885	0.9437
1876	0.9384
1867	0.9327
1858	0.928
1849	0.9211
1840	0.9233
1831	0.9314
1822	0.9378
1813	0.9386
1804	0.9399
1795	0.941
1786	0.9415
1777	0.9409
1768	0.9408
1759	0.9377
1750	0.9312
1741	0.9214
1732	0.9097
1723	0.8709
1714	0.7708
1705	0.5079
1696	0.2429
1687	0.1614
1678	0.039
1669	0.0105
1660	0.0178
1651	0.1812
1642	0.2111
1633	0.0971
1624	0.0813
1615	0.2203
1606	0.2717
1597	0.2245
1588	0.39
1579	0.5877
1570	0.7615
1561	0.8223
1552	0.8285
1543	0.8104
1534	0.7091
1525	0.136
1516	0.1359
1507	0.4601
1498	0.7249
1489	0.731
1480	0.5745
1471	0.2141
1462	0.0789
1453	0.2592
1444	0.2502
1435	0.0459
1426	0.0726
1417	0.2858
1408	0.569
1399	0.5574
1390	0.382
1381	0.3854
1372	0.4893
1363	0.6453
1354	0.4544
1345	0.1279
1336	0.0946
1327	0.212
1318	0.1469
1309	0.0744
1300	0.0149
1291	0.1863
1282	0.1289
1273	0.0162
1264	0.0737
1255	0.2932
1246	0.477
1237	0.2406
1228	0.069
1219	0.078
1210	0.2338
1201	0.4881
1192	0.6052
1183	0.6792
1174	0.7346
1165	0.3324
1156	0.1834
1147	0.437
1138	0.3892
1129	0.0658
1120	0.0307
1111	0.5259
1102	0.6844
1093	0.78
1084	0.8452
1075	0.8731
1066	0.8862
1057	0.8921
1048	0.7178
1039	0.8518
1030	0.8765
1021	0.8855
1012	0.9048
1003	0.9008
994	0.7392
985	0.7075
976	0.3034
967	0.8657
958	0.7168
949	0.8424
940	0.8168
931	0.7471
922	0.7201
913	0.5404
904	0.7656
895	0.8964
886	0.9404
877	0.8578
868	0.9128
859	0.9928
850	0.9838
841	0.6348
832	0.7941
823	0.8008
814	0.9733
805	1.0381
796	1.0375
787	1.037
778	1.0365
769	1.036
760	1.0355
751	1.0349
742	0.9527
733	0.8315
724	0.9074
715	1.0264
706	1.0398
697	1.0382
688	1.0191
679	0.9425
670	0.7646
661	0.8287
652	0.7661
643	0.6851
634	0.2912
625	0.6715
616	0.8607
607	0.9309
598	0.9321
589	1.0066
580	1.01
571	0.9695
562	0.8201
553	0.7908
544	0.9449
535	0.9132
526	0.9998
517	1.0112
508	0.9981
499	0.9758
490	0.9688
481	0.966
