Infrared Spectrum: PHENOL, 2-METHYL-4,6-DINITRO-
Formula: C7 H6 N2 O5
CAS: 534-52-1
State: SOLID (SPLIT MULL, FLUOROLUBE FOR 3800-1330 AND NUJOL FOR 1330-460 CM ^-^1)
Class: COBLENTZ III
Instrument: DOW KBr FOREPRISM-GRATING
Instrument parameters: BLAZED AT 3.5, 12.0, 20.0 MICRON, CHANGED AT 5.0, 7.5, 14.9 MICRON
Sampling: TRANSMISSION
Resolution: 4
Origin: DOW CHEMICAL COMPANY
1/CM	TRANSMITTANCE
453.607	0.899
461.946	0.887
470.285	0.875
478.624	0.902
486.962	0.942
495.301	0.945
503.64	0.949
511.979	0.956
520.318	0.958
528.657	0.964
536.996	0.962
545.335	0.974
553.673	0.984
562.012	1.014
570.351	1.018
578.69	1.021
587.029	1.017
595.368	1.027
603.707	1.022
612.046	1.02
620.384	1.011
628.723	0.985
637.062	0.916
645.401	1.007
653.74	1.005
662.079	0.991
670.418	0.948
678.757	0.876
687.095	0.806
695.434	0.811
703.773	0.76
712.112	0.5012
720.451	0.649
728.79	0.758
737.129	0.854
745.468	0.8539
753.806	1.024
762.145	1.04
770.484	0.922
778.823	1.038
787.162	1.043
795.501	1.008
803.84	0.913
812.179	1.022
820.517	0.9259
828.856	1.07
837.195	1.064
845.534	1.061
853.873	1.063
862.212	1.064
870.551	1.058
878.89	1.047
887.228	1.033
895.567	1.011
903.906	0.915
912.245	0.984
920.584	0.859
928.923	0.681
937.262	0.968
945.601	0.778
953.939	1.002
962.278	1.027
970.617	1.021
978.956	1.015
987.295	1.011
995.634	1
1003.97	0.965
1012.31	0.834
1020.65	0.936
1028.99	0.971
1037.33	0.954
1045.67	0.909
1054.01	0.866
1062.34	0.783
1070.68	0.646
1079.02	0.612
1087.36	0.504
1095.7	0.477
1104.04	0.968
1112.38	0.978
1120.72	0.959
1129.06	0.938
1137.39	0.869
1145.73	0.741
1154.07	0.494
1162.41	0.662
1170.75	0.941
1179.09	0.949
1187.43	0.949
1195.77	0.926
1204.11	0.862
1212.44	0.758
1220.78	0.4881
1229.12	0.66
1237.46	0.425
1245.8	0.468
1254.14	0.512
1262.48	0.508
1270.82	0.6141
1279.16	0.701
1287.49	0.724
1295.83	0.706
1304.17	0.678
1312.51	0.617
1320.85	0.479
1329.19	0.057
1337.53	0.031
1345.87	0.031
1354.21	0.113
1362.54	0.232
1370.88	0.3791
1379.22	0.525
1387.56	0.4192
1395.9	0.63
1404.24	0.665
1412.58	0.551
1420.92	0.31
1429.26	0.512
1437.59	0.452
1445.93	0.4159
1454.27	0.4151
1462.61	0.408
1470.95	0.406
1479.29	0.672
1487.63	0.689
1495.97	0.66
1504.3	0.556
1512.64	0.459
1520.98	0.387
1529.32	0.215
1537.66	0.2799
1546	0.09
1554.34	0.179
1562.68	0.502
1571.02	0.617
1579.35	0.602
1587.69	0.525
1596.03	0.334
1604.37	0.132
1612.71	0.129
1621.05	0.4152
1629.39	0.689
1637.73	0.784
1646.07	0.83
1654.4	0.834
1662.74	0.833
1671.08	0.827
1679.42	0.827
1687.76	0.811
1696.1	0.813
1704.44	0.813
1712.78	0.813
1721.12	0.798
1729.45	0.797
1737.79	0.803
1746.13	0.816
1754.47	0.817
1762.81	0.814
1771.15	0.811
1779.49	0.8
1787.83	0.787
1796.17	0.755
1804.5	0.795
1812.84	0.797
1821.18	0.797
1829.52	0.793
1837.86	0.785
1846.2	0.783
1854.54	0.787
1862.88	0.793
1871.22	0.791
1879.55	0.791
1887.89	0.793
1896.23	0.793
1904.57	0.79
1912.91	0.791
1921.25	0.79
1929.59	0.784
1937.93	0.787
1946.27	0.783
1954.6	0.777
1962.94	0.772
1971.28	0.77
1979.62	0.772
1987.96	0.774
1996.3	0.768
2004.64	0.762
2012.98	0.76
2021.32	0.757
2029.65	0.7519
2037.99	0.7474
2046.33	0.745
2054.67	0.7427
2063.01	0.7406
2071.35	0.7373
2079.69	0.737
2088.03	0.737
2096.36	0.734
2104.7	0.7312
2113.04	0.727
2121.38	0.725
2129.72	0.722
2138.06	0.718
2146.4	0.714
2154.74	0.712
2163.08	0.709
2171.41	0.705
2179.75	0.701
2188.09	0.701
2196.43	0.699
2204.77	0.6989
2213.11	0.6954
2221.45	0.689
2229.79	0.6837
2238.13	0.6755
2246.46	0.669
2254.8	0.6658
2263.14	0.6592
2271.48	0.658
2279.82	0.6552
2288.16	0.6544
2296.5	0.6503
2304.84	0.647
2313.18	0.65
2321.51	0.649
2329.85	0.6451
2338.19	0.643
2346.53	0.646
2354.87	0.645
2363.21	0.642
2371.55	0.6379
2379.89	0.6348
2388.23	0.63
2396.56	0.629
2404.9	0.6237
2413.24	0.622
2421.58	0.622
2429.92	0.62
2438.26	0.619
2446.6	0.614
2454.94	0.613
2463.28	0.612
2471.61	0.609
2479.95	0.607
2488.29	0.6061
2496.63	0.604
2504.97	0.603
2513.31	0.6011
2521.65	0.599
2529.99	0.595
2538.33	0.591
2546.66	0.5894
2555	0.5888
2563.34	0.586
2571.68	0.581
2580.02	0.579
2588.36	0.576
2596.7	0.576
2605.04	0.5738
2613.38	0.5702
2621.71	0.568
2630.05	0.566
2638.39	0.5607
2646.73	0.56
2655.07	0.56
2663.41	0.557
2671.75	0.553
2680.09	0.55
2688.42	0.55
2696.76	0.548
2705.1	0.546
2713.44	0.543
2721.78	0.541
2730.12	0.54
2738.46	0.537
2746.8	0.5349
2755.14	0.5333
2763.47	0.53
2771.81	0.5243
2780.15	0.524
2788.49	0.524
2796.83	0.5217
2805.17	0.518
2813.51	0.5147
2821.85	0.511
2830.19	0.4992
2838.52	0.4881
2846.86	0.478
2855.2	0.4789
2863.54	0.482
2871.88	0.485
2880.22	0.483
2888.56	0.4769
2896.9	0.4684
2905.24	0.4559
2913.57	0.4492
2921.91	0.443
2930.25	0.4493
2938.59	0.456
2946.93	0.455
2955.27	0.4542
2963.61	0.4658
2971.95	0.4695
2980.29	0.471
2988.62	0.468
2996.96	0.466
3005.3	0.464
3013.64	0.4581
3021.98	0.454
3030.32	0.4461
3038.66	0.4317
3047	0.412
3055.34	0.41
3063.67	0.416
3072.01	0.4171
3080.35	0.42
3088.69	0.4165
3097.03	0.3843
3105.37	0.2968
3113.71	0.3802
3122.05	0.438
3130.39	0.435
3138.72	0.432
3147.06	0.425
3155.4	0.422
3163.74	0.4114
3172.08	0.3973
3180.42	0.3882
3188.76	0.3725
3197.1	0.3561
3205.44	0.3373
3213.77	0.3221
3222.11	0.3011
3230.45	0.2755
3238.79	0.265
3247.13	0.261
3255.47	0.2653
3263.81	0.2811
3272.15	0.3031
3280.48	0.338
3288.82	0.3648
3297.16	0.3897
3305.5	0.408
3313.84	0.4195
3322.18	0.4253
3330.52	0.429
3338.86	0.4287
3347.2	0.428
3355.53	0.4213
3363.87	0.416
3372.21	0.4198
3380.55	0.431
3388.89	0.432
3397.23	0.431
3405.57	0.428
3413.91	0.426
3422.25	0.418
3430.58	0.415
3438.92	0.4138
3447.26	0.4117
3455.6	0.4083
3463.94	0.405
3472.28	0.4
3480.62	0.397
3488.96	0.396
3497.3	0.396
3505.63	0.399
3513.97	0.399
3522.31	0.396
3530.65	0.3956
3538.99	0.393
3547.33	0.392
3555.67	0.39
3564.01	0.389
3572.35	0.389
3580.68	0.389
3589.02	0.387
3597.36	0.387
3605.7	0.386
3614.04	0.385
3622.38	0.385
3630.72	0.386
3639.06	0.3858
3647.4	0.383
3655.73	0.385
3664.07	0.386
3672.41	0.385
3680.75	0.382
3689.09	0.38
3697.43	0.38
3705.77	0.382
3714.11	0.382
3722.45	0.382
3730.78	0.3801
3739.12	0.379
3747.46	0.376
3755.8	0.377
3764.14	0.377
3772.48	0.376
3780.82	0.3699
