Infrared Spectrum: BENZENE, ETHYNYL-
Formula: C8 H6
CAS: 536-74-3
State: GAS (VAPOR PRESSURE OF LIQUID AT ROOM TEMPERATURE)
Class: COBLENTZ
Instrument: Not specified, most likely a prism, grating, or hybrid spectrometer.
Sampling: TRANSMISSION
Path length: 400 CM CELL
Resolution: 2
Origin: DOW CHEMICAL COMPANY
1/CM	TRANSMITTANCE
455.107	1.02
464.044	1.008
472.982	0.986
481.919	0.958
490.857	0.918
499.794	0.7922
508.731	0.63
517.669	0.76
526.606	0.688
535.543	0.7079
544.481	0.712
553.418	0.8939
562.356	1.01
571.293	1.016
580.23	0.996
589.168	0.9001
598.105	0.4661
607.043	0.0922
615.98	0
624.917	0.012
633.855	0.166
642.792	0
651.73	0.034
660.667	0.324
669.604	0.3422
678.542	0.1321
687.479	0.0021
696.416	0.1257
705.354	0.3337
714.291	0.7439
723.229	0.878
732.166	0.5443
741.103	0.0661
750.041	0.01
758.978	0.028
767.916	0.118
776.853	0.6738
785.79	0.8899
794.728	0.916
803.665	0.92
812.602	0.932
821.54	0.938
830.477	0.944
839.415	0.946
848.352	0.936
857.289	0.924
866.227	0.858
875.164	0.8161
884.102	0.78
893.039	0.784
901.976	0.75
910.914	0.6801
919.851	0.734
928.789	0.804
937.726	0.8899
946.663	0.908
955.601	0.914
964.538	0.908
973.475	0.902
982.413	0.904
991.35	0.898
1000.29	0.894
1009.22	0.852
1018.16	0.592
1027.1	0.612
1036.04	0.7039
1044.97	0.82
1053.91	0.7541
1062.85	0.632
1071.79	0.6341
1080.72	0.73
1089.66	0.79
1098.6	0.818
1107.54	0.84
1116.47	0.878
1125.41	0.892
1134.35	0.878
1143.29	0.874
1152.22	0.864
1161.16	0.856
1170.1	0.852
1179.04	0.8381
1187.97	0.862
1196.91	0.84
1205.85	0.6902
1214.78	0.0801
1223.72	0.084
1232.66	0.3155
1241.6	0.702
1250.53	0.73
1259.47	0.576
1268.41	0.62
1277.35	0.7779
1286.28	0.72
1295.22	0.618
1304.16	0.6199
1313.1	0.784
1322.03	0.818
1330.97	0.824
1339.91	0.814
1348.85	0.82
1357.78	0.7841
1366.72	0.78
1375.66	0.786
1384.6	0.794
1393.53	0.794
1402.47	0.812
1411.41	0.814
1420.34	0.778
1429.28	0.6801
1438.22	0.528
1447.16	0.5561
1456.09	0.67
1465.03	0.762
1473.97	0.7101
1482.91	0.1405
1491.84	0.142
1500.78	0.3657
1509.72	0.6999
1518.66	0.688
1527.59	0.764
1536.53	0.7541
1545.47	0.784
1554.41	0.786
1563.34	0.7781
1572.28	0.712
1581.22	0.6701
1590.16	0.5901
1599.09	0.4842
1608.03	0.554
1616.97	0.718
1625.9	0.802
1634.84	0.768
1643.78	0.788
1652.72	0.764
1661.65	0.7181
1670.59	0.694
1679.53	0.728
1688.47	0.8
1697.4	0.776
1706.34	0.798
1715.28	0.778
1724.22	0.788
1733.15	0.73
1742.09	0.72
1751.03	0.714
1759.97	0.728
1768.9	0.7641
1777.84	0.786
1786.78	0.766
1795.72	0.694
1804.65	0.7079
1813.59	0.7639
1822.53	0.772
1831.46	0.7699
1840.4	0.798
1849.34	0.8
1858.28	0.798
1867.21	0.7441
1876.15	0.714
1885.09	0.68
1894.03	0.6999
1902.96	0.734
1911.9	0.8
1920.84	0.798
1929.78	0.78
1938.71	0.712
1947.65	0.7238
1956.59	0.676
1965.53	0.708
1974.46	0.744
1983.4	0.81
1992.34	0.812
2001.27	0.818
2010.21	0.84
2019.15	0.84
2028.09	0.838
2037.02	0.836
2045.96	0.836
2054.9	0.834
2063.84	0.836
2072.77	0.832
2081.71	0.83
2090.65	0.8247
2099.59	0.8116
2108.52	0.7679
2117.46	0.6109
2126.4	0.5686
2135.34	0.6751
2144.27	0.8252
2153.21	0.826
2162.15	0.8248
2171.09	0.8216
2180.02	0.818
2188.96	0.8218
2197.9	0.818
2206.83	0.818
2215.77	0.818
2224.71	0.814
2233.65	0.816
2242.58	0.8117
2251.52	0.808
2260.46	0.804
2269.4	0.8
2278.33	0.8043
2287.27	0.808
2296.21	0.814
2305.15	0.8106
2314.08	0.798
2323.02	0.7785
2331.96	0.7764
2340.9	0.778
2349.83	0.7788
2358.77	0.792
2367.71	0.794
2376.65	0.796
2385.58	0.7985
2394.52	0.8055
2403.46	0.804
2412.39	0.806
2421.33	0.802
2430.27	0.7985
2439.21	0.798
2448.14	0.7995
2457.08	0.806
2466.02	0.806
2474.96	0.802
2483.89	0.7984
2492.83	0.798
2501.77	0.798
2510.71	0.7954
2519.64	0.794
2528.58	0.7946
2537.52	0.798
2546.46	0.794
2555.39	0.7957
2564.33	0.796
2573.27	0.794
2582.21	0.786
2591.14	0.7863
2600.08	0.786
2609.02	0.7806
2617.95	0.7915
2626.89	0.7863
2635.83	0.786
2644.77	0.7898
2653.7	0.794
2662.64	0.7922
2671.58	0.784
2680.52	0.7862
2689.45	0.784
2698.39	0.7898
2707.33	0.794
2716.27	0.7861
2725.2	0.782
2734.14	0.782
2743.08	0.788
2752.02	0.786
2760.95	0.784
2769.89	0.782
2778.83	0.774
2787.76	0.772
2796.7	0.766
2805.64	0.768
2814.58	0.782
2823.51	0.78
2832.45	0.78
2841.39	0.78
2850.33	0.772
2859.26	0.768
2868.2	0.76
2877.14	0.7559
2886.08	0.752
2895.01	0.7501
2903.95	0.7562
2912.89	0.7599
2921.83	0.7509
2930.76	0.744
2939.7	0.742
2948.64	0.7461
2957.58	0.7572
2966.51	0.7498
2975.45	0.744
2984.39	0.744
2993.32	0.7604
3002.26	0.7556
3011.2	0.7335
3020.14	0.6589
3029.07	0.5176
3038.01	0.4019
3046.95	0.2853
3055.89	0.2892
3064.82	0.3041
3073.76	0.1223
3082.7	0.1027
3091.64	0.1347
3100.57	0.1773
3109.51	0.2344
3118.45	0.4308
3127.39	0.6791
3136.32	0.7356
3145.26	0.74
3154.2	0.7226
3163.14	0.7216
3172.07	0.7359
3181.01	0.7536
3189.95	0.748
3198.88	0.744
3207.82	0.7504
3216.76	0.7585
3225.7	0.7585
3234.63	0.7555
3243.57	0.754
3252.51	0.7525
3261.45	0.754
3270.38	0.743
3279.32	0.7187
3288.26	0.6702
3297.2	0.5296
3306.13	0.3395
3315.07	0.0842
3324.01	0.0268
3332.95	0.0144
3341.88	0.018
3350.82	0.2965
3359.76	0.6225
3368.7	0.6956
3377.63	0.7247
3386.57	0.736
3395.51	0.7346
3404.44	0.728
3413.38	0.7354
3422.32	0.7457
3431.26	0.7447
3440.19	0.7423
3449.13	0.74
3458.07	0.7382
3467.01	0.734
3475.94	0.734
3484.88	0.7356
3493.82	0.744
3502.76	0.742
3511.69	0.7498
3520.63	0.7412
3529.57	0.7419
3538.51	0.744
3547.44	0.7459
3556.38	0.7462
3565.32	0.738
3574.26	0.746
3583.19	0.7421
3592.13	0.7441
3601.07	0.7322
3610	0.726
3618.94	0.732
3627.88	0.7327
3636.82	0.742
3645.75	0.72
3654.69	0.726
3663.63	0.729
3672.57	0.71
3681.5	0.7328
3690.44	0.7281
3699.38	0.7309
3708.32	0.724
3717.25	0.726
3726.19	0.7256
3735.13	0.7122
3744.07	0.7182
3753	0.7291
3761.94	0.726
3770.88	0.7343
3779.81	0.74
3788.75	0.7297
3797.69	0.7262
