Infrared Spectrum: BENZENE, ETHYNYL-
Formula: C8 H6
CAS: 536-74-3
State: SOLUTION (10% IN CCl4 FOR 3800-1333, 10% IN CS2 FOR 1333-450 CM^-^1)
Class: COBLENTZ III
Instrument: DOW KBr FOREPRISM-GRATING
Instrument parameters: BLAZED AT 3.5, 12.0, 20.0 MICRON, CHANGED AT 5.0, 7.5, 14.9 MICRON
Sampling: TRANSMISSION
Path length: 0.011, 0.012 CM
Resolution: 4
Origin: DOW CHEMICAL COMPANY
1/CM	TRANSMITTANCE
452.202	0.974
460.893	0.979
469.583	1.004
478.274	1.014
486.964	1.017
495.655	1.013
504.346	0.974
513.036	0.567
521.727	0.956
530.418	0.162
539.108	0.979
547.799	1.028
556.489	1.033
565.18	1.027
573.871	1.004
582.561	0.953
591.252	0.812
599.943	0.529
608.633	0.058
617.324	0.066
626.014	0.34
634.705	0.396
643.396	0.108
652.086	0.036
660.777	0.397
669.468	0.56
678.158	0.694
686.849	0.192
695.539	0.154
704.23	0.732
712.921	0.948
721.611	0.983
730.302	0.97
738.993	0.915
747.683	0.6369
756.374	0
765.064	0.242
773.755	0.871
782.446	0.964
791.136	0.989
799.827	0.997
808.518	1.005
817.208	1.009
825.899	1.001
834.589	0.978
843.28	0.911
851.971	0.848
860.661	0.845
869.352	0.877
878.043	0.872
886.733	0.937
895.424	0.998
904.114	0.951
912.805	0.557
921.496	0.865
930.186	0.976
938.877	1.024
947.568	1.023
956.258	1.016
964.949	1.002
973.639	1.004
982.33	0.986
991.021	1
999.711	0.995
1008.4	0.998
1017.09	0.964
1025.78	0.636
1034.47	0.966
1043.16	0.964
1051.85	0.967
1060.55	0.933
1069.24	0.61
1077.93	0.914
1086.62	0.981
1095.31	0.963
1104	0.987
1112.69	1.027
1121.38	1.029
1130.07	1.021
1138.76	1
1147.45	0.978
1156.14	0.932
1164.83	0.932
1173.52	0.902
1182.21	0.898
1190.9	0.867
1199.6	0.879
1208.29	0.724
1216.98	0.554
1225.67	0.58
1234.36	0.693
1243.05	0.777
1251.74	0.892
1260.43	0.919
1269.12	0.919
1277.81	0.898
1286.5	0.81
1295.19	0.869
1303.88	0.902
1312.57	0.959
1321.26	0.986
1329.95	0.971
1338.65	0.976
1347.34	1.012
1356.03	1.017
1364.72	1.013
1373.41	0.986
1382.1	0.978
1390.79	1.001
1399.48	0.997
1408.17	0.974
1416.86	0.982
1425.55	0.978
1434.24	0.953
1442.93	0.675
1451.62	0.917
1460.31	0.972
1469	0.964
1477.7	0.926
1486.39	0.542
1495.08	0.6071
1503.77	0.831
1512.46	0.757
1521.15	0.738
1529.84	0.677
1538.53	0.594
1547.22	0.518
1555.91	0.535
1564.6	0.637
1573.29	0.605
1581.98	0.705
1590.67	0.716
1599.36	0.674
1608.05	0.924
1616.75	0.978
1625.44	0.998
1634.13	1.013
1642.82	1.017
1651.51	1.005
1660.2	1
1668.89	0.933
1677.58	0.998
1686.27	1.012
1694.96	1.02
1703.65	1.014
1712.34	1.017
1721.03	1.012
1729.72	1.005
1738.41	0.985
1747.1	0.964
1755.8	0.949
1764.49	1.01
1773.18	1.014
1781.87	1.01
1790.56	1
1799.25	0.944
1807.94	0.968
1816.63	0.993
1825.32	0.986
1834.01	1.01
1842.7	1.013
1851.39	1.014
1860.08	1.012
1868.77	0.998
1877.46	0.925
1886.15	0.968
1894.85	0.944
1903.54	0.99
1912.23	1.014
1920.92	1.014
1929.61	1.009
1938.3	0.997
1946.99	0.902
1955.68	0.957
1964.37	0.959
1973.06	0.97
1981.75	1.01
1990.44	1.02
1999.13	1.005
2007.82	1.0055
2016.51	1.008
2025.2	1.006
2033.9	1.0171
2042.59	1.015
2051.28	1.009
2059.97	1.0085
2068.66	1.007
2077.35	1.008
2086.04	1.0045
2094.73	0.9991
2103.42	0.9774
2112.11	0.8821
2120.8	0.759
2129.49	0.9945
2138.18	1.013
2146.87	1.013
2155.56	1.013
2164.25	1.014
2172.95	1.014
2181.64	1.014
2190.33	1.014
2199.02	1.014
2207.71	1.014
2216.4	1.013
2225.09	1.0112
2233.78	1.01
2242.47	1.0016
2251.16	0.997
2259.85	1
2268.54	0.997
2277.23	0.983
2285.92	0.9864
2294.61	0.989
2303.3	0.987
2312	0.986
2320.69	0.9747
2329.38	0.9821
2338.07	0.9717
2346.76	0.9878
2355.45	0.998
2364.14	1.001
2372.83	0.981
2381.52	1.008
2390.21	1.006
2398.9	1.0067
2407.59	1.009
2416.28	1.009
2424.97	1.009
2433.66	1.009
2442.35	1.009
2451.05	1.009
2459.74	1.008
2468.43	1.006
2477.12	1.006
2485.81	1.0057
2494.5	1.005
2503.19	1.005
2511.88	1.006
2520.57	1.008
2529.26	1.006
2537.95	1.005
2546.64	1.005
2555.33	1.002
2564.02	1.001
2572.71	0.9977
2581.4	0.9994
2590.1	0.9994
2598.79	1.001
2607.48	1.0003
2616.17	0.9977
2624.86	0.9986
2633.55	1
2642.24	0.9994
2650.93	0.9977
2659.62	0.997
2668.31	0.994
2677	0.993
2685.69	0.9943
2694.38	0.994
2703.07	0.993
2711.76	0.993
2720.45	0.993
2729.15	0.991
2737.84	0.99
2746.53	0.987
2755.22	0.986
2763.91	0.985
2772.6	0.985
2781.29	0.9828
2789.98	0.975
2798.67	0.983
2807.36	0.983
2816.05	0.9818
2824.74	0.978
2833.43	0.976
2842.12	0.9716
2850.81	0.968
2859.5	0.9668
2868.2	0.96
2876.89	0.956
2885.58	0.96
2894.27	0.962
2902.96	0.959
2911.65	0.9558
2920.34	0.9466
2929.03	0.9338
2937.72	0.956
2946.41	0.956
2955.1	0.9507
2963.79	0.9396
2972.48	0.9282
2981.17	0.932
2989.86	0.9297
2998.55	0.9235
3007.25	0.9094
3015.94	0.8757
3024.63	0.7163
3033.32	0.739
3042.01	0.7633
3050.7	0.7532
3059.39	0.6549
3068.08	0.6297
3076.77	0.694
3085.46	0.5786
3094.15	0.6724
3102.84	0.7919
3111.53	0.8718
3120.22	0.9179
3128.91	0.9321
3137.6	0.93
3146.3	0.922
3154.99	0.9051
3163.68	0.9361
3172.37	0.9431
3181.06	0.9471
3189.75	0.9511
3198.44	0.952
3207.13	0.953
3215.82	0.952
3224.51	0.9508
3233.2	0.948
3241.89	0.9438
3250.58	0.9358
3259.27	0.9277
3267.96	0.9024
3276.65	0.8447
3285.35	0.7228
3294.04	0.4895
3302.73	0.242
3311.42	0.0538
3320.11	0.0368
3328.8	0.0439
3337.49	0.2783
3346.18	0.7135
3354.87	0.8234
3363.56	0.9151
3372.25	0.9382
3380.94	0.9491
3389.63	0.9561
3398.32	0.962
3407.01	0.967
3415.7	0.975
3424.4	0.978
3433.09	0.981
3441.78	0.978
3450.47	0.976
3459.16	0.976
3467.85	0.978
3476.54	0.978
3485.23	0.978
3493.92	0.985
3502.61	0.987
3511.3	0.987
3519.99	0.989
3528.68	0.99
3537.37	0.99
3546.06	0.99
3554.75	0.991
3563.45	0.9969
3572.14	1
3580.83	0.9941
3589.52	0.9911
3598.21	0.989
3606.9	0.99
3615.59	0.99
3624.28	0.989
3632.97	0.9901
3641.66	0.986
3650.35	0.985
3659.04	0.985
3667.73	0.9938
3676.42	0.997
3685.11	0.998
3693.8	0.997
3702.5	0.9932
3711.19	0.991
3719.88	0.9968
3728.57	0.9971
3737.26	1.001
3745.95	0.998
3754.64	0.997
3763.33	1.001
3772.02	1.0001
3780.71	0.9982
3789.4	1.0009
3798.09	1
