Infrared Spectrum: PROPANOL, 2-AMINO-1-PHENYL-, HYDROCHLORIDE
Formula: C9 H14 Cl N O
CAS: 53631-70-2
State: SOLID (OIL MULL, KBr PLATE)
Class: COBLENTZ
Instrument: PERKIN-ELMER 521 (GRATING)
Instrument parameters: FILTERS AT 3130, 2475, 2000, 1150, 700, 410. GRATING CHANGES: 1999, 690 CM^-^1
Sampling: TRANSMISSION
Resolution: 2
Origin: SMITH KLINE & FRENCH LABS.
1/CM	TRANSMITTANCE
246	0.2825
256	0.2785
266	0.2758
276	0.2758
286	0.2742
296	0.2807
306	0.2909
316	0.3182
326	0.3489
336	0.3991
346	0.431
356	0.4432
366	0.5591
376	0.588
386	0.578
396	0.5734
406	0.5093
416	0.6111
426	0.6384
436	0.521
446	0.7436
456	0.624
466	0.7317
476	0.7445
486	0.7278
496	0.6671
506	0.613
516	0.5462
526	0.3668
536	0.5734
546	0.5978
556	0.5905
566	0.6832
576	0.6997
586	0.6903
596	0.6061
606	0.492
616	0.5311
626	0.6754
636	0.7612
646	0.7807
656	0.7074
666	0.586
676	0.7351
686	0.7069
696	0.5347
706	0.1899
716	0.6055
726	0.6242
736	0.5051
746	0.1892
756	0.2721
766	0.6733
776	0.7634
786	0.7727
796	0.745
806	0.7007
816	0.6384
826	0.7518
836	0.7067
846	0.4794
856	0.7505
866	0.7576
876	0.7483
886	0.7302
896	0.7225
906	0.6997
916	0.5709
926	0.6262
936	0.5516
946	0.6653
956	0.6467
966	0.5078
976	0.534
986	0.5486
996	0.3402
1006	0.4642
1016	0.412
1026	0.1906
1036	0.2137
1046	0.3642
1056	0.1954
1066	0.4954
1076	0.4219
1086	0.3373
1096	0.512
1106	0.4924
1116	0.4631
1126	0.3652
1136	0.472
1146	0.5169
1156	0.5218
1166	0.5073
1176	0.4392
1186	0.4588
1196	0.3209
1206	0.2636
1216	0.4123
1226	0.51
1236	0.4149
1246	0.3052
1256	0.3786
1266	0.4473
1276	0.5562
1286	0.5508
1296	0.5121
1306	0.5082
1316	0.4621
1326	0.274
1336	0.2813
1346	0.4705
1356	0.4234
1366	0.3633
1376	0.2781
1386	0.2585
1396	0.3325
1406	0.3851
1416	0.4604
1426	0.4158
1436	0.2702
1446	0.1946
1456	0.1807
1466	0.2031
1476	0.2038
1486	0.1678
1496	0.1972
1506	0.2864
1516	0.4379
1526	0.5269
1536	0.5222
1546	0.5079
1556	0.4482
1566	0.3971
1576	0.2239
1586	0.1932
1596	0.1954
1606	0.3399
1616	0.3926
1626	0.3573
1636	0.5924
1646	0.6321
1656	0.6436
1666	0.65
1676	0.6453
1686	0.638
1696	0.6384
1706	0.6331
1716	0.6294
1726	0.6289
1736	0.6269
1746	0.6219
1756	0.6162
1766	0.6106
1776	0.6076
1786	0.6016
1796	0.5945
1806	0.595
1816	0.5926
1826	0.5935
1836	0.5927
1846	0.5902
1856	0.5871
1866	0.5849
1876	0.5745
1886	0.5455
1896	0.5419
1906	0.5207
1916	0.5023
1926	0.4979
1936	0.4743
1946	0.4548
1956	0.4299
1966	0.4151
1976	0.4023
1986	0.383
1996	0.3841
2006	0.4535
2016	0.4743
2026	0.4986
2036	0.5287
2046	0.53
2056	0.5324
2066	0.5367
2076	0.5408
2086	0.5389
2096	0.5369
2106	0.5336
2116	0.5305
2126	0.5282
2136	0.5265
2146	0.5247
2156	0.5229
2166	0.5206
2176	0.518
2186	0.5155
2196	0.5133
2206	0.5118
2216	0.5114
2226	0.5102
2236	0.5082
2246	0.5076
2256	0.508
2266	0.5078
2276	0.488
2286	0.4815
2296	0.4781
2306	0.4746
2316	0.4705
2326	0.4659
2336	0.4599
2346	0.4562
2356	0.4534
2366	0.4511
2376	0.4488
2386	0.4456
2396	0.4348
2406	0.4248
2416	0.4207
2426	0.4079
2436	0.3867
2446	0.3621
2456	0.3562
2466	0.3521
2476	0.3362
2486	0.335
2496	0.3422
2506	0.3555
2516	0.3563
2526	0.3469
2536	0.332
2546	0.3119
2556	0.2891
2566	0.2726
2576	0.2721
2586	0.2775
2596	0.2877
2606	0.2905
2616	0.2901
2626	0.2886
2636	0.2869
2646	0.2846
2656	0.2803
2666	0.2706
2676	0.2575
2686	0.2506
2696	0.2486
2706	0.2487
2716	0.248
2726	0.2414
2736	0.2319
2746	0.2209
2756	0.2091
2766	0.1978
2776	0.187
2786	0.1793
2796	0.1761
2806	0.1736
2816	0.1639
2826	0.1518
2836	0.1396
2846	0.1268
2856	0.1256
2866	0.1261
2876	0.1276
2886	0.1293
2896	0.1303
2906	0.131
2916	0.1321
2926	0.1333
2936	0.1354
2946	0.1376
2956	0.1397
2966	0.1417
2976	0.1438
2986	0.1459
2996	0.148
3006	0.1501
3016	0.1521
3026	0.156
3036	0.1618
3046	0.1649
3056	0.1668
3066	0.1678
3076	0.1688
3086	0.1707
3096	0.173
3106	0.176
3116	0.1803
3126	0.1829
3136	0.183
3146	0.1744
3156	0.1709
3166	0.172
3176	0.1759
3186	0.1873
3196	0.1886
3206	0.1904
3216	0.1922
3226	0.1929
3236	0.1913
3246	0.1853
3256	0.1726
3266	0.1592
3276	0.151
3286	0.1447
3296	0.1428
3306	0.1489
3316	0.1551
3326	0.1602
3336	0.1622
3346	0.1628
3356	0.1638
3366	0.1659
3376	0.1722
3386	0.1882
3396	0.1958
3406	0.2078
3416	0.2317
3426	0.2491
3436	0.2667
3446	0.2838
3456	0.3063
3466	0.3283
3476	0.3502
3486	0.3764
3496	0.3961
3506	0.4129
3516	0.4227
3526	0.4324
3536	0.4431
3546	0.449
3556	0.4522
3566	0.454
3576	0.4546
3586	0.4545
3596	0.4539
3606	0.4529
3616	0.4509
3626	0.4487
3636	0.446
3646	0.4432
3656	0.4406
3666	0.4379
3676	0.4341
3686	0.4308
3696	0.4283
3706	0.4268
3716	0.4257
3726	0.4251
3736	0.4248
3746	0.4236
3756	0.4217
3766	0.4175
3776	0.4155
3786	0.4136
3796	0.4116
3806	0.4094
3816	0.4073
3826	0.4053
3836	0.4034
3846	0.4015
3856	0.3996
3866	0.3979
3876	0.3963
3886	0.3944
3896	0.392
3906	0.3896
3916	0.3873
3926	0.3855
3936	0.3838
3946	0.3822
3956	0.381
3966	0.3812
3976	0.3799
3986	0.3798
3996	0.3797
