Infrared Spectrum: ETHYNYLBENZENE
Formula: C8 H6
CAS: 536-74-3
State: SOLUTION (10% CCl4 FOR 2.5-7.5, 10% CS2 FOR 7.5-15 MICRON)
Class: COBLENTZ
Instrument: Not specified, most likely a prism, grating, or hybrid spectrometer.
Sampling: TRANSMISSION
Path length: 0.01 CM, 0.01 CM
Resolution: 4
Origin: DOW CHEMICAL COMPANY
MICROMETERS	TRANSMITTANCE
2.028	0.94
2.06686	0.94
2.10572	0.94
2.14458	0.936
2.18344	0.942
2.2223	0.948
2.26116	0.947
2.30002	0.945
2.33889	0.948
2.37775	0.948
2.41661	0.944
2.45547	0.939
2.49433	0.942
2.53319	0.933
2.57205	0.933
2.61091	0.945
2.64977	0.947
2.68863	0.952
2.72749	0.945
2.76635	0.948
2.80521	0.95
2.84407	0.945
2.88293	0.944
2.92179	0.936
2.96066	0.787
2.99952	0.354
3.03838	0.497
3.07724	0.896
3.1161	0.928
3.15496	0.923
3.19382	0.87
3.23268	0.717
3.27154	0.671
3.3104	0.746
3.34926	0.881
3.38812	0.909
3.42698	0.915
3.46584	0.923
3.5047	0.934
3.54356	0.94
3.58243	0.944
3.62129	0.944
3.66015	0.948
3.69901	0.948
3.73787	0.948
3.77673	0.948
3.81559	0.948
3.85445	0.947
3.89331	0.947
3.93217	0.948
3.97103	0.948
4.00989	0.948
4.04875	0.948
4.08761	0.948
4.12647	0.948
4.16534	0.944
4.2042	0.944
4.24306	0.948
4.28192	0.948
4.32078	0.948
4.35964	0.948
4.3985	0.947
4.43736	0.945
4.47622	0.948
4.51508	0.947
4.55394	0.95
4.5928	0.95
4.63166	0.95
4.67052	0.948
4.70938	0.925
4.74824	0.829
4.78711	0.917
4.82597	0.939
4.86483	0.948
4.90369	0.948
4.94255	0.95
4.98141	0.947
5.02027	0.944
5.05913	0.91
5.09799	0.87
5.13685	0.867
5.17571	0.925
5.21457	0.931
5.25343	0.893
5.29229	0.872
5.33115	0.897
5.37002	0.933
5.40888	0.934
5.44774	0.925
5.4866	0.909
5.52546	0.869
5.56432	0.896
5.60318	0.909
5.64204	0.91
5.6809	0.867
5.71976	0.877
5.75862	0.901
5.79748	0.888
5.83634	0.896
5.8752	0.897
5.91406	0.889
5.95292	0.869
5.99179	0.877
6.03065	0.893
6.06951	0.912
6.10837	0.913
6.14723	0.905
6.18609	0.885
6.22495	0.765
6.26381	0.822
6.30267	0.822
6.34153	0.808
6.38039	0.851
6.41925	0.872
6.45811	0.87
6.49697	0.867
6.53583	0.859
6.57469	0.854
6.61356	0.845
6.65242	0.693
6.69128	0.395
6.73014	0.732
6.769	0.877
6.80786	0.872
6.84672	0.792
6.88558	0.57
6.92444	0.821
6.9633	0.885
7.00216	0.894
7.04102	0.907
7.07988	0.902
7.11874	0.896
7.1576	0.894
7.19647	0.878
7.23533	0.874
7.27419	0.881
7.31305	0.889
7.35191	0.904
7.39077	0.896
7.42963	0.878
7.46849	0.861
7.50735	0.854
7.54621	0.851
7.58507	0.837
7.62393	0.81
7.66279	0.778
7.70165	0.765
7.74051	0.744
7.77937	0.738
7.81824	0.783
7.8571	0.797
7.89596	0.807
7.93482	0.8
7.97368	0.776
8.01254	0.716
8.0514	0.663
8.09026	0.61
8.12912	0.55
8.16798	0.499
8.20684	0.502
8.2457	0.559
8.28456	0.661
8.32342	0.73
8.36228	0.741
8.40114	0.746
8.44001	0.755
8.47887	0.754
8.51773	0.759
8.55659	0.771
8.59545	0.768
8.63431	0.765
8.67317	0.786
8.71203	0.799
8.75089	0.807
8.78975	0.813
8.82861	0.821
8.86747	0.83
8.90633	0.838
8.94519	0.838
8.98405	0.843
9.02292	0.838
9.06178	0.824
9.10064	0.807
9.1395	0.821
9.17836	0.838
9.21722	0.846
9.25608	0.832
9.29494	0.771
9.3338	0.625
9.37266	0.601
9.41152	0.757
9.45038	0.83
9.48924	0.862
9.5281	0.87
9.56696	0.872
9.60582	0.875
9.64469	0.872
9.68355	0.783
9.72241	0.625
9.76127	0.631
9.80013	0.807
9.83899	0.85
9.87785	0.872
9.91671	0.881
9.95557	0.881
9.99443	0.878
10.0333	0.875
10.0722	0.885
10.111	0.889
10.1499	0.888
10.1887	0.883
10.2276	0.888
10.2665	0.893
10.3053	0.894
10.3442	0.894
10.383	0.894
10.4219	0.893
10.4608	0.899
10.4996	0.905
10.5385	0.907
10.5773	0.909
10.6162	0.904
10.6551	0.896
10.6939	0.897
10.7328	0.883
10.7716	0.866
10.8105	0.851
10.8494	0.805
10.8882	0.665
10.9271	0.508
10.9659	0.513
11.0048	0.696
11.0437	0.791
11.0825	0.842
11.1214	0.875
11.1603	0.896
11.1991	0.905
11.238	0.912
11.2768	0.905
11.3157	0.874
11.3546	0.851
11.3934	0.872
11.4323	0.896
11.4711	0.909
11.51	0.915
11.5489	0.918
11.5877	0.92
11.6266	0.923
11.6654	0.925
11.7043	0.928
11.7432	0.928
11.782	0.923
11.8209	0.909
11.8597	0.897
11.8986	0.883
11.9375	0.883
11.9763	0.886
12.0152	0.896
12.054	0.897
12.0929	0.902
12.1318	0.904
12.1706	0.905
12.2095	0.904
12.2483	0.907
12.2872	0.91
12.3261	0.912
12.3649	0.912
12.4038	0.907
12.4427	0.904
12.4815	0.899
12.5204	0.899
12.5592	0.899
12.5981	0.897
12.637	0.889
12.6758	0.885
12.7147	0.878
12.7535	0.867
12.7924	0.858
12.8313	0.843
12.8701	0.826
12.909	0.803
12.9478	0.775
12.9867	0.733
13.0256	0.658
13.0644	0.515
13.1033	0.413
13.1421	0.218
13.181	0.095
13.2199	0.049
13.2587	0.041
13.2976	0.054
13.3364	0.151
13.3753	0.306
13.4142	0.526
13.453	0.637
13.4919	0.733
13.5307	0.778
13.5696	0.8
13.6085	0.811
13.6473	0.813
13.6862	0.803
13.7251	0.795
13.7639	0.808
13.8028	0.834
13.8416	0.856
13.8805	0.869
13.9194	0.872
13.9582	0.87
13.9971	0.87
14.0359	0.856
14.0748	0.835
14.1137	0.81
14.1525	0.775
14.1914	0.708
14.2302	0.653
14.2691	0.582
14.308	0.481
14.3468	0.39
14.3857	0.304
14.4245	0.215
14.4634	0.146
14.5023	0.122
14.5411	0.149
14.58	0.223
14.6188	0.37
14.6577	0.481
14.6966	0.551
14.7354	0.602
14.7743	0.626
14.8132	0.636
14.852	0.639
14.8909	0.639
14.9297	0.634
14.9686	0.629
15.0075	0.623
15.0463	0.609
15.0852	0.585
15.124	0.567
15.1629	0.54
15.2018	0.508
15.2406	0.48
15.2795	0.449
15.3183	0.425
15.3572	0.4
15.3961	0.379
15.4349	0.371
15.4738	0.368
15.5126	0.366
15.5515	0.37
15.5904	0.381
15.6292	0.395
15.6681	0.414
15.7069	0.432
15.7458	0.449
15.7847	0.473
15.8235	0.486
15.8624	0.499
15.9012	0.507
15.9401	0.513
15.979	0.508
