Infrared Spectrum: 2-PROPENOIC ACID, 3-(3-HYDROXY-4-METHOXYPHENYL)-
Formula: C10 H10 O4
CAS: 537-73-5
State: SOLID (SPLIT MULL, FLUOROLUBE FOR 3800-1340 AND NUJOL FOR 1340-470 CM ^-^1)
Class: COBLENTZ II
Instrument: DOW KBr FOREPRISM-GRATING
Instrument parameters: BLAZED AT 3.5, 12.0, 20.0 MICRON, CHANGED AT 5.0, 7.5, 14.9 MICRON
Sampling: TRANSMISSION
Resolution: 4
Origin: DOW CHEMICAL COMPANY
1/CM	TRANSMITTANCE
464.286	0.953
472.997	0.942
481.708	0.921
490.418	0.891
499.129	0.834
507.84	0.73
516.551	0.929
525.262	0.946
533.972	0.948
542.683	0.941
551.394	0.929
560.105	0.882
568.816	0.77
577.526	0.847
586.237	0.921
594.948	0.955
603.659	0.96
612.37	0.97
621.08	0.998
629.791	1.002
638.502	1.004
647.213	1.004
655.924	1.001
664.634	0.998
673.345	0.994
682.056	0.978
690.767	0.868
699.478	1.006
708.188	0.998
716.899	0.979
725.61	0.985
734.321	0.951
743.032	0.993
751.742	0.97
760.453	0.741
769.164	0.931
777.875	0.979
786.586	1.001
795.296	0.995
804.007	0.98
812.718	0.7559
821.429	0.813
830.14	0.967
838.85	0.974
847.561	0.965
856.272	0.638
864.983	0.934
873.694	0.955
882.404	0.955
891.115	0.948
899.826	0.942
908.537	0.927
917.248	0.892
925.958	0.81
934.669	0.614
943.38	0.593
952.091	0.61
960.802	0.748
969.512	0.759
978.223	0.644
986.934	0.925
995.645	0.929
1004.36	0.911
1013.07	0.843
1021.78	0.544
1030.49	0.926
1039.2	0.955
1047.91	0.956
1056.62	0.957
1065.33	0.955
1074.04	0.946
1082.75	0.944
1091.46	0.936
1100.17	0.923
1108.89	0.896
1117.6	0.848
1126.31	0.6459
1135.02	0.2471
1143.73	0.812
1152.44	0.617
1161.15	0.805
1169.86	0.891
1178.57	0.809
1187.28	0.85
1195.99	0.745
1204.7	0.402
1213.41	0.613
1222.13	0.676
1230.84	0.552
1239.55	0.4
1248.26	0.488
1256.97	0.198
1265.68	0.146
1274.39	0.161
1283.1	0.564
1291.81	0.525
1300.52	0.376
1309.23	0.331
1317.94	0.289
1326.66	0.59
1335.37	0.775
1344.08	0.842
1352.79	0.717
1361.5	0.741
1370.21	0.888
1378.92	0.931
1387.63	0.931
1396.34	0.922
1405.05	0.88
1413.76	0.76
1422.47	0.691
1431.18	0.753
1439.9	0.531
1448.61	0.668
1457.32	0.746
1466.03	0.885
1474.74	0.882
1483.45	0.877
1492.16	0.85
1500.87	0.696
1509.58	0.2199
1518.29	0.3781
1527	0.82
1535.71	0.878
1544.43	0.925
1553.14	0.927
1561.85	0.911
1570.56	0.855
1579.27	0.689
1587.98	0.816
1596.69	0.776
1605.4	0.563
1614.11	0.3381
1622.82	0.4039
1631.53	0.4311
1640.24	0.727
1648.95	0.725
1657.67	0.553
1666.38	0.28
1675.09	0.28
1683.8	0.386
1692.51	0.346
1701.22	0.6441
1709.93	0.851
1718.64	0.927
1727.35	0.965
1736.06	0.974
1744.77	0.976
1753.48	0.974
1762.2	0.978
1770.91	0.971
1779.62	0.965
1788.33	0.955
1797.04	0.955
1805.75	0.955
1814.46	0.957
1823.17	0.956
1831.88	0.953
1840.59	0.952
1849.3	0.949
1858.01	0.944
1866.72	0.931
1875.44	0.938
1884.15	0.942
1892.86	0.938
1901.57	0.945
1910.28	0.946
1918.99	0.949
1927.7	0.946
1936.41	0.945
1945.12	0.944
1953.83	0.949
1962.54	0.948
1971.25	0.949
1979.97	0.948
1988.68	0.945
1997.39	0.944
2006.1	0.944
2014.81	0.9405
2023.52	0.9305
2032.23	0.93
2040.94	0.9319
2049.65	0.938
2058.36	0.941
2067.07	0.937
2075.78	0.934
2084.49	0.931
2093.21	0.9266
2101.92	0.931
2110.63	0.926
2119.34	0.9227
2128.05	0.919
2136.76	0.918
2145.47	0.919
2154.18	0.918
2162.89	0.9143
2171.6	0.9135
2180.31	0.907
2189.02	0.9056
2197.74	0.9038
2206.45	0.899
2215.16	0.8918
2223.87	0.8837
2232.58	0.8809
2241.29	0.8757
2250	0.8716
2258.71	0.8628
2267.42	0.8537
2276.13	0.848
2284.84	0.8469
2293.55	0.8439
2302.26	0.842
2310.98	0.84
2319.69	0.838
2328.4	0.835
2337.11	0.832
2345.82	0.8251
2354.53	0.819
2363.24	0.814
2371.95	0.813
2380.66	0.81
2389.37	0.805
2398.08	0.8001
2406.79	0.794
2415.51	0.7891
2424.22	0.7803
2432.93	0.7742
2441.64	0.7675
2450.35	0.7592
2459.06	0.7526
2467.77	0.7452
2476.48	0.736
2485.19	0.7235
2493.9	0.7125
2502.61	0.704
2511.32	0.6953
2520.03	0.6927
2528.75	0.6899
2537.46	0.6843
2546.17	0.6786
2554.88	0.676
2563.59	0.672
2572.3	0.6661
2581.01	0.661
2589.72	0.6672
2598.43	0.673
2607.14	0.6752
2615.85	0.6897
2624.56	0.692
2633.28	0.689
2641.99	0.691
2650.7	0.693
2659.41	0.692
2668.12	0.69
2676.83	0.695
2685.54	0.697
2694.25	0.697
2702.96	0.6956
2711.67	0.693
2720.38	0.6994
2729.09	0.7042
2737.8	0.707
2746.52	0.706
2755.23	0.708
2763.94	0.712
2772.65	0.708
2781.36	0.6997
2790.07	0.6927
2798.78	0.6871
2807.49	0.6734
2816.2	0.6602
2824.91	0.646
2833.62	0.6355
2842.33	0.6282
2851.05	0.6515
2859.76	0.6664
2868.47	0.6654
2877.18	0.658
2885.89	0.648
2894.6	0.643
2903.31	0.6417
2912.02	0.635
2920.73	0.632
2929.44	0.6266
2938.15	0.6143
2946.86	0.6281
2955.57	0.6391
2964.29	0.644
2973	0.639
2981.71	0.65
2990.42	0.663
2999.13	0.67
3007.84	0.666
3016.55	0.6839
3025.26	0.693
3033.97	0.693
3042.68	0.696
3051.39	0.699
3060.1	0.707
3068.82	0.7168
3077.53	0.7259
3086.24	0.7357
3094.95	0.741
3103.66	0.7524
3112.37	0.7625
3121.08	0.7678
3129.79	0.7718
3138.5	0.7776
3147.21	0.7788
3155.92	0.779
3164.63	0.78
3173.34	0.782
3182.06	0.7783
3190.77	0.7774
3199.48	0.7743
3208.19	0.772
3216.9	0.7657
3225.61	0.763
3234.32	0.76
3243.03	0.757
3251.74	0.7495
3260.45	0.7392
3269.16	0.7348
3277.87	0.726
3286.58	0.7133
3295.3	0.7049
3304.01	0.6939
3312.72	0.6809
3321.43	0.6665
3330.14	0.6505
3338.85	0.628
3347.56	0.62
3356.27	0.6045
3364.98	0.598
3373.69	0.5936
3382.4	0.579
3391.11	0.5614
3399.83	0.5666
3408.54	0.5931
3417.25	0.6309
3425.96	0.6651
3434.67	0.6957
3443.38	0.717
3452.09	0.7319
3460.8	0.7413
3469.51	0.7466
3478.22	0.7576
3486.93	0.7753
3495.64	0.7955
3504.35	0.8122
3513.07	0.8239
3521.78	0.8317
3530.49	0.835
3539.2	0.8382
3547.91	0.842
3556.62	0.843
3565.33	0.843
3574.04	0.8421
3582.75	0.844
3591.46	0.8429
3600.17	0.842
3608.88	0.84
3617.6	0.84
3626.31	0.838
3635.02	0.836
3643.73	0.835
3652.44	0.832
3661.15	0.831
3669.86	0.829
3678.57	0.829
3687.28	0.827
3695.99	0.825
3704.7	0.824
3713.41	0.8211
3722.12	0.821
3730.84	0.82
3739.55	0.8161
3748.26	0.814
3756.97	0.8131
3765.68	0.8103
3774.39	0.81
3783.1	0.812
3791.81	0.81
