Infrared Spectrum: BENZYL SULFIDE
Formula: C14 H14 S
CAS: 538-74-9
State: SOLID (MINERAL OIL MULL)
Melting point: 48-49 C
Class: COBLENTZ
Instrument: Not specified, most likely a prism, grating, or hybrid spectrometer.
Sampling: TRANSMISSION
Resolution: 4
Origin: WYANDOTTE CHEMICALS CORP., WYANDOTTE, MICHIGAN, USA
MICROMETERS	TRANSMITTANCE
2.02	0.323
2.06082	0.319
2.10164	0.338
2.14245	0.333
2.18327	0.318
2.22409	0.333
2.26491	0.321
2.30572	0.321
2.34654	0.318
2.38736	0.319
2.42818	0.323
2.46899	0.338
2.50981	0.333
2.55063	0.34
2.59145	0.341
2.63226	0.355
2.67308	0.348
2.7139	0.343
2.75472	0.331
2.79553	0.329
2.83635	0.323
2.87717	0.316
2.91799	0.318
2.9588	0.321
2.99962	0.323
3.04044	0.319
3.08126	0.301
3.12207	0.302
3.16289	0.301
3.20371	0.273
3.24453	0.207
3.28534	0.147
3.32616	0.115
3.36698	0.052
3.4078	0.049
3.44861	0.102
3.48943	0.091
3.53025	0.38
3.57107	0.433
3.61188	0.448
3.6527	0.43
3.69352	0.443
3.73434	0.426
3.77515	0.438
3.81597	0.438
3.85679	0.459
3.89761	0.45
3.93842	0.462
3.97924	0.46
4.02006	0.477
4.06088	0.472
4.10169	0.479
4.14251	0.476
4.18333	0.488
4.22415	0.457
4.26496	0.465
4.30578	0.494
4.3466	0.508
4.38742	0.505
4.42823	0.508
4.46905	0.517
4.50987	0.506
4.55069	0.506
4.5915	0.523
4.63232	0.528
4.67314	0.532
4.71396	0.537
4.75477	0.537
4.79559	0.554
4.83641	0.568
4.87723	0.561
4.91805	0.564
4.95886	0.559
4.99968	0.574
5.0405	0.569
5.08132	0.527
5.12213	0.549
5.16295	0.537
5.20377	0.579
5.24459	0.579
5.2854	0.537
5.32622	0.532
5.36704	0.579
5.40786	0.591
5.44867	0.6
5.48949	0.6
5.53031	0.518
5.57113	0.596
5.61194	0.591
5.65276	0.588
5.69358	0.581
5.7344	0.602
5.77521	0.591
5.81603	0.622
5.85685	0.603
5.89767	0.59
5.93848	0.596
5.9793	0.619
6.02012	0.627
6.06094	0.612
6.10175	0.6
6.14257	0.619
6.18339	0.421
6.22421	0.573
6.26502	0.506
6.30584	0.605
6.34666	0.598
6.38748	0.608
6.42829	0.627
6.46911	0.658
6.50993	0.653
6.55075	0.639
6.59156	0.641
6.63238	0.129
6.6732	0.335
6.71402	0.387
6.75483	0.255
6.79565	0.234
6.83647	0.137
6.87729	0.372
6.9181	0.522
6.95892	0.598
6.99974	0.367
7.04056	0.176
7.08137	0.501
7.12219	0.53
7.16301	0.522
7.20383	0.414
7.24464	0.505
7.28546	0.568
7.32628	0.646
7.3671	0.661
7.40791	0.661
7.44873	0.673
7.48955	0.641
7.53037	0.586
7.57118	0.663
7.612	0.688
7.65282	0.704
7.69364	0.709
7.73445	0.714
7.77527	0.724
7.81609	0.714
7.85691	0.717
7.89773	0.727
7.93854	0.717
7.97936	0.685
8.02018	0.62
8.061	0.358
8.10181	0.52
8.14263	0.687
8.18345	0.739
8.22427	0.736
8.26508	0.748
8.3059	0.646
8.34672	0.726
8.38754	0.722
8.42835	0.687
8.46917	0.698
8.50999	0.7
8.55081	0.622
8.59162	0.615
8.63244	0.705
8.67326	0.739
8.71408	0.714
8.75489	0.59
8.79571	0.663
8.83653	0.69
8.87735	0.663
8.91816	0.658
8.95898	0.646
8.9998	0.664
9.04062	0.714
9.08143	0.732
9.12225	0.738
9.16307	0.709
9.20389	0.673
9.2447	0.411
9.28552	0.198
9.32634	0.428
9.36716	0.602
9.40797	0.678
9.44879	0.71
9.48961	0.731
9.53043	0.738
9.57124	0.739
9.61206	0.727
9.65288	0.67
9.6937	0.462
9.73451	0.663
9.77533	0.731
9.81615	0.761
9.85697	0.775
9.89778	0.773
9.9386	0.678
9.97942	0.775
10.0202	0.627
10.0611	0.712
10.1019	0.801
10.1427	0.824
10.1835	0.828
10.2243	0.824
10.2651	0.78
10.306	0.801
10.3468	0.831
10.3876	0.831
10.4284	0.85
10.4692	0.855
10.51	0.86
10.5509	0.869
10.5917	0.865
10.6325	0.877
10.6733	0.874
10.7141	0.862
10.755	0.845
10.7958	0.831
10.8366	0.707
10.8774	0.675
10.9182	0.545
10.959	0.59
10.9999	0.812
11.0407	0.845
11.0815	0.78
11.1223	0.627
11.1631	0.607
11.2039	0.758
11.2448	0.824
11.2856	0.852
11.3264	0.865
11.3672	0.886
11.408	0.903
11.4489	0.909
11.4897	0.92
11.5305	0.92
11.5713	0.926
11.6121	0.93
11.6529	0.93
11.6938	0.926
11.7346	0.877
11.7754	0.858
11.8162	0.899
11.857	0.862
11.8978	0.877
11.9387	0.928
11.9795	0.926
12.0203	0.926
12.0611	0.923
12.1019	0.896
12.1427	0.826
12.1836	0.795
12.2244	0.877
12.2652	0.904
12.306	0.92
12.3468	0.897
12.3877	0.833
12.4285	0.778
12.4693	0.84
12.5101	0.877
12.5509	0.887
12.5917	0.894
12.6326	0.887
12.6734	0.869
12.7142	0.838
12.755	0.795
12.7958	0.693
12.8366	0.438
12.8775	0.161
12.9183	0.071
12.9591	0.284
12.9999	0.503
13.0407	0.664
13.0816	0.75
13.1224	0.795
13.1632	0.811
13.204	0.823
13.2448	0.819
13.2856	0.812
13.3265	0.801
13.3673	0.79
13.4081	0.79
13.4489	0.789
13.4897	0.785
13.5305	0.775
13.5714	0.76
13.6122	0.736
13.653	0.714
13.6938	0.681
13.7346	0.641
13.7755	0.596
13.8163	0.54
13.8571	0.471
13.8979	0.408
13.9387	0.335
13.9795	0.277
14.0204	0.2
14.0612	0.149
14.102	0.1
14.1428	0.073
14.1836	0.066
14.2244	0.062
14.2653	0.064
14.3061	0.073
14.3469	0.088
14.3877	0.095
14.4285	0.115
14.4693	0.18
14.5102	0.261
14.551	0.35
14.5918	0.416
14.6326	0.459
14.6734	0.482
14.7143	0.498
14.7551	0.518
14.7959	0.508
14.8367	0.481
14.8775	0.454
14.9183	0.435
14.9592	0.438
15	0.454
15.0408	0.476
15.0816	0.505
15.1224	0.561
15.1632	0.588
15.2041	0.634
15.2449	0.642
15.2857	0.658
15.3265	0.659
15.3673	0.659
15.4082	0.658
15.449	0.653
15.4898	0.647
15.5306	0.651
15.5714	0.646
15.6122	0.627
15.6531	0.622
15.6939	0.613
15.7347	0.596
15.7755	0.586
15.8163	0.578
15.8571	0.564
15.898	0.545
15.9388	0.535
15.9796	0.523
