Infrared Spectrum: ISOOCTANE
Formula: C8 H18
CAS: 540-84-1
State: GAS (16 mmHg, N2 ADD, TOTAL PRESSURE 600 mmHg)
Class: COBLENTZ
Instrument: DIGILAB FTS-14 (2 CM^-^1 RESOLUTION)
Sampling: TRANSMISSION
Path length: 10 CM
Resolution: 2
Origin: DOW CHEMICAL COMPANY
1/CM	TRANSMITTANCE
470.456	0.004
478.142	0.004
485.828	0.004
493.515	0.004
501.201	0.004
508.887	0.004
516.573	0.004
524.259	0.006
531.945	0.018
539.632	0.022
547.318	0.028
555.004	0.052
562.69	0.08
570.376	0.0979
578.063	0.141
585.749	0.173
593.435	0.217
601.121	0.266
608.807	0.306
616.494	0.356
624.18	0.423
631.866	0.455
639.552	0.514
647.238	0.556
654.924	0.61
662.611	0.641
670.297	0.6909
677.983	0.727
685.669	0.766
693.355	0.796
701.042	0.816
708.728	0.842
716.414	0.862
724.1	0.879
731.786	0.899
739.473	0.907
747.159	0.915
754.845	0.935
762.531	0.951
770.217	0.957
777.903	0.961
785.59	0.969
793.276	0.979
800.962	0.983
808.648	0.983
816.334	0.979
824.021	0.975
831.707	0.973
839.393	0.975
847.079	0.983
854.765	0.987
862.451	0.987
870.138	0.983
877.824	0.983
885.51	0.987
893.196	1
900.882	0.997
908.569	0.985
916.255	0.975
923.941	0.959
931.627	0.943
939.313	0.961
947	0.987
954.686	0.995
962.372	0.987
970.058	0.961
977.744	0.887
985.43	0.854
993.117	0.9149
1000.8	0.989
1008.49	0.997
1016.18	0.993
1023.86	0.997
1031.55	1
1039.23	0.997
1046.92	0.993
1054.61	0.991
1062.29	0.995
1069.98	0.997
1077.66	0.995
1085.35	0.989
1093.04	0.981
1100.72	0.971
1108.41	0.965
1116.1	0.967
1123.78	0.971
1131.47	0.975
1139.15	0.985
1146.84	0.985
1154.53	0.981
1162.21	0.957
1169.9	0.8791
1177.59	0.788
1185.27	0.8159
1192.96	0.923
1200.64	0.887
1208.33	0.794
1216.02	0.721
1223.7	0.7999
1231.39	0.915
1239.07	0.937
1246.76	0.8561
1254.45	0.729
1262.13	0.7579
1269.82	0.883
1277.51	0.933
1285.19	0.905
1292.88	0.883
1300.56	0.885
1308.25	0.905
1315.94	0.925
1323.62	0.941
1331.31	0.945
1339	0.945
1346.68	0.925
1354.37	0.826
1362.05	0.5663
1369.74	0.31
1377.43	0.197
1385.11	0.3559
1392.8	0.554
1400.48	0.516
1408.17	0.594
1415.86	0.8479
1423.54	0.901
1431.23	0.901
1438.92	0.864
1446.6	0.8
1454.29	0.6811
1461.97	0.497
1469.66	0.308
1477.35	0.205
1485.03	0.258
1492.72	0.4448
1500.4	0.7519
1508.09	0.887
1515.78	0.935
1523.46	0.929
1531.15	0.949
1538.84	0.943
1546.52	0.941
1554.21	0.955
1561.89	0.925
1569.58	0.947
1577.27	0.941
1584.95	0.937
1592.64	0.931
1600.33	0.929
1608.01	0.929
1615.7	0.933
1623.38	0.933
1631.07	0.935
1638.76	0.913
1646.44	0.933
1654.13	0.935
1661.81	0.941
1669.5	0.941
1677.19	0.935
1684.87	0.941
1692.56	0.947
1700.25	0.923
1707.93	0.947
1715.62	0.947
1723.3	0.933
1730.99	0.947
1738.68	0.923
1746.36	0.947
1754.05	0.945
1761.74	0.951
1769.42	0.953
1777.11	0.943
1784.79	0.955
1792.48	0.957
1800.17	0.951
1807.85	0.953
1815.54	0.955
1823.22	0.957
1830.91	0.953
1838.6	0.955
1846.28	0.957
1853.97	0.955
1861.66	0.955
1869.34	0.957
1877.03	0.955
1884.71	0.955
1892.4	0.953
1900.09	0.955
1907.77	0.957
1915.46	0.957
1923.15	0.955
1930.83	0.957
1938.52	0.957
1946.2	0.957
1953.89	0.957
1961.58	0.957
1969.26	0.959
1976.95	0.961
1984.63	0.959
1992.32	0.953
2000.01	0.929
2007.69	0.959
2015.38	0.961
2023.07	0.961
2030.75	0.961
2038.44	0.961
2046.12	0.9649
2053.81	0.967
2061.5	0.967
2069.18	0.967
2076.87	0.9686
2084.56	0.9691
2092.24	0.969
2099.93	0.9691
2107.61	0.967
2115.3	0.965
2122.99	0.967
2130.67	0.969
2138.36	0.971
2146.04	0.9729
2153.73	0.9749
2161.42	0.975
2169.1	0.975
2176.79	0.975
2184.48	0.973
2192.16	0.9711
2199.85	0.971
2207.53	0.971
2215.22	0.9729
2222.91	0.977
2230.59	0.979
2238.28	0.981
2245.96	0.981
2253.65	0.981
2261.34	0.981
2269.02	0.979
2276.71	0.977
2284.4	0.975
2292.08	0.975
2299.77	0.977
2307.45	0.979
2315.14	0.9828
2322.83	0.983
2330.51	0.981
2338.2	0.9828
2345.89	0.985
2353.57	0.981
2361.26	0.977
2368.94	0.9732
2376.63	0.973
2384.32	0.973
2392	0.971
2399.69	0.971
2407.37	0.973
2415.06	0.973
2422.75	0.977
2430.43	0.979
2438.12	0.979
2445.81	0.979
2453.49	0.977
2461.18	0.9753
2468.86	0.9733
2476.55	0.971
2484.24	0.971
2491.92	0.9727
2499.61	0.973
2507.3	0.973
2514.98	0.975
2522.67	0.977
2530.35	0.977
2538.04	0.9733
2545.73	0.971
2553.41	0.9674
2561.1	0.9634
2568.78	0.9594
2576.47	0.9554
2584.16	0.949
2591.84	0.9454
2599.53	0.9414
2607.22	0.9358
2614.9	0.933
2622.59	0.931
2630.27	0.9294
2637.96	0.9254
2645.65	0.9154
2653.33	0.917
2661.02	0.9206
2668.71	0.923
2676.39	0.9174
2684.08	0.9079
2691.76	0.897
2699.45	0.8914
2707.14	0.8835
2714.82	0.8795
2722.51	0.8558
2730.19	0.8319
2737.88	0.8345
2745.57	0.8571
2753.25	0.864
2760.94	0.862
2768.63	0.8615
2776.31	0.8675
2784	0.87
2791.68	0.8671
2799.37	0.853
2807.06	0.8266
2814.74	0.7958
2822.43	0.7566
2830.12	0.7141
2837.8	0.657
2845.49	0.564
2853.17	0.4487
2860.86	0.365
2868.55	0.2574
2876.23	0.075
2883.92	0.0217
2891.6	0.0237
2899.29	0.0311
2906.98	0.0137
2914.66	0.0026
2922.35	0.0088
2930.04	0.0413
2937.72	0.0478
2945.41	0.0124
2953.09	0.0012
2960.78	0
2968.47	0
2976.15	0
2983.84	0.0103
2991.53	0.1398
2999.21	0.3011
3006.9	0.4691
3014.58	0.6036
3022.27	0.7016
3029.96	0.7635
3037.64	0.796
3045.33	0.8093
3053.01	0.8133
3060.7	0.82
3068.39	0.818
3076.07	0.8193
3083.76	0.822
3091.45	0.826
3099.13	0.824
3106.82	0.824
3114.5	0.8207
3122.19	0.8187
3129.88	0.812
3137.56	0.8067
3145.25	0.8027
3152.93	0.7927
3160.62	0.7887
3168.31	0.784
3175.99	0.776
3183.68	0.7707
3191.37	0.7648
