Infrared Spectrum: 2,2,4-TRIMETHYLPENTANE
Formula: C8 H18
CAS: 540-84-1
State: SOLUTION (10% IN CCl4 FOR 3800-1330 CM^-^1, 10% IN CS2 FOR 1330-400 CM^-^1)
Class: COBLENTZ III
Instrument: DOW KBr FOREPRISM-GRATING
Instrument parameters: GRATING BLAZED AT 3.5, 12.0, 20.0 MICRONS AND CHANGED AT 5.0, 7.5, 14.9 MICRONS
Sampling: TRANSMISSION
Path length: 0.012 CM, 0.011 CM
Resolution: 4
Origin: DOW CHEMICAL COMPANY
1/CM	TRANSMITTANCE
381.559	0.281
390.341	0.285
399.122	0.321
407.904	0.437
416.685	0.713
425.467	0.834
434.248	0.874
443.03	0.904
451.812	0.931
460.593	0.951
469.375	0.968
478.156	0.982
486.938	0.991
495.719	0.998
504.501	1.002
513.283	1.006
522.064	1.006
530.846	1.012
539.627	1.017
548.409	1.023
557.19	1.03
565.972	1.035
574.754	1.044
583.535	1.048
592.317	1.049
601.098	1.056
609.88	1.056
618.661	1.056
627.443	1.057
636.225	1.052
645.006	1.037
653.788	1.03
662.569	1.04
671.351	1.051
680.132	1.055
688.914	1.052
697.696	1.055
706.477	1.055
715.259	1.053
724.04	1.056
732.822	1.056
741.603	1.049
750.385	1.051
759.167	1.059
767.948	1.059
776.73	1.056
785.511	1.048
794.293	1.045
803.074	1.038
811.856	1.024
820.638	1.011
829.419	1.001
838.201	0.994
846.982	0.933
855.764	0.862
864.545	0.868
873.327	0.911
882.109	0.955
890.89	0.984
899.672	0.987
908.453	0.982
917.235	0.942
926.016	0.939
934.798	0.982
943.58	0.984
952.361	0.984
961.143	0.977
969.924	0.957
978.706	0.809
987.487	0.98
996.269	0.984
1005.05	0.983
1013.83	0.983
1022.61	0.987
1031.4	0.991
1040.18	0.991
1048.96	0.991
1057.74	0.99
1066.52	0.987
1075.3	0.983
1084.08	0.973
1092.87	0.946
1101.65	0.954
1110.43	0.953
1119.21	0.958
1127.99	0.962
1136.77	0.955
1145.56	0.944
1154.34	0.925
1163.12	0.849
1171.9	0.798
1180.68	0.896
1189.46	0.873
1198.25	0.729
1207.03	0.677
1215.81	0.867
1224.59	0.888
1233.37	0.871
1242.15	0.7469
1250.93	0.753
1259.72	0.892
1268.5	0.891
1277.28	0.851
1286.06	0.856
1294.84	0.884
1303.62	0.893
1312.41	0.899
1321.19	0.895
1329.97	0.891
1338.75	0.868
1347.53	0.753
1356.31	0.602
1365.09	0.122
1373.88	0.5661
1382.66	0.5639
1391.44	0.4549
1400.22	0.768
1409	0.84
1417.78	0.837
1426.57	0.812
1435.35	0.739
1444.13	0.659
1452.91	0.462
1461.69	0.322
1470.47	0.104
1479.26	0.2
1488.04	0.606
1496.82	0.746
1505.6	0.74
1514.38	0.71
1523.16	0.674
1531.94	0.626
1540.73	0.543
1549.51	0.488
1558.29	0.533
1567.07	0.63
1575.85	0.667
1584.63	0.691
1593.42	0.766
1602.2	0.856
1610.98	0.907
1619.76	0.924
1628.54	0.932
1637.32	0.937
1646.11	0.94
1654.89	0.94
1663.67	0.94
1672.45	0.942
1681.23	0.942
1690.01	0.94
1698.79	0.94
1707.58	0.94
1716.36	0.94
1725.14	0.943
1733.92	0.947
1742.7	0.951
1751.48	0.955
1760.27	0.96
1769.05	0.962
1777.83	0.965
1786.61	0.965
1795.39	0.965
1804.17	0.965
1812.96	0.965
1821.74	0.966
1830.52	0.965
1839.3	0.962
1848.08	0.964
1856.86	0.966
1865.64	0.966
1874.43	0.971
1883.21	0.969
1891.99	0.972
1900.77	0.975
1909.55	0.976
1918.33	0.975
1927.12	0.972
1935.9	0.972
1944.68	0.972
1953.46	0.975
1962.24	0.968
1971.02	0.966
1979.8	0.964
1988.59	0.961
1997.37	0.964
2006.15	0.974
2014.93	0.975
2023.71	0.975
2032.49	0.976
2041.28	0.976
2050.06	0.976
2058.84	0.976
2067.62	0.976
2076.4	0.976
2085.18	0.975
2093.97	0.975
2102.75	0.975
2111.53	0.9756
2120.31	0.977
2129.09	0.977
2137.87	0.979
2146.65	0.98
2155.44	0.9794
2164.22	0.977
2173	0.977
2181.78	0.979
2190.56	0.977
2199.34	0.975
2208.13	0.975
2216.91	0.976
2225.69	0.976
2234.47	0.976
2243.25	0.9724
2252.03	0.97
2260.82	0.962
2269.6	0.9587
2278.38	0.955
2287.16	0.944
2295.94	0.946
2304.72	0.9547
2313.5	0.9617
2322.29	0.9727
2331.07	0.9767
2339.85	0.9763
2348.63	0.9736
2357.41	0.973
2366.19	0.972
2374.98	0.9723
2383.76	0.969
2392.54	0.966
2401.32	0.966
2410.1	0.9688
2418.88	0.975
2427.66	0.976
2436.45	0.976
2445.23	0.9752
2454.01	0.973
2462.79	0.973
2471.57	0.975
2480.35	0.975
2489.14	0.9754
2497.92	0.975
2506.7	0.976
2515.48	0.976
2524.26	0.976
2533.04	0.9733
2541.83	0.972
2550.61	0.9652
2559.39	0.9583
2568.17	0.9567
2576.95	0.953
2585.73	0.948
2594.51	0.948
2603.3	0.948
2612.08	0.9461
2620.86	0.9421
2629.64	0.94
2638.42	0.942
2647.2	0.944
2655.99	0.9442
2664.77	0.9372
2673.55	0.9264
2682.33	0.9154
2691.11	0.913
2699.89	0.9101
2708.68	0.8964
2717.46	0.851
2726.24	0.8957
2735.02	0.8971
2743.8	0.884
2752.58	0.9019
2761.36	0.904
2770.15	0.9021
2778.93	0.889
2787.71	0.875
2796.49	0.852
2805.27	0.7951
2814.05	0.722
2822.84	0.6669
2831.62	0.5743
2840.4	0.4304
2849.18	0.339
2857.96	0.3065
2866.74	0.1044
2875.53	0.0404
2884.31	0.084
2893.09	0.0609
2901.87	0.027
2910.65	0.0372
2919.43	0.062
2928.21	0.0445
2937	0.0119
2945.78	0.005
2954.56	0.005
2963.34	0.006
2972.12	0.0112
2980.9	0.0696
2989.69	0.2029
2998.47	0.3822
3007.25	0.607
3016.03	0.7713
3024.81	0.842
3033.59	0.8811
3042.37	0.9076
3051.16	0.9176
3059.94	0.9263
3068.72	0.932
3077.5	0.937
3086.28	0.9403
3095.06	0.942
3103.85	0.943
3112.63	0.942
3121.41	0.9386
3130.19	0.9358
3138.97	0.9318
3147.75	0.928
3156.54	0.925
3165.32	0.922
3174.1	0.92
3182.88	0.92
3191.66	0.9202
3200.44	0.921
3209.22	0.9225
3218.01	0.9283
3226.79	0.9323
3235.57	0.9408
3244.35	0.9473
3253.13	0.9516
3261.91	0.9559
3270.7	0.9626
3279.48	0.965
3288.26	0.966
3297.04	0.966
3305.82	0.966
3314.6	0.968
3323.39	0.9696
3332.17	0.971
3340.95	0.972
3349.73	0.972
3358.51	0.973
3367.29	0.973
3376.07	0.975
3384.86	0.977
3393.64	0.977
3402.42	0.9764
3411.2	0.9794
3419.98	0.9848
3428.76	0.9888
3437.55	0.99
3446.33	0.9906
3455.11	0.991
3463.89	0.991
3472.67	0.991
3481.45	0.9934
3490.24	0.995
3499.02	0.997
3507.8	0.997
3516.58	0.9974
3525.36	0.998
3534.14	0.998
3542.92	1
3551.71	0.998
3560.49	0.998
3569.27	0.999
3578.05	1.0005
3586.83	1.0005
3595.61	1.001
3604.4	1.004
3613.18	1.002
3621.96	1.001
3630.74	1.0005
3639.52	1.002
3648.3	1.002
3657.08	1.001
3665.87	1.001
3674.65	1.001
3683.43	1
3692.21	0.998
3700.99	1.0016
3709.77	1.001
3718.56	1.005
3727.34	1.006
3736.12	1.0028
3744.9	1.001
3753.68	1.005
3762.46	1.0044
3771.25	1
3780.03	0.998
3788.81	0.997
3797.59	1.0006
