Infrared Spectrum: 1-CHLOROPROPANE
Formula: C3 H7 Cl
CAS: 540-54-5
Class: COBLENTZ
Instrument: Not specified, most likely a prism, grating, or hybrid spectrometer.
Sampling: TRANSMISSION
Path length: 0.0025 CM
Resolution: 4
Origin: W.T. BOLLETER
MICROMETERS	TRANSMITTANCE
14.578	0.404
14.6481	0.375
14.7182	0.334
14.7883	0.28
14.8584	0.232
14.9285	0.169
14.9986	0.137
15.0687	0.071
15.1388	0.046
15.2089	0.028
15.279	0.021
15.3491	0.017
15.4192	0.017
15.4893	0.017
15.5594	0.023
15.6295	0.035
15.6996	0.053
15.7697	0.107
15.8398	0.171
15.9099	0.248
15.98	0.33
16.0501	0.389
16.1202	0.44
16.1903	0.475
16.2604	0.511
16.3305	0.538
16.4006	0.567
16.4707	0.581
16.5408	0.606
16.6109	0.626
16.681	0.635
16.7511	0.649
16.8212	0.665
16.8913	0.697
16.9614	0.713
17.0315	0.737
17.1016	0.749
17.1717	0.758
17.2418	0.762
17.3119	0.763
17.382	0.763
17.4521	0.754
17.5222	0.751
17.5923	0.749
17.6624	0.758
17.7325	0.765
17.8026	0.779
17.8727	0.79
17.9428	0.801
18.0129	0.815
18.083	0.821
18.1531	0.828
18.2232	0.835
18.2933	0.838
18.3634	0.842
18.4335	0.844
18.5036	0.846
18.5737	0.847
18.6438	0.849
18.7139	0.849
18.784	0.849
18.8541	0.849
18.9242	0.849
18.9943	0.849
19.0644	0.849
19.1345	0.849
19.2046	0.849
19.2747	0.847
19.3448	0.847
19.4149	0.846
19.485	0.844
19.5551	0.842
19.6252	0.84
19.6953	0.84
19.7654	0.838
19.8355	0.835
19.9056	0.835
19.9757	0.835
20.0458	0.831
20.1159	0.828
20.186	0.824
20.2561	0.822
20.3262	0.821
20.3963	0.819
20.4664	0.817
20.5365	0.812
20.6066	0.81
20.6767	0.808
20.7468	0.805
20.8169	0.803
20.887	0.801
20.9571	0.801
21.0272	0.801
21.0973	0.801
21.1674	0.799
21.2375	0.799
21.3076	0.797
21.3777	0.797
21.4478	0.796
21.5179	0.792
21.588	0.788
21.6581	0.785
21.7282	0.783
21.7983	0.779
21.8684	0.774
21.9385	0.769
22.0086	0.767
22.0787	0.762
22.1488	0.758
22.2189	0.753
22.289	0.751
22.3591	0.747
22.4291	0.744
22.4992	0.738
22.5693	0.731
22.6394	0.722
22.7095	0.706
22.7796	0.683
22.8497	0.661
22.9198	0.636
22.9899	0.602
23.06	0.552
23.1301	0.509
23.2002	0.463
23.2703	0.402
23.3404	0.338
23.4105	0.28
23.4806	0.25
23.5507	0.237
23.6208	0.248
23.6909	0.309
23.761	0.373
23.8311	0.434
23.9012	0.499
23.9713	0.559
24.0414	0.604
24.1115	0.652
24.1816	0.681
24.2517	0.701
24.3218	0.726
24.3919	0.749
24.462	0.767
24.5321	0.781
24.6022	0.79
24.6723	0.801
24.7424	0.812
24.8125	0.821
24.8826	0.83
24.9527	0.835
25.0228	0.837
25.0929	0.838
25.163	0.838
25.2331	0.837
25.3032	0.835
25.3733	0.837
25.4434	0.837
25.5135	0.835
25.5836	0.833
25.6537	0.833
25.7238	0.835
25.7939	0.833
25.864	0.833
25.9341	0.831
26.0042	0.833
26.0743	0.826
26.1444	0.822
26.2145	0.819
26.2846	0.815
26.3547	0.81
26.4248	0.806
26.4949	0.801
26.565	0.792
26.6351	0.779
26.7052	0.769
26.7753	0.751
26.8454	0.722
26.9155	0.688
26.9856	0.651
27.0557	0.597
27.1258	0.538
27.1959	0.499
27.266	0.425
27.3361	0.382
27.4062	0.348
27.4763	0.32
27.5464	0.309
27.6165	0.313
27.6866	0.329
27.7567	0.364
27.8268	0.411
27.8969	0.459
27.967	0.515
28.0371	0.565
28.1072	0.608
28.1773	0.651
28.2474	0.679
28.3175	0.71
28.3876	0.742
28.4577	0.765
28.5278	0.79
28.5979	0.803
28.668	0.81
28.7381	0.822
28.8082	0.837
28.8783	0.846
28.9484	0.849
29.0185	0.855
29.0886	0.86
29.1587	0.865
29.2288	0.867
29.2989	0.872
29.369	0.876
29.4391	0.88
29.5092	0.881
29.5793	0.881
29.6494	0.883
29.7195	0.885
29.7896	0.889
29.8597	0.889
29.9298	0.889
29.9999	0.89
30.07	0.89
30.1401	0.89
30.2102	0.889
30.2803	0.887
30.3504	0.889
30.4205	0.889
30.4906	0.887
30.5607	0.883
30.6308	0.881
30.7009	0.881
30.771	0.88
30.8411	0.876
30.9112	0.871
30.9813	0.869
31.0514	0.864
31.1215	0.862
31.1916	0.862
31.2617	0.86
31.3318	0.858
31.4019	0.858
31.472	0.855
31.5421	0.849
31.6122	0.844
31.6823	0.835
31.7524	0.826
31.8225	0.819
31.8926	0.81
31.9627	0.805
32.0328	0.801
32.1029	0.797
32.173	0.796
32.2431	0.794
32.3132	0.788
32.3833	0.783
32.4534	0.779
32.5235	0.769
32.5936	0.762
32.6637	0.751
32.7338	0.744
32.8039	0.74
32.874	0.735
32.9441	0.729
33.0142	0.722
33.0843	0.706
33.1544	0.697
33.2245	0.674
33.2946	0.656
33.3647	0.649
33.4348	0.636
33.5049	0.629
33.575	0.61
33.6451	0.599
33.7152	0.583
33.7853	0.568
33.8554	0.55
33.9255	0.54
33.9956	0.534
34.0657	0.527
34.1358	0.522
34.2059	0.515
34.276	0.511
34.3461	0.508
34.4162	0.502
34.4863	0.5
34.5564	0.499
34.6265	0.497
34.6966	0.495
34.7667	0.493
34.8368	0.491
34.9069	0.491
34.977	0.491
35.0471	0.493
35.1172	0.495
35.1873	0.497
35.2574	0.499
35.3275	0.499
35.3976	0.502
35.4677	0.504
35.5378	0.504
35.6079	0.506
35.678	0.508
35.7481	0.509
35.8182	0.511
35.8883	0.515
35.9584	0.515
36.0285	0.515
36.0986	0.515
36.1687	0.515
36.2388	0.515
36.3089	0.515
36.379	0.515
36.4491	0.515
36.5192	0.515
36.5893	0.515
36.6594	0.515
36.7295	0.516
36.7996	0.516
36.8697	0.515
36.9398	0.515
37.0099	0.513
37.08	0.515
37.1501	0.516
37.2202	0.522
37.2903	0.524
37.3604	0.513
37.4305	0.518
37.5006	0.52
37.5707	0.524
37.6408	0.524
37.7109	0.524
37.781	0.524
37.8511	0.525
37.9212	0.524
37.9913	0.52
