Infrared Spectrum: (S)-(--)-Nicotine
Formula: C 10 H 14 N 2
CAS: 54-11-5
State: liquid
Instrument: Bruker Tensor 27 FTIR
Resolution: 0.48212986
Origin: Pacific Northwest National Laboratory Under IARPA Contract
1/cm	dispersion index
7797.49	1.50631
7778.93	1.50633
7760.37	1.50632
7741.81	1.50632
7723.24	1.50632
7704.68	1.50631
7686.12	1.5063
7667.56	1.5063
7649	1.50629
7630.44	1.50629
7611.88	1.50628
7593.31	1.50627
7574.75	1.50627
7556.19	1.50626
7537.63	1.50625
7519.07	1.50625
7500.51	1.50624
7481.95	1.50623
7463.38	1.50623
7444.82	1.50622
7426.26	1.50621
7407.7	1.5062
7389.14	1.50619
7370.58	1.50619
7352.02	1.50618
7333.46	1.50617
7314.89	1.50616
7296.33	1.50615
7277.77	1.50614
7259.21	1.50613
7240.65	1.50612
7222.09	1.50611
7203.53	1.5061
7184.96	1.50609
7166.4	1.50608
7147.84	1.50606
7129.28	1.50605
7110.72	1.50604
7092.16	1.50603
7073.6	1.50601
7055.03	1.506
7036.47	1.50598
7017.91	1.50597
6999.35	1.50595
6980.79	1.50593
6962.23	1.50591
6943.67	1.50589
6925.1	1.50586
6906.54	1.50583
6887.98	1.50582
6869.42	1.50582
6850.86	1.50585
6832.3	1.50585
6813.74	1.50583
6795.17	1.50579
6776.61	1.50581
6758.05	1.50585
6739.49	1.50583
6720.93	1.5058
6702.37	1.50576
6683.81	1.50574
6665.25	1.50572
6646.68	1.5057
6628.12	1.50567
6609.56	1.50565
6591	1.50562
6572.44	1.5056
6553.88	1.50557
6535.32	1.50555
6516.75	1.50552
6498.19	1.50549
6479.63	1.50546
6461.07	1.50543
6442.51	1.5054
6423.95	1.50537
6405.39	1.50534
6386.82	1.5053
6368.26	1.50527
6349.7	1.50523
6331.14	1.50519
6312.58	1.50514
6294.02	1.50509
6275.46	1.50504
6256.89	1.50497
6238.33	1.50489
6219.77	1.50481
6201.21	1.50492
6182.65	1.50487
6164.09	1.50477
6145.53	1.50464
6126.96	1.50453
6108.4	1.50442
6089.84	1.50449
6071.28	1.50477
6052.72	1.50453
6034.16	1.50453
6015.6	1.50443
5997.03	1.5044
5978.47	1.5043
5959.91	1.50422
5941.35	1.5041
5922.79	1.50437
5904.23	1.50426
5885.67	1.50419
5867.11	1.50407
5848.54	1.50394
5829.98	1.50382
5811.42	1.50368
5792.86	1.50351
5774.3	1.50332
5755.74	1.50311
5737.18	1.50288
5718.61	1.50276
5700.05	1.50245
5681.49	1.50217
5662.93	1.50192
5644.37	1.50164
5625.81	1.50139
5607.25	1.50111
5588.68	1.50079
5570.12	1.50034
5551.56	1.49971
5533	1.49895
5514.44	1.498
5495.88	1.49682
5477.32	1.49525
5458.75	1.49309
5440.19	1.48967
5421.63	1.48699
5403.07	1.48339
5384.51	1.47495
5365.95	1.51826
5347.39	1.51154
5328.82	1.50515
5310.26	1.50328
5291.7	1.50008
5273.14	1.54317
5254.58	1.52471
5236.02	1.5182
5217.46	1.51882
5198.89	1.51597
5180.33	1.51439
5161.77	1.51344
5143.21	1.51246
5124.65	1.51152
5106.09	1.51061
5087.53	1.50986
5068.97	1.50948
5050.4	1.50896
5031.84	1.50833
5013.28	1.508
4994.72	1.50761
4976.16	1.50701
4957.6	1.5065
4939.04	1.50609
4920.47	1.50553
4901.91	1.50476
4883.35	1.50422
4864.79	1.50375
4846.23	1.50445
4827.67	1.50384
4809.11	1.50281
4790.54	1.50152
4771.98	1.50056
4753.42	1.49928
4734.86	1.49778
4716.3	1.49543
4697.74	1.48481
4679.18	1.50356
4660.61	1.49086
4642.05	1.46733
4623.49	1.49929
4604.93	1.53901
4586.37	1.49639
4567.81	1.50815
4549.25	1.51468
4530.68	1.49662
4512.12	1.48608
4493.56	1.51181
4475	1.52569
4456.44	1.51469
4437.88	1.52104
4419.32	1.52667
4400.75	1.53283
4382.19	1.52156
4363.63	1.50092
4345.07	1.53511
4326.51	1.51326
4307.95	1.47654
4289.39	1.53243
4270.83	1.50401
4252.26	1.60438
4233.7	1.53734
4215.14	1.52838
4196.58	1.53695
4178.02	1.53167
4159.46	1.5287
4140.9	1.52579
4122.33	1.52219
4103.77	1.50982
4085.21	0.000104678
4066.65	0.000104678
4048.09	0.000105376
4029.53	0.000112355
4010.97	0.000109564
3992.4	0.000112355
3973.84	0.000113053
3955.28	0.000110959
3936.72	0.000110959
3918.16	0.000112355
3899.6	0.000111657
3881.04	0.000108866
3862.47	0.000106773
3843.91	0.000117239
3825.35	0.000126312
3806.79	0.000129103
3788.23	0.000128405
3769.67	0.000124219
3751.11	0.000113751
3732.54	0.000108168
3713.98	0.000104678
3695.42	0.000100491
3676.86	0.000100491
3658.3	9.97936e-05
3639.74	0.000101189
3621.18	9.97936e-05
3602.61	0.000100491
3584.05	9.97936e-05
3565.49	9.8398e-05
3546.93	9.90958e-05
3528.37	0.000101887
3509.81	0.000103282
3491.25	0.000101887
3472.69	0.000101887
3454.12	0.000101189
3435.56	9.90958e-05
3417	9.77003e-05
3398.44	9.63047e-05
3379.88	9.49092e-05
3361.32	9.42114e-05
3342.76	9.42114e-05
3324.19	9.70025e-05
3305.63	9.90958e-05
3287.07	9.63047e-05
3268.51	0.000112355
3249.95	0.000138176
3231.39	0.000149341
3212.83	0.000231688
3194.26	0.000495479
3175.7	0.000646216
3157.14	0.000872321
3138.58	0.000697857
3120.02	0.000548516
3101.46	0.000593178
3082.9	0.000935129
3064.33	0.000872321
3045.77	0.000528975
3027.21	0.000360792
3008.65	0.000306358
2990.09	0.000316827
2971.53	0.000320317
2952.97	0.000307056
2934.4	0.000292401
2915.84	0.000286819
2897.28	0.000268674
2878.72	0.000267279
2860.16	0.000258905
2841.6	0.000265883
2823.04	0.000260301
2804.47	0.00025751
2785.91	0.00026379
2767.35	0.000259603
2748.79	0.000259603
2730.23	0.000260999
2711.67	0.000252624
2693.11	0.000250531
2674.55	0.000242156
2655.98	0.00023448
2637.42	0.000236574
2618.86	0.000236574
2600.3	0.000241458
2581.74	0.000262394
2563.18	0.000274258
2544.62	0.000366374
2526.05	0.000928149
2507.49	0.00125614
2488.93	0.00103981
2470.37	0.000693669
2451.81	0.00049478
2433.25	0.00097002
2414.69	0.00177256
2396.12	0.00345439
2377.56	0.0031892
2359	0.00176558
2340.44	0.00247041
2321.88	0.00210055
2303.32	0.00228199
2284.76	0.00204472
2266.19	0.00237969
2247.63	0.00286819
2229.07	0.00441743
2210.51	0.00266581
2191.95	0.00240761
2173.39	0.00166788
2154.83	0.00126312
2136.26	0.00125614
2117.7	0.000872321
2099.14	0.000572243
2080.58	0.000417318
2062.02	0.000332878
2043.46	0.0004557
2024.9	0.000683201
2006.33	0.000357302
1987.77	0.000767642
1969.21	0.00126312
1950.65	0.00173068
1932.09	0.00228199
1913.53	0.0025402
1894.97	0.0025402
1876.41	0.00187723
1857.84	0.00133989
1839.28	0.00124218
1820.72	0.00145154
1802.16	0.0022122
1783.6	0.00364979
1765.04	0.0047524
1746.48	0.0122823
1727.91	0.0441045
1709.35	0.0579221
1690.79	0.144456
1672.23	0.305661
1653.67	0.157716
1635.11	0.120729
1616.55	0.178651
1597.98	0.233782
1579.42	0.22471
1560.86	0.0374749
1542.3	0.0242854
1523.74	0.0182141
1505.18	0.0114448
1486.62	0.00976999
1468.05	0.00732749
1449.49	0.00557587
1430.93	0.00368468
1412.37	0.00259603
1393.81	0.00254718
1375.25	0.00320316
1356.69	0.00180047
1338.12	0.00175162
1319.56	0.0024425
1301	0.00129801
1282.44	0.000587596
1263.88	0.00106074
1245.32	0.00120729
1226.76	0.000872321
1208.19	0.00103283
1189.63	0.00429182
1171.07	0.00704835
1152.51	0.010747
1133.95	0.00558285
1115.39	0.00143061
1096.83	0.00106772
1078.27	0.00492687
1059.7	0.00350324
1041.14	0.00482917
1022.58	0.00697857
1004.02	0.00795557
985.458	0.0970021
966.897	0.0112355
948.335	0.0258207
929.774	0.286819
911.213	0.27356
892.651	0.0316129
874.09	0.103283
855.528	0.302172
836.967	0.059248
818.406	0.134686
799.844	0.200285
781.283	0.179349
762.721	0.103981
744.16	0.134686
725.599	0.194004
707.037	0.109563
688.476	0.0483615
669.915	0.0345439
651.353	0.333575
632.792	0.0314035
614.23	0.0663662
595.669	0.121427
577.108	0.0353115
558.546	1.57018
539.985	0.0123521
521.423	0.0510831
502.862	0.0329388
484.301	0.0277747
465.739	0.0163996
447.178	0.00157716
428.616	0.00232386
410.055	0.0280538
