Infrared Spectrum: HEXAMETHYLCYCLOTRISILOXANE
Formula: C6 H18 O3 Si3
CAS: 541-05-9
State: SOLUTION (10% IN CCl4 FOR 3800-1300, 2% IN CS2 FOR 1300-650, AND 10% IN CCl4 FOR 650-250 CM^-^1)
Melting point: 64 C
Class: COBLENTZ II
Instrument: PERKIN-ELMER 521 (GRATING)
Instrument parameters: FILTERS AT 3150, 2500, 2000, 1150, 700, 410. GRATING CHANGES: 2000, 630 CM^-^1
Sampling: TRANSMISSION
Path length: 0.011 CM, 0.020 CM, AND 0.012 CM
Resolution: 2
Origin: DOW CORNING CORP.
1/CM	TRANSMITTANCE
248.066	0.775
257.445	0.772
266.823	0.751
276.202	0.695
285.581	0.616
294.959	0.354
304.338	0.053
313.717	0.243
323.096	0.652
332.474	0.787
341.853	0.8
351.232	0.794
360.61	0.753
369.989	0.686
379.368	0.479
388.746	0.069
398.125	0.08
407.504	0.553
416.882	0.672
426.261	0.715
435.64	0.744
445.019	0.742
454.397	0.736
463.776	0.781
473.155	0.805
482.533	0.819
491.912	0.829
501.291	0.837
510.669	0.84
520.048	0.84
529.427	0.845
538.805	0.838
548.184	0.832
557.563	0.819
566.942	0.785
576.32	0.748
585.699	0.68
595.078	0.436
604.456	0.006
613.835	0.167
623.214	0.501
632.592	0.672
641.971	0.717
651.35	0.864
660.729	0.863
670.107	0.854
679.486	0.821
688.865	0.825
698.243	0.848
707.622	0.853
717.001	0.844
726.379	0.837
735.758	0.835
745.137	0.833
754.515	0.824
763.894	0.806
773.273	0.77
782.652	0.704
792.03	0.593
801.409	0.3009
810.788	0.036
820.166	0.2511
829.545	0.569
838.924	0.679
848.302	0.709
857.681	0.704
867.06	0.63
876.438	0.637
885.817	0.779
895.196	0.815
904.575	0.823
913.953	0.825
923.332	0.825
932.711	0.818
942.089	0.799
951.468	0.787
960.847	0.776
970.225	0.744
979.604	0.661
988.983	0.5009
998.361	0.1428
1007.74	0.002
1017.12	0.002
1026.5	0.128
1035.88	0.4791
1045.25	0.643
1054.63	0.67
1064.01	0.724
1073.39	0.751
1082.77	0.771
1092.15	0.782
1101.53	0.799
1110.91	0.808
1120.28	0.808
1129.66	0.815
1139.04	0.829
1148.42	0.835
1157.8	0.839
1167.18	0.844
1176.56	0.84
1185.94	0.842
1195.31	0.839
1204.69	0.839
1214.07	0.843
1223.45	0.823
1232.83	0.782
1242.21	0.6509
1251.59	0.049
1260.96	0.632
1270.34	0.781
1279.72	0.804
1289.1	0.804
1298.48	0.804
1307.86	0.804
1317.24	0.804
1326.62	0.808
1335.99	0.824
1345.37	0.825
1354.75	0.809
1364.13	0.782
1373.51	0.76
1382.89	0.685
1392.27	0.558
1401.65	0.569
1411.02	0.5891
1420.4	0.7
1429.78	0.69
1439.16	0.648
1448.54	0.753
1457.92	0.775
1467.3	0.784
1476.67	0.801
1486.05	0.821
1495.43	0.824
1504.81	0.821
1514.19	0.819
1523.57	0.805
1532.95	0.776
1542.33	0.713
1551.7	0.733
1561.08	0.797
1570.46	0.805
1579.84	0.792
1589.22	0.747
1598.6	0.715
1607.98	0.748
1617.36	0.741
1626.73	0.755
1636.11	0.811
1645.49	0.845
1654.87	0.853
1664.25	0.859
1673.63	0.862
1683.01	0.861
1692.38	0.851
1701.76	0.838
1711.14	0.853
1720.52	0.861
1729.9	0.857
1739.28	0.857
1748.66	0.868
1758.04	0.876
1767.41	0.881
1776.79	0.877
1786.17	0.878
1795.55	0.88
1804.93	0.868
1814.31	0.863
1823.69	0.867
1833.07	0.869
1842.44	0.873
1851.82	0.871
1861.2	0.858
1870.58	0.866
1879.96	0.871
1889.34	0.864
1898.72	0.875
1908.09	0.876
1917.47	0.875
1926.85	0.864
1936.23	0.83
1945.61	0.851
1954.99	0.869
1964.37	0.873
1973.75	0.862
1983.12	0.868
1992.5	0.876
2001.88	0.882
2011.26	0.887
2020.64	0.8859
2030.02	0.8767
2039.4	0.8659
2048.78	0.8545
2058.15	0.8753
2067.53	0.8671
2076.91	0.8632
2086.29	0.876
2095.67	0.881
2105.05	0.8774
2114.43	0.873
2123.8	0.871
2133.18	0.8768
2142.56	0.8778
2151.94	0.881
2161.32	0.882
2170.7	0.882
2180.08	0.882
2189.46	0.882
2198.83	0.8811
2208.21	0.882
2217.59	0.883
2226.97	0.883
2236.35	0.8827
2245.73	0.882
2255.11	0.882
2264.49	0.882
2273.86	0.882
2283.24	0.882
2292.62	0.882
2302	0.882
2311.38	0.882
2320.76	0.882
2330.14	0.8847
2339.51	0.886
2348.89	0.8931
2358.27	0.8859
2367.65	0.883
2377.03	0.882
2386.41	0.881
2395.79	0.88
2405.17	0.881
2414.54	0.881
2423.92	0.881
2433.3	0.881
2442.68	0.882
2452.06	0.881
2461.44	0.8788
2470.82	0.8806
2480.2	0.8765
2489.57	0.8612
2498.95	0.8742
2508.33	0.876
2517.71	0.876
2527.09	0.875
2536.47	0.875
2545.85	0.875
2555.22	0.8751
2564.6	0.878
2573.98	0.8778
2583.36	0.876
2592.74	0.875
2602.12	0.8726
2611.5	0.871
2620.88	0.872
2630.25	0.8675
2639.63	0.8624
2649.01	0.8603
2658.39	0.866
2667.77	0.868
2677.15	0.864
2686.53	0.8669
2695.9	0.871
2705.28	0.869
2714.66	0.868
2724.04	0.863
2733.42	0.862
2742.8	0.8606
2752.18	0.8563
2761.56	0.8447
2770.93	0.836
2780.31	0.827
2789.69	0.828
2799.07	0.8275
2808.45	0.824
2817.83	0.823
2827.21	0.823
2836.59	0.8193
2845.96	0.8152
2855.34	0.811
2864.72	0.7974
2874.1	0.7815
2883.48	0.7313
2892.86	0.6321
2902.24	0.6999
2911.61	0.731
2920.99	0.7058
2930.37	0.6595
2939.75	0.5217
2949.13	0.2554
2958.51	0.0718
2967.89	0.292
2977.27	0.5977
2986.64	0.7297
2996.02	0.7788
3005.4	0.793
3014.78	0.8028
3024.16	0.805
3033.54	0.805
3042.92	0.805
3052.3	0.8099
3061.67	0.816
3071.05	0.82
3080.43	0.821
3089.81	0.8231
3099.19	0.828
3108.57	0.832
3117.95	0.8376
3127.32	0.839
3136.7	0.8386
3146.08	0.838
3155.46	0.842
3164.84	0.8395
3174.22	0.8436
3183.6	0.8517
3192.98	0.8567
3202.35	0.859
3211.73	0.858
3221.11	0.858
3230.49	0.858
3239.87	0.861
3249.25	0.861
3258.63	0.861
3268.01	0.859
3277.38	0.859
3286.76	0.861
3296.14	0.864
3305.52	0.864
3314.9	0.863
3324.28	0.862
3333.66	0.8625
3343.03	0.8636
3352.41	0.8652
3361.79	0.866
3371.17	0.867
3380.55	0.8678
3389.93	0.868
3399.31	0.868
3408.69	0.868
3418.06	0.871
3427.44	0.873
3436.82	0.875
3446.2	0.876
3455.58	0.876
3464.96	0.8762
3474.34	0.877
3483.72	0.878
3493.09	0.8788
3502.47	0.88
3511.85	0.881
3521.23	0.881
3530.61	0.881
3539.99	0.88
3549.37	0.878
3558.74	0.878
3568.12	0.8859
3577.5	0.8802
3586.88	0.873
3596.26	0.877
3605.64	0.877
3615.02	0.872
3624.4	0.869
3633.77	0.8752
3643.15	0.8785
3652.53	0.883
3661.91	0.883
3671.29	0.8722
3680.67	0.864
3690.05	0.863
3699.43	0.871
3708.8	0.862
3718.18	0.8743
3727.56	0.8817
3736.94	0.882
3746.32	0.877
3755.7	0.8721
3765.08	0.869
3774.45	0.869
3783.83	0.881
3793.21	0.8851
