Infrared Spectrum: BENZENE, 1,3-DICHLORO-
Formula: C6 H4 Cl2
CAS: 541-73-1
State: SOLUTION (10% CCl4 FOR 3800-1390, 10% CS2 FOR 1390-400) VS SOLVENT
Class: COBLENTZ II
Instrument: DOW KBr FOREPRISM-GRATING
Instrument parameters: BLAZED AT 3.5, 12.0, 20.0 AND CHANGED AT 5.0, 7.5, 14.9 MICRON
Sampling: TRANSMISSION
Path length: 0.0115 CM, 0.0118 CM
Resolution: 2
Origin: DOW CHEMICAL COMPANY
1/CM	TRANSMITTANCE
3820	0.8771
3811	0.8766
3802	0.8758
3793	0.8746
3784	0.8728
3775	0.8727
3766	0.8699
3757	0.8616
3748	0.8656
3739	0.8696
3730	0.8725
3721	0.8755
3712	0.8777
3703	0.8791
3694	0.8793
3685	0.8775
3676	0.8747
3667	0.8754
3658	0.8762
3649	0.877
3640	0.8778
3631	0.8788
3622	0.8796
3613	0.8799
3604	0.8812
3595	0.881
3586	0.8807
3577	0.8803
3568	0.88
3559	0.8796
3550	0.8795
3541	0.88
3532	0.8807
3523	0.8817
3514	0.8825
3505	0.8836
3496	0.8847
3487	0.8858
3478	0.8868
3469	0.8877
3460	0.8886
3451	0.8895
3442	0.8904
3433	0.8913
3424	0.8921
3415	0.894
3406	0.8965
3397	0.898
3388	0.8967
3379	0.8947
3370	0.8928
3361	0.8916
3352	0.8908
3343	0.8899
3334	0.8893
3325	0.8891
3316	0.8889
3307	0.8887
3298	0.8882
3289	0.8874
3280	0.8866
3271	0.886
3262	0.8854
3253	0.8848
3244	0.8836
3235	0.8824
3226	0.8813
3217	0.8805
3208	0.8794
3199	0.8774
3190	0.8748
3181	0.8718
3172	0.8675
3163	0.8557
3154	0.8501
3145	0.8615
3136	0.8633
3127	0.8623
3118	0.8583
3109	0.8515
3100	0.8401
3091	0.8344
3082	0.7798
3073	0.7338
3064	0.8044
3055	0.8436
3046	0.8543
3037	0.8612
3028	0.8637
3019	0.8638
3010	0.862
3001	0.8645
2992	0.8671
2983	0.869
2974	0.8708
2965	0.8725
2956	0.8747
2947	0.8764
2938	0.8777
2929	0.879
2920	0.873
2911	0.8721
2902	0.8728
2893	0.8733
2884	0.8725
2875	0.8721
2866	0.8684
2857	0.8637
2848	0.8659
2839	0.8705
2830	0.8712
2821	0.8649
2812	0.8649
2803	0.8685
2794	0.8698
2785	0.8702
2776	0.8701
2767	0.8701
2758	0.8701
2749	0.8698
2740	0.8688
2731	0.8678
2722	0.8665
2713	0.8647
2704	0.8625
2695	0.8607
2686	0.8621
2677	0.864
2668	0.8661
2659	0.8682
2650	0.8693
2641	0.8697
2632	0.8702
2623	0.8703
2614	0.8706
2605	0.8707
2596	0.8708
2587	0.8702
2578	0.8684
2569	0.867
2560	0.8664
2551	0.866
2542	0.8656
2533	0.8652
2524	0.8656
2515	0.8661
2506	0.8663
2497	0.8663
2488	0.8665
2479	0.8665
2470	0.8664
2461	0.8666
2452	0.8671
2443	0.8677
2434	0.8684
2425	0.8695
2416	0.8678
2407	0.8631
2398	0.8651
2389	0.8688
2380	0.8686
2371	0.8574
2362	0.8449
2353	0.8518
2344	0.8654
2335	0.8654
2326	0.8615
2317	0.8599
2308	0.8647
2299	0.8692
2290	0.8716
2281	0.8721
2272	0.8727
2263	0.8718
2254	0.8709
2245	0.869
2236	0.8671
2227	0.8699
2218	0.8721
2209	0.8738
2200	0.8735
2191	0.8727
2182	0.8725
2173	0.8723
2164	0.8721
2155	0.8733
2146	0.8744
2137	0.8747
2128	0.8751
2119	0.8751
2110	0.8753
2101	0.8756
2092	0.8763
2083	0.8771
2074	0.8785
2065	0.8799
2056	0.8801
2047	0.8799
2038	0.8799
2029	0.8798
2020	0.8798
2011	0.8798
2002	0.88
1993	0.9014
1984	0.8806
1975	0.8777
1966	0.8778
1957	0.8925
1948	0.8742
1939	0.8117
1930	0.8468
1921	0.8713
1912	0.8704
1903	0.8667
1894	0.8721
1885	0.8755
1876	0.8728
1867	0.844
1858	0.8218
1849	0.8633
1840	0.8677
1831	0.8754
1822	0.8793
1813	0.8804
1804	0.8789
1795	0.8559
1786	0.815
1777	0.8544
1768	0.8716
1759	0.8715
1750	0.8532
1741	0.8168
1732	0.8137
1723	0.8585
1714	0.8749
1705	0.88
1696	0.8764
1687	0.8781
1678	0.8692
1669	0.8405
1660	0.8488
1651	0.8778
1642	0.8957
1633	0.8861
1624	0.8508
1615	0.8657
1606	0.8637
1597	0.8302
1588	0.5051
1579	0.0066
1570	0.3716
1561	0.609
1552	0.8044
1543	0.836
1534	0.8581
1525	0.8691
1516	0.8734
1507	0.7661
1498	0.7591
1489	0.808
1480	0.5658
1471	0.6066
1462	0.0799
1453	0.6354
1444	0.7788
1435	0.8044
1426	0.8045
1417	0.1627
1408	0.6618
1399	0.5245
1390	0.8368
1381	0.8656
1372	0.8714
1363	0.8833
1354	0.8843
1345	0.8805
1336	0.8464
1327	0.8001
1318	0.8523
1309	0.8377
1300	0.8399
1291	0.7426
1282	0.8251
1273	0.845
1264	0.8363
1255	0.7718
1246	0.8547
1237	0.8671
1228	0.8675
1219	0.849
1210	0.806
1201	0.8255
1192	0.8537
1183	0.8324
1174	0.8368
1165	0.813
1156	0.8047
1147	0.8192
1138	0.8244
1129	0.1335
1120	0.5544
1111	0.4859
1102	0.7525
1093	0.75
1084	0.4288
1075	0.2942
1066	0.6471
1057	0.7621
1048	0.828
1039	0.8436
1030	0.8484
1021	0.85
1012	0.8415
1003	0.8334
994	0.8145
985	0.8331
976	0.8351
967	0.7861
958	0.8124
949	0.8337
940	0.8417
931	0.8467
922	0.8473
913	0.8444
904	0.8345
895	0.8164
886	0.7941
877	0.7338
868	0.09
859	0.7334
850	0.819
841	0.8294
832	0.7475
823	0.7662
814	0.8101
805	0.7988
796	0.706
787	0.0054
778	0.0315
769	0.3491
760	0.7607
751	0.8139
742	0.8415
733	0.8547
724	0.8549
715	0.8625
706	0.8615
697	0.8527
688	0.8223
679	0.4156
670	0.2544
661	0.67
652	0.8478
643	0.8699
634	0.8592
625	0.8778
616	0.8875
607	0.8875
598	0.8847
589	0.8811
580	0.8787
571	0.8778
562	0.8798
553	0.8781
544	0.8718
535	0.872
526	0.868
517	0.861
508	0.8547
499	0.8515
490	0.8488
481	0.8414
472	0.842
463	0.8433
454	0.844
445	0.8434
436	0.8234
427	0.5732
418	0.6556
409	0.7025
400	0.7207
391	0.7312
382	0.7386
