Infrared Spectrum: METHANE, OXYBIS(CHLORO-
Formula: C2 H4 Cl2 O
CAS: 542-88-1
State: SOLUTION (10% IN CCl4 FOR 3800-1333, 10% IN CS2 FOR 1333-400 CM^-^1)
Boiling point: 106 C
Class: COBLENTZ III
Instrument: DOW KBr FOREPRISM-GRATING
Instrument parameters: BLAZED AT 3.5, 12.0, 20.0 MICRON, CHANGED AT 5.0, 7.5, 14.9 MICRON
Sampling: TRANSMISSION
Path length: 0.011, 0.010 CM
Resolution: 4
Origin: DOW CHEMICAL COMPANY
1/CM	TRANSMITTANCE
390.386	0.318
398.907	0.355
407.429	0.5109
415.95	0.592
424.472	0.598
432.993	0.6439
441.515	0.794
450.036	0.821
458.558	0.84
467.079	0.873
475.601	0.896
484.122	0.911
492.644	0.923
501.165	0.932
509.687	0.936
518.208	0.936
526.73	0.932
535.251	0.938
543.773	0.943
552.294	0.945
560.816	0.941
569.337	0.936
577.859	0.926
586.38	0.911
594.902	0.89
603.423	0.868
611.945	0.83
620.466	0.758
628.988	0.66
637.509	0.551
646.031	0.426
654.552	0.2771
663.074	0.128
671.595	0.014
680.117	0
688.638	0.002
697.16	0.047
705.681	0.087
714.203	0.2889
722.724	0.551
731.246	0.709
739.767	0.796
748.289	0.852
756.81	0.883
765.332	0.902
773.853	0.921
782.375	0.924
790.896	0.93
799.418	0.933
807.939	0.938
816.46	0.939
824.982	0.93
833.503	0.918
842.025	0.887
850.546	0.817
859.068	0.827
867.589	0.853
876.111	0.879
884.632	0.898
893.154	0.896
901.675	0.887
910.197	0.842
918.718	0.6931
927.24	0.4391
935.761	0.1281
944.283	0.2997
952.804	0.653
961.326	0.2941
969.847	0.8
978.369	0.771
986.89	0.896
995.412	0.901
1003.93	0.882
1012.45	0.823
1020.98	0.6461
1029.5	0.724
1038.02	0.629
1046.54	0.665
1055.06	0.749
1063.58	0.676
1072.11	0.553
1080.63	0.3801
1089.15	0.0732
1097.67	0
1106.19	0.004
1114.71	0.3369
1123.23	0.589
1131.76	0.734
1140.28	0.83
1148.8	0.849
1157.32	0.794
1165.84	0.877
1174.36	0.905
1182.88	0.921
1191.41	0.92
1199.93	0.911
1208.45	0.879
1216.97	0.824
1225.49	0.4431
1234.01	0.131
1242.53	0.814
1251.06	0.849
1259.58	0.817
1268.1	0.7121
1276.62	0.674
1285.14	0.752
1293.66	0.812
1302.19	0.728
1310.71	0.5011
1319.23	0.119
1327.75	0.318
1336.27	0.6869
1344.79	0.7939
1353.31	0.87
1361.84	0.893
1370.36	0.91
1378.88	0.912
1387.4	0.932
1395.92	0.938
1404.44	0.936
1412.96	0.93
1421.49	0.914
1430.01	0.904
1438.53	0.887
1447.05	0.815
1455.57	0.3702
1464.09	0.775
1472.62	0.884
1481.14	0.887
1489.66	0.874
1498.18	0.843
1506.7	0.803
1515.22	0.758
1523.74	0.707
1532.27	0.644
1540.79	0.563
1549.31	0.505
1557.83	0.539
1566.35	0.62
1574.87	0.671
1583.39	0.69
1591.92	0.7589
1600.44	0.851
1608.96	0.91
1617.48	0.918
1626	0.941
1634.52	0.961
1643.05	0.976
1651.57	0.98
1660.09	0.982
1668.61	0.985
1677.13	0.985
1685.65	0.983
1694.17	0.98
1702.7	0.986
1711.22	0.989
1719.74	0.988
1728.26	0.985
1736.78	0.982
1745.3	0.973
1753.82	0.977
1762.35	0.979
1770.87	0.974
1779.39	0.976
1787.91	0.974
1796.43	0.97
1804.95	0.973
1813.47	0.977
1822	0.979
1830.52	0.979
1839.04	0.977
1847.56	0.976
1856.08	0.973
1864.6	0.97
1873.13	0.976
1881.65	0.979
1890.17	0.977
1898.69	0.973
1907.21	0.982
1915.73	0.985
1924.25	0.983
1932.78	0.985
1941.3	0.983
1949.82	0.979
1958.34	0.976
1966.86	0.973
1975.38	0.971
1983.9	0.969
1992.43	0.961
2000.95	0.95
2009.47	0.945
2017.99	0.9148
2026.51	0.838
2035.03	0.7825
2043.56	0.929
2052.08	0.9808
2060.6	0.9847
2069.12	0.992
2077.64	1.0008
2086.16	1.001
2094.68	1
2103.21	0.998
2111.73	0.9913
2120.25	0.9763
2128.77	0.9392
2137.29	0.9815
2145.81	0.994
2154.33	0.991
2162.86	0.9831
2171.38	0.948
2179.9	0.9766
2188.42	0.979
2196.94	0.9817
2205.46	0.991
2213.98	0.994
2222.51	0.992
2231.03	0.99
2239.55	0.9831
2248.07	0.977
2256.59	0.9701
2265.11	0.9722
2273.64	0.977
2282.16	0.9736
2290.68	0.973
2299.2	0.9746
2307.72	0.979
2316.24	0.979
2324.76	0.9805
2333.29	0.9798
2341.81	0.9763
2350.33	0.9714
2358.85	0.9746
2367.37	0.97
2375.89	0.969
2384.41	0.9731
2392.94	0.9782
2401.46	0.9797
2409.98	0.9656
2418.5	0.9551
2427.02	0.9646
2435.54	0.986
2444.07	0.989
2452.59	0.989
2461.11	0.988
2469.63	0.9861
2478.15	0.986
2486.67	0.986
2495.19	0.988
2503.72	0.989
2512.24	0.991
2520.76	0.991
2529.28	0.9904
2537.8	0.9894
2546.32	0.988
2554.84	0.988
2563.37	0.9882
2571.89	0.9887
2580.41	0.989
2588.93	0.9883
2597.45	0.988
2605.97	0.989
2614.49	0.985
2623.02	0.9794
2631.54	0.977
2640.06	0.9807
2648.58	0.985
2657.1	0.986
2665.62	0.985
2674.15	0.983
2682.67	0.98
2691.19	0.983
2699.71	0.983
2708.23	0.983
2716.75	0.983
2725.27	0.983
2733.8	0.9822
2742.32	0.98
2750.84	0.9798
2759.36	0.9797
2767.88	0.9706
2776.4	0.9525
2784.92	0.9755
2793.45	0.979
2801.97	0.9763
2810.49	0.974
2819.01	0.973
2827.53	0.971
2836.05	0.97
2844.58	0.9688
2853.1	0.9623
2861.62	0.9548
2870.14	0.9469
2878.66	0.9167
2887.18	0.8574
2895.7	0.789
2904.23	0.9284
2912.75	0.933
2921.27	0.9326
2929.79	0.9272
2938.31	0.9157
2946.83	0.8874
2955.35	0.8152
2963.88	0.622
2972.4	0.489
2980.92	0.8031
2989.44	0.9048
2997.96	0.9238
3006.48	0.9305
3015	0.9263
3023.53	0.9144
3032.05	0.896
3040.57	0.9153
3049.09	0.9509
3057.61	0.9552
3066.13	0.958
3074.66	0.958
3083.18	0.958
3091.7	0.957
3100.22	0.956
3108.74	0.955
3117.26	0.955
3125.78	0.955
3134.31	0.955
3142.83	0.955
3151.35	0.957
3159.87	0.9579
3168.39	0.96
3176.91	0.963
3185.43	0.964
3193.96	0.964
3202.48	0.964
3211	0.9683
3219.52	0.97
3228.04	0.971
3236.56	0.973
3245.09	0.9737
3253.61	0.974
3262.13	0.974
3270.65	0.976
3279.17	0.977
3287.69	0.979
3296.21	0.98
3304.74	0.982
3313.26	0.9826
3321.78	0.985
3330.3	0.985
3338.82	0.985
3347.34	0.983
3355.86	0.985
3364.39	0.986
3372.91	0.988
3381.43	0.986
3389.95	0.9862
3398.47	0.986
3406.99	0.9863
3415.51	0.986
3424.04	0.9858
3432.56	0.986
3441.08	0.988
3449.6	0.988
3458.12	0.988
3466.64	0.988
3475.17	0.988
3483.69	0.986
3492.21	0.988
3500.73	0.988
3509.25	0.988
3517.77	0.989
3526.29	0.989
3534.82	0.988
3543.34	0.988
3551.86	0.989
3560.38	0.987
3568.9	0.988
3577.42	0.988
3585.94	0.989
3594.47	0.989
3602.99	0.9908
3611.51	0.9902
3620.03	0.989
3628.55	0.989
3637.07	0.988
3645.6	0.988
3654.12	0.986
3662.64	0.986
3671.16	0.986
3679.68	0.988
3688.2	0.989
3696.72	0.991
3705.25	0.9897
3713.77	0.989
3722.29	0.9884
3730.81	0.988
3739.33	0.986
3747.85	0.986
3756.37	0.988
3764.9	0.989
3773.42	0.991
3781.94	0.991
