Infrared Spectrum: METHANE, OXYBIS(CHLORO-
Formula: C2 H4 Cl2 O
CAS: 542-88-1
State: VAPOR (ABOUT 3 mmHg)
Boiling point: 106 C
Class: COBLENTZ
Instrument: DOW KBr FOREPRISM-GRATING
Instrument parameters: BLAZED AT 3.5, 12.0, 20.0 MICRON, CHANGED AT 5.0, 7.5, 14.9 MICRON
Sampling: TRANSMISSION
Path length: 5 CM
Resolution: 4
Origin: DOW CHEMICAL COMPANY
1/CM	TRANSMITTANCE
386.37	0.745
394.898	0.754
403.425	0.769
411.953	0.792
420.481	0.812
429.008	0.834
437.536	0.853
446.064	0.882
454.592	0.906
463.119	0.92
471.647	0.932
480.175	0.947
488.702	0.96
497.23	0.964
505.758	0.964
514.285	0.961
522.813	0.954
531.341	0.957
539.869	0.96
548.396	0.964
556.924	0.964
565.452	0.963
573.979	0.961
582.507	0.96
591.035	0.96
599.562	0.958
608.09	0.954
616.618	0.951
625.145	0.95
633.673	0.95
642.201	0.948
650.729	0.947
659.256	0.938
667.784	0.916
676.312	0.8561
684.839	0.676
693.367	0.565
701.895	0.615
710.422	0.718
718.95	0.892
727.478	0.948
736.005	0.972
744.533	0.979
753.061	0.985
761.589	0.986
770.116	0.988
778.644	0.988
787.172	0.986
795.699	0.986
804.227	0.986
812.755	0.985
821.282	0.983
829.81	0.985
838.338	0.983
846.866	0.985
855.393	0.985
863.921	0.986
872.449	0.986
880.976	0.985
889.504	0.985
898.032	0.982
906.559	0.977
915.087	0.966
923.615	0.944
932.142	0.895
940.67	0.894
949.198	0.908
957.726	0.923
966.253	0.935
974.781	0.953
983.309	0.955
991.836	0.966
1000.36	0.966
1008.89	0.963
1017.42	0.955
1025.95	0.953
1034.47	0.945
1043	0.913
1051.53	0.86
1060.06	0.933
1068.59	0.95
1077.11	0.947
1085.64	0.922
1094.17	0.782
1102.7	0.5161
1111.22	0.4251
1119.75	0.8117
1128.28	0.95
1136.81	0.955
1145.33	0.969
1153.86	0.958
1162.39	0.933
1170.92	0.941
1179.45	0.964
1187.97	0.97
1196.5	0.973
1205.03	0.973
1213.56	0.969
1222.08	0.95
1230.61	0.87
1239.14	0.847
1247.67	0.953
1256.19	0.957
1264.72	0.957
1273.25	0.955
1281.78	0.955
1290.31	0.957
1298.83	0.957
1307.36	0.942
1315.89	0.914
1324.42	0.883
1332.94	0.925
1341.47	0.97
1350	0.992
1358.53	0.992
1367.05	0.997
1375.58	0.991
1384.11	0.982
1392.64	0.992
1401.17	0.991
1409.69	0.992
1418.22	0.991
1426.75	0.989
1435.28	0.989
1443.8	0.982
1452.33	0.966
1460.86	0.964
1469.39	0.972
1477.91	0.982
1486.44	0.986
1494.97	0.985
1503.5	0.985
1512.03	0.985
1520.55	0.983
1529.08	0.985
1537.61	0.985
1546.14	0.985
1554.66	0.985
1563.19	0.985
1571.72	0.985
1580.25	0.986
1588.77	0.988
1597.3	0.988
1605.83	0.988
1614.36	0.986
1622.89	0.98
1631.41	0.975
1639.94	0.976
1648.47	0.979
1657	0.985
1665.52	0.985
1674.05	0.985
1682.58	0.982
1691.11	0.982
1699.63	0.977
1708.16	0.977
1716.69	0.977
1725.22	0.98
1733.75	0.982
1742.27	0.976
1750.8	0.977
1759.33	0.972
1767.86	0.973
1776.38	0.976
1784.91	0.977
1793.44	0.977
1801.97	0.977
1810.49	0.976
1819.02	0.976
1827.55	0.976
1836.08	0.977
1844.61	0.976
1853.13	0.976
1861.66	0.976
1870.19	0.976
1878.72	0.976
1887.24	0.977
1895.77	0.976
1904.3	0.976
1912.83	0.976
1921.36	0.976
1929.88	0.976
1938.41	0.973
1946.94	0.972
1955.47	0.966
1963.99	0.969
1972.52	0.967
1981.05	0.966
1989.58	0.964
1998.1	0.964
2006.63	0.9685
2015.16	1.041
2023.69	1.033
2032.22	1.024
2040.74	1.023
2049.27	1.029
2057.8	1.032
2066.33	1.032
2074.85	1.032
2083.38	1.033
2091.91	1.032
2100.44	1.03
2108.96	1.0294
2117.49	1.0268
2126.02	1.023
2134.55	1.023
2143.08	1.023
2151.6	1.023
2160.13	1.023
2168.66	1.023
2177.19	1.022
2185.71	1.022
2194.24	1.022
2202.77	1.023
2211.3	1.022
2219.82	1.02
2228.35	1.02
2236.88	1.02
2245.41	1.02
2253.94	1.02
2262.46	1.022
2270.99	1.0224
2279.52	1.023
2288.05	1.023
2296.57	1.023
2305.1	1.026
2313.63	1.026
2322.16	1.027
2330.68	1.027
2339.21	1.028
2347.74	1.026
2356.27	1.023
2364.8	1.02
2373.32	1.016
2381.85	1.013
2390.38	1.0104
2398.91	1.008
2407.43	1.007
2415.96	1.007
2424.49	1.007
2433.02	1.0067
2441.54	1.005
2450.07	1.005
2458.6	1.005
2467.13	1.004
2475.66	1.004
2484.18	1.002
2492.71	1.002
2501.24	1.002
2509.77	1.002
2518.29	1.002
2526.82	1.002
2535.35	1.002
2543.88	1.002
2552.4	1.002
2560.93	1.002
2569.46	1.002
2577.99	1.002
2586.52	1.001
2595.04	1.001
2603.57	1.001
2612.1	1.001
2620.63	1.001
2629.15	1.001
2637.68	1.001
2646.21	1.001
2654.74	1.001
2663.26	1.001
2671.79	1
2680.32	1
2688.85	1
2697.38	0.998
2705.9	0.997
2714.43	0.997
2722.96	0.997
2731.49	0.994
2740.01	0.992
2748.54	0.992
2757.07	0.992
2765.6	0.992
2774.12	0.992
2782.65	0.9877
2791.18	0.982
2799.71	0.982
2808.24	0.983
2816.76	0.983
2825.29	0.985
2833.82	0.977
2842.35	0.967
2850.87	0.9723
2859.4	0.9758
2867.93	0.977
2876.46	0.9752
2884.98	0.9697
2893.51	0.9602
2902.04	0.9507
2910.57	0.945
2919.1	0.9467
2927.62	0.9609
2936.15	0.9694
2944.68	0.972
2953.21	0.969
2961.73	0.9612
2970.26	0.9487
2978.79	0.9547
2987.32	0.9695
2995.84	0.9849
3004.37	0.99
3012.9	0.989
3021.43	0.987
3029.96	0.983
3038.48	0.98
3047.01	0.983
3055.54	0.9885
3064.07	0.9911
3072.59	0.992
3081.12	0.992
3089.65	0.992
3098.18	0.991
3106.7	0.989
3115.23	0.989
3123.76	0.989
3132.29	0.989
3140.82	0.989
3149.34	0.989
3157.87	0.989
3166.4	0.989
3174.93	0.988
3183.45	0.986
3191.98	0.9852
3200.51	0.983
3209.04	0.982
3217.56	0.982
3226.09	0.98
3234.62	0.98
3243.15	0.979
3251.68	0.9783
3260.2	0.977
3268.73	0.977
3277.26	0.9751
3285.79	0.973
3294.31	0.9721
3302.84	0.9696
3311.37	0.967
3319.9	0.9651
3328.42	0.963
3336.95	0.961
3345.48	0.958
3354.01	0.955
3362.54	0.95
3371.06	0.9445
3379.59	0.9409
3388.12	0.938
3396.65	0.935
3405.17	0.935
3413.7	0.936
3422.23	0.938
3430.76	0.9381
3439.28	0.9416
3447.81	0.9471
3456.34	0.9523
3464.87	0.9542
3473.4	0.955
3481.92	0.955
3490.45	0.955
3498.98	0.957
3507.51	0.96
3516.03	0.963
3524.56	0.964
3533.09	0.9645
3541.62	0.966
3550.14	0.9646
3558.67	0.967
3567.2	0.967
3575.73	0.967
3584.26	0.967
3592.78	0.967
3601.31	0.967
3609.84	0.967
3618.37	0.967
3626.89	0.967
3635.42	0.969
3643.95	0.967
3652.48	0.967
3661	0.967
3669.53	0.967
3678.06	0.967
3686.59	0.967
3695.12	0.967
3703.64	0.969
3712.17	0.969
3720.7	0.9695
3729.23	0.969
3737.75	0.967
3746.28	0.967
3754.81	0.966
3763.34	0.966
3771.86	0.966
3780.39	0.9642
