Infrared Spectrum: Hexylamine, 1,5-dimethyl-
Formula: C8 H19 N
CAS: 543-82-8
State: SOLUTION (10% CCl4 FOR 3800-450 CM^-^1)
Class: COBLENTZ III
Instrument: DOW KBr FOREPRISM-GRATING
Instrument parameters: BLAZED AT 3.5, 12.0, 20.0 MICRON AND CHANGED AT 5.0, 7.5, 14.9 MICRON
Sampling: TRANSMISSION
Path length: 0.011 CM
Resolution: 2
Origin: DOW CHEMICAL COMPANY
1/CM	TRANSMITTANCE
458	0.5624
467	0.5638
476	0.5651
485	0.5781
494	0.6147
503	0.6585
512	0.6535
521	0.6438
530	0.6464
539	0.6585
548	0.6825
557	0.6909
566	0.6909
575	0.6921
584	0.7023
593	0.6934
602	0.7046
611	0.6995
620	0.6719
629	0.6594
638	0.722
647	0.7226
656	0.7199
665	0.7039
674	0.7185
683	0.7194
692	0.6911
701	0.6321
710	0.57
719	0.3494
728	0.1104
737	0.008
746	0.008
755	0.008
764	0.008
773	0.008
782	0.008
791	0.008
800	0.008
809	0.0095
818	0.0623
827	0.1765
836	0.2431
845	0.3162
854	0.3926
863	0.4168
872	0.4569
881	0.5543
890	0.608
899	0.6507
908	0.674
917	0.6685
926	0.7178
935	0.7208
944	0.736
953	0.7267
962	0.6724
971	0.5903
980	0.5878
989	0.6363
998	0.599
1007	0.5911
1016	0.667
1025	0.7535
1034	0.7692
1043	0.7516
1052	0.727
1061	0.7124
1070	0.7128
1079	0.7204
1088	0.7075
1097	0.6963
1106	0.6892
1115	0.7159
1124	0.6751
1133	0.6192
1142	0.6062
1151	0.5499
1160	0.6213
1169	0.628
1178	0.7433
1187	0.7217
1196	0.6912
1205	0.657
1214	0.6273
1223	0.6501
1232	0.6501
1241	0.6161
1250	0.6004
1259	0.6675
1268	0.7397
1277	0.7554
1286	0.7756
1295	0.7721
1304	0.7597
1313	0.7552
1322	0.6976
1331	0.6674
1340	0.6007
1349	0.5857
1358	0.5909
1367	0.2473
1376	0.3749
1385	0.2573
1394	0.6891
1403	0.7691
1412	0.7749
1421	0.7563
1430	0.7031
1439	0.5833
1448	0.3395
1457	0.2191
1466	0.1835
1475	0.5668
1484	0.6775
1493	0.6664
1502	0.6296
1511	0.578
1520	0.5474
1529	0.4987
1538	0.4245
1547	0.3648
1556	0.3824
1565	0.4341
1574	0.456
1583	0.4564
1592	0.4896
1601	0.5317
1610	0.5405
1619	0.5406
1628	0.567
1637	0.611
1646	0.6516
1655	0.6717
1664	0.7157
1673	0.7473
1682	0.7757
1691	0.8066
1700	0.8339
1709	0.8473
1718	0.8542
1727	0.862
1736	0.8709
1745	0.8777
1754	0.8841
1763	0.8884
1772	0.8903
1781	0.8913
1790	0.8913
1799	0.8913
1808	0.891
1817	0.8907
1826	0.8903
1835	0.8901
1844	0.8898
1853	0.8901
1862	0.8904
1871	0.8911
1880	0.892
1889	0.8929
1898	0.8937
1907	0.8939
1916	0.8933
1925	0.8918
1934	0.8903
1943	0.8892
1952	0.8886
1961	0.8877
1970	0.8866
1979	0.885
1988	0.8869
1997	0.8964
2006	0.8971
2015	0.8962
2024	0.8963
2033	0.8963
2042	0.8958
2051	0.8953
2060	0.8957
2069	0.8965
2078	0.8973
2087	0.898
2096	0.8984
2105	0.8987
2114	0.8994
2123	0.9002
2132	0.9011
2141	0.9016
2150	0.9023
2159	0.9028
2168	0.9036
2177	0.9044
2186	0.9053
2195	0.9059
2204	0.9066
2213	0.9072
2222	0.9074
2231	0.9067
2240	0.9061
2249	0.9035
2258	0.8996
2267	0.8948
2276	0.891
2285	0.8886
2294	0.8886
2303	0.8917
2312	0.897
2321	0.9023
2330	0.9056
2339	0.9052
2348	0.9041
2357	0.9029
2366	0.9016
2375	0.9007
2384	0.8997
2393	0.8993
2402	0.8991
2411	0.8988
2420	0.8982
2429	0.8975
2438	0.8967
2447	0.8955
2456	0.8941
2465	0.8916
2474	0.889
2483	0.8863
2492	0.8833
2501	0.8803
2510	0.8771
2519	0.8739
2528	0.872
2537	0.8699
2546	0.8681
2555	0.8665
2564	0.8623
2573	0.8551
2582	0.8446
2591	0.8341
2600	0.8262
2609	0.8197
2618	0.8169
2627	0.8162
2636	0.816
2645	0.8102
2654	0.8034
2663	0.8006
2672	0.8018
2681	0.8036
2690	0.8046
2699	0.7977
2708	0.781
2717	0.7588
2726	0.7512
2735	0.7537
2744	0.7584
2753	0.7577
2762	0.75
2771	0.7429
2780	0.7294
2789	0.7005
2798	0.6733
2807	0.6347
2816	0.5776
2825	0.4444
2834	0.3328
2843	0.172
2852	0.1079
2861	0.0958
2870	0.0686
2879	0.0746
2888	0.1117
2897	0.0442
2906	0.0281
2915	0.0168
2924	0.0093
2933	0.0151
2942	0.0248
2951	0.0072
2960	0.0033
2969	0.0208
2978	0.1714
2987	0.324
2996	0.4767
3005	0.6036
3014	0.6446
3023	0.663
3032	0.6761
3041	0.6843
3050	0.6919
3059	0.6982
3068	0.702
3077	0.7054
3086	0.7082
3095	0.7086
3104	0.7081
3113	0.7065
3122	0.7029
3131	0.6965
3140	0.6879
3149	0.6769
3158	0.6652
3167	0.6535
3176	0.6426
3185	0.6359
3194	0.6316
3203	0.6312
3212	0.6323
3221	0.6348
3230	0.6379
3239	0.6333
3248	0.6257
3257	0.6175
3266	0.6084
3275	0.5983
3284	0.5872
3293	0.5766
3302	0.5672
3311	0.5577
3320	0.5483
3329	0.5387
3338	0.5293
3347	0.5198
3356	0.5109
3365	0.5027
3374	0.4966
3383	0.4932
3392	0.4957
3401	0.4995
3410	0.5028
3419	0.5062
3428	0.51
3437	0.5137
3446	0.5185
3455	0.5239
3464	0.5309
3473	0.538
3482	0.5477
3491	0.5587
3500	0.5689
3509	0.5797
3518	0.5925
3527	0.607
3536	0.6223
3545	0.6362
3554	0.65
3563	0.664
3572	0.6798
3581	0.6955
3590	0.7108
3599	0.7263
3608	0.7433
3617	0.7578
3626	0.7704
3635	0.782
3644	0.7935
3653	0.7929
3662	0.7695
3671	0.7573
3680	0.8077
3689	0.8379
3698	0.8469
3707	0.8546
3716	0.8602
3725	0.8638
3734	0.8661
3743	0.8673
3752	0.8687
3761	0.8701
3770	0.8712
3779	0.8721
3788	0.873
3797	0.8729
