Infrared Spectrum: 2-Ethyl-2-propyl-1-hexanol
Formula: C11 H24 O
CAS: 54461-00-6
State: SOLUTION (10% CCl4 FOR 3800-1330, 10% CS2 FOR 1330-450 CM^-^1)
Boiling point: 105 C AT 10 mmHg
Class: COBLENTZ III
Instrument: DOW KBr FOREPRISM-GRATING
Instrument parameters: BLAZED AT 3.5, 12.0, 20.0 MICRON AND CHANGED AT 5.0, 7.5, 14.9 MICRON
Sampling: TRANSMISSION
Path length: 0.011 CM, 0.011 CM
Resolution: 2
Origin: DOW CHEMICAL COMPANY
1/CM	TRANSMITTANCE
3800	0.9282
3791	0.9292
3782	0.9264
3773	0.927
3764	0.9249
3755	0.9239
3746	0.9237
3737	0.9271
3728	0.9285
3719	0.9268
3710	0.9268
3701	0.9246
3692	0.919
3683	0.9124
3674	0.9061
3665	0.8883
3656	0.8798
3647	0.8698
3638	0.6181
3629	0.4965
3620	0.5622
3611	0.7371
3602	0.8293
3593	0.8483
3584	0.8529
3575	0.8482
3566	0.8136
3557	0.8015
3548	0.7746
3539	0.7354
3530	0.6804
3521	0.6327
3512	0.5962
3503	0.577
3494	0.5654
3485	0.5536
3476	0.5411
3467	0.5283
3458	0.5155
3449	0.5033
3440	0.4914
3431	0.4825
3422	0.4737
3413	0.4652
3404	0.4572
3395	0.4496
3386	0.4432
3377	0.4385
3368	0.435
3359	0.4334
3350	0.4377
3341	0.4459
3332	0.4605
3323	0.4786
3314	0.5031
3305	0.5358
3296	0.5593
3287	0.5866
3278	0.6185
3269	0.6462
3260	0.675
3251	0.7008
3242	0.7227
3233	0.7422
3224	0.7588
3215	0.7721
3206	0.7827
3197	0.7957
3188	0.8076
3179	0.8158
3170	0.8222
3161	0.8281
3152	0.8346
3143	0.839
3134	0.8459
3125	0.8509
3116	0.8544
3107	0.8576
3098	0.8598
3089	0.8604
3080	0.8537
3071	0.8505
3062	0.8414
3053	0.8344
3044	0.8298
3035	0.8151
3026	0.781
3017	0.7575
3008	0.7115
2999	0.5709
2990	0.4326
2981	0.217
2972	-0.0036
2963	-0.0036
2954	-0.0036
2945	-0.0036
2936	-0.0036
2927	-0.0036
2918	-0.0036
2909	-0.0036
2900	-0.0036
2891	-0.0001
2882	0.0003
2873	-0.0036
2864	-0.0036
2855	0.1118
2846	0.3162
2837	0.4957
2828	0.5716
2819	0.6455
2810	0.6895
2801	0.7241
2792	0.7512
2783	0.7721
2774	0.7903
2765	0.8007
2756	0.8091
2747	0.8128
2738	0.8087
2729	0.7945
2720	0.8002
2711	0.8318
2702	0.8505
2693	0.8616
2684	0.8645
2675	0.8656
2666	0.8659
2657	0.8687
2648	0.8698
2639	0.8708
2630	0.873
2621	0.8775
2612	0.8807
2603	0.8838
2594	0.8877
2585	0.892
2576	0.8962
2567	0.9004
2558	0.9051
2549	0.9099
2540	0.9146
2531	0.9194
2522	0.9231
2513	0.9262
2504	0.9293
2495	0.9324
2486	0.9333
2477	0.9359
2468	0.9366
2459	0.9366
2450	0.9351
2441	0.9348
2432	0.9332
2423	0.9306
2414	0.9271
2405	0.9271
2396	0.9266
2387	0.9289
2378	0.9372
2369	0.9424
2360	0.9469
2351	0.9549
2342	0.958
2333	0.959
2324	0.9614
2315	0.9551
2306	0.9477
2297	0.9464
2288	0.943
2279	0.9402
2270	0.9372
2261	0.9354
2252	0.9351
2243	0.9353
2234	0.9373
2225	0.9411
2216	0.9423
2207	0.9446
2198	0.946
2189	0.9449
2180	0.9455
2171	0.9478
2162	0.9463
2153	0.9476
2144	0.9491
2135	0.9502
2126	0.9509
2117	0.9506
2108	0.9502
2099	0.9491
2090	0.9471
2081	0.945
2072	0.9431
2063	0.9402
2054	0.9403
2045	0.9362
2036	0.9356
2027	0.9383
2018	0.9418
2009	0.9444
2000	0.9456
1991	0.9212
1982	0.908
1973	0.9081
1964	0.9115
1955	0.9173
1946	0.9179
1937	0.9215
1928	0.9249
1919	0.9286
1910	0.9316
1901	0.936
1892	0.938
1883	0.9394
1874	0.9424
1865	0.9436
1856	0.945
1847	0.945
1838	0.9451
1829	0.943
1820	0.9426
1811	0.9441
1802	0.9405
1793	0.9414
1784	0.9414
1775	0.939
1766	0.9378
1757	0.9401
1748	0.9393
1739	0.9333
1730	0.9176
1721	0.9195
1712	0.9223
1703	0.925
1694	0.9295
1685	0.9336
1676	0.9371
1667	0.9414
1658	0.9442
1649	0.9465
1640	0.9429
1631	0.9368
1622	0.9316
1613	0.9352
1604	0.9334
1595	0.893
1586	0.8851
1577	0.8794
1568	0.866
1559	0.8303
1550	0.8508
1541	0.8601
1532	0.8716
1523	0.8731
1514	0.8599
1505	0.8319
1496	0.8142
1487	0.7692
1478	0.3958
1469	0.0736
1460	0.087
1451	0.2288
1442	0.6146
1433	0.7182
1424	0.7818
1415	0.7866
1406	0.7567
1397	0.6907
1388	0.6243
1379	0.3087
1370	0.6423
1361	0.7271
1352	0.7277
1343	0.6982
1334	0.7196
1325	0.7486
1316	0.764
1307	0.7631
1298	0.7776
1289	0.794
1280	0.8028
1271	0.81
1262	0.8168
1253	0.8095
1244	0.796
1235	0.7967
1226	0.7973
1217	0.795
1208	0.814
1199	0.8389
1190	0.8584
1181	0.8543
1172	0.8416
1163	0.8434
1154	0.814
1145	0.8062
1136	0.8786
1127	0.9293
1118	0.9407
1109	0.9171
1100	0.7929
1091	0.75
1082	0.7154
1073	0.7721
1064	0.6003
1055	0.437
1046	0.3193
1037	0.0747
1028	0.0552
1019	0.3434
1010	0.6595
1001	0.759
992	0.7953
983	0.7876
974	0.8301
965	0.8433
956	0.7455
947	0.808
938	0.9013
929	0.8559
920	0.8311
911	0.8966
902	0.9161
893	0.8557
884	0.9355
875	0.9355
866	0.9516
857	0.9587
848	0.9618
839	0.9687
830	0.9742
821	0.9811
812	0.9848
803	0.9787
794	0.8965
785	0.8157
776	0.7759
767	0.8661
758	0.8861
749	0.8653
740	0.7658
731	0.7657
722	0.8436
713	0.908
704	0.928
695	0.9411
686	0.9474
677	0.9452
668	0.9362
659	0.8929
650	0.8946
641	0.8891
632	0.8864
623	0.8832
614	0.8758
605	0.8627
596	0.8617
587	0.8582
578	0.8528
569	0.8613
560	0.8632
551	0.8515
542	0.8408
533	0.845
524	0.849
515	0.8512
506	0.8527
497	0.852
488	0.848
479	0.8424
470	0.834
461	0.8245
