Infrared Spectrum: 4,5-Oxazoledione, 2-phenyl-, 4-phenylhydrazone
Formula: C15 H11 N3 O2
CAS: 54506-04-6
State: SOLUTION 2% (CHCl3 FOR 2.5-12.5 microns)
Melting point: 207-208 C
Class: COBLENTZ
Instrument: PERKIN-ELMER 21 (GRATING)
Instrument parameters: FILTER AT ABOUT 10 MICRONS
Path length: 0.03 CM
Resolution: 2
Origin: ABBOTT LABORATORIES
1/CM	TRANSMITTANCE
804	0.6826
812	0.6738
820	0.6714
828	0.7107
836	0.7186
844	0.6394
852	0.4453
860	0.2244
868	0.0786
876	0.3119
884	0.6297
892	0.6073
900	0.7427
908	0.7317
916	0.5448
924	0.6273
932	0.7635
940	0.7845
948	0.788
956	0.751
964	0.6598
972	0.4839
980	0.2033
988	0.2741
996	0.5007
1004	0.7126
1012	0.7678
1020	0.7557
1028	0.7557
1036	0.7409
1044	0.709
1052	0.6666
1060	0.6448
1068	0.4038
1076	0.5397
1084	0.6223
1092	0.3726
1100	0.3884
1108	0.2163
1116	0.5793
1124	0.6945
1132	0.6587
1140	0.6248
1148	0.6091
1156	0.5957
1164	0.5385
1172	0.2981
1180	0.3334
1188	0.2528
1196	0.228
1204	0.209
1212	0.1902
1220	0.1718
1228	0.1535
1236	0.1396
1244	0.1622
1252	0.2968
1260	0.4542
1268	0.4027
1276	0.142
1284	0.2092
1292	0.1941
1300	0.2343
1308	0.4213
1316	0.3743
1324	0.212
1332	0.1625
1340	0.6108
1348	0.7285
1356	0.7514
1364	0.7576
1372	0.7589
1380	0.7572
1388	0.7543
1396	0.7661
1404	0.773
1412	0.7715
1420	0.7733
1428	0.7576
1436	0.7123
1444	0.5772
1452	0.2721
1460	0.7563
1468	0.7379
1476	0.543
1484	0.4683
1492	0.2659
1500	0.2895
1508	0.2082
1516	0.1526
1524	0.183
1532	0.1963
1540	0.3979
1548	0.6326
1556	0.6363
1564	0.5999
1572	0.539
1580	0.2397
1588	0.1625
1596	0.271
1604	0.0249
1612	0.2091
1620	0.1691
1628	0.0525
1636	0.0279
1644	0.2282
1652	0.4615
1660	0.5655
1668	0.6699
1676	0.7212
1684	0.7374
1692	0.7513
1700	0.7488
1708	0.73
1716	0.6899
1724	0.6518
1732	0.6207
1740	0.6147
1748	0.619
1756	0.6259
1764	0.6209
1772	0.6006
1780	0.4434
1788	0.2373
1796	0.0519
1804	0.0237
1812	0.0409
1820	0.1801
1828	0.3585
1836	0.5153
1844	0.5398
1852	0.5525
1860	0.574
1868	0.6906
1876	0.7311
1884	0.7988
1892	0.8174
1900	0.8195
1908	0.8194
1916	0.8178
1924	0.8204
1932	0.8207
1940	0.8192
1948	0.8171
1956	0.8143
1964	0.8101
1972	0.8109
1980	0.8192
1988	0.83
1996	0.8409
2004	0.8567
2012	0.8679
2020	0.872
2028	0.8755
2036	0.8784
2044	0.8813
2052	0.8836
2060	0.8838
2068	0.8814
2076	0.8787
2084	0.8762
2092	0.8749
2100	0.875
2108	0.8749
2116	0.8747
2124	0.8745
2132	0.8744
2140	0.8744
2148	0.8743
2156	0.8742
2164	0.874
2172	0.8738
2180	0.8736
2188	0.8738
2196	0.8741
2204	0.8744
2212	0.8751
2220	0.8772
2228	0.8828
2236	0.8863
2244	0.8835
2252	0.8803
2260	0.8782
2268	0.8761
2276	0.8742
2284	0.8722
2292	0.8704
2300	0.8687
2308	0.8672
2316	0.8658
2324	0.8645
2332	0.8633
2340	0.862
2348	0.8608
2356	0.8596
2364	0.8584
2372	0.8568
2380	0.854
2388	0.8513
2396	0.8477
2404	0.8455
2412	0.8446
2420	0.8438
2428	0.843
2436	0.8424
2444	0.8417
2452	0.8382
2460	0.8353
2468	0.8349
2476	0.8369
2484	0.8368
2492	0.842
2500	0.8456
2508	0.8479
2516	0.85
2524	0.8524
2532	0.8547
2540	0.8573
2548	0.8601
2556	0.8626
2564	0.8649
2572	0.8672
2580	0.8673
2588	0.8667
2596	0.8663
2604	0.8651
2612	0.8635
2620	0.862
2628	0.8605
2636	0.8604
2644	0.8607
2652	0.8611
2660	0.8624
2668	0.864
2676	0.8656
2684	0.867
2692	0.8684
2700	0.8698
2708	0.8704
2716	0.8705
2724	0.8698
2732	0.8679
2740	0.8661
2748	0.8643
2756	0.8631
2764	0.8627
2772	0.8624
2780	0.8623
2788	0.8626
2796	0.863
2804	0.8636
2812	0.8655
2820	0.8678
2828	0.87
2836	0.8724
2844	0.874
2852	0.8749
2860	0.8758
2868	0.8765
2876	0.8768
2884	0.877
2892	0.8766
2900	0.8762
2908	0.873
2916	0.8688
2924	0.8642
2932	0.8596
2940	0.8538
2948	0.8479
2956	0.8436
2964	0.8395
2972	0.8354
2980	0.8319
2988	0.8291
2996	0.8263
3004	0.8235
3012	0.8215
3020	0.8199
3028	0.8185
3036	0.8175
3044	0.8167
3052	0.8158
3060	0.8124
3068	0.8149
3076	0.8153
3084	0.8158
3092	0.8175
3100	0.8194
3108	0.8213
3116	0.8239
3124	0.8277
3132	0.8315
3140	0.8362
3148	0.8412
3156	0.8461
3164	0.8502
3172	0.8542
3180	0.8558
3188	0.8566
3196	0.8555
3204	0.8541
3212	0.8529
3220	0.8518
3228	0.8507
3236	0.8496
3244	0.8483
3252	0.8471
3260	0.8458
3268	0.8444
3276	0.8412
3284	0.8375
3292	0.8333
3300	0.8276
3308	0.8206
3316	0.8025
3324	0.7815
3332	0.7606
3340	0.7398
3348	0.7191
3356	0.6986
3364	0.678
3372	0.6577
3380	0.6515
3388	0.6762
3396	0.7286
3404	0.7808
3412	0.8263
3420	0.8339
3428	0.8371
3436	0.8397
3444	0.8422
3452	0.8443
3460	0.8465
3468	0.8491
3476	0.8517
3484	0.8543
3492	0.8566
3500	0.8579
3508	0.8581
3516	0.8582
3524	0.8583
3532	0.8584
3540	0.8585
3548	0.8586
3556	0.8586
3564	0.8586
3572	0.8586
3580	0.8588
3588	0.8591
3596	0.8593
3604	0.8596
3612	0.8599
3620	0.8603
3628	0.8614
3636	0.8627
3644	0.864
3652	0.8653
3660	0.8667
3668	0.8682
3676	0.8697
3684	0.871
3692	0.8725
3700	0.8731
3708	0.8731
3716	0.8731
3724	0.8731
3732	0.8732
3740	0.8732
3748	0.8732
3756	0.8738
3764	0.8746
3772	0.8753
3780	0.8761
3788	0.8768
3796	0.8775
3804	0.8782
3812	0.8789
3820	0.8796
3828	0.8802
3836	0.8805
3844	0.8808
3852	0.881
3860	0.8813
3868	0.8816
3876	0.8819
3884	0.8821
3892	0.8824
3900	0.8827
3908	0.883
3916	0.8833
3924	0.8836
3932	0.8838
3940	0.8839
3948	0.884
3956	0.8842
3964	0.8843
3972	0.8843
3980	0.8844
3988	0.8846
3996	0.8847
