Infrared Spectrum: 4'-(BENZYLOXY) ACETOPHENONE
Formula: C15 H14 O2
CAS: 54696-05-8
State: SOLID (NUJOL MULL)
Class: COBLENTZ III
Instrument: BECKMAN IR-7 (GRATING)
Instrument parameters: GRATING CHANGED AT 3000, 2200, 1150 CM^-^1
Sampling: TRANSMISSION
Resolution: 4
Origin: WESTERN REGIONAL RES. USDA
1/CM	TRANSMITTANCE
598.039	0.724
607.036	0.788
616.032	0.834
625.029	0.846
634.025	0.827
643.022	0.843
652.018	0.834
661.015	0.826
670.011	0.819
679.008	0.814
688.004	0.79
697.001	0.78
705.998	0.4581
714.994	0.751
723.991	0.765
732.987	0.773
741.984	0.773
750.98	0.6091
759.977	0.4395
768.973	0.762
777.97	0.782
786.966	0.788
795.963	0.785
804.959	0.764
813.956	0.759
822.953	0.442
831.949	0.701
840.946	0.752
849.942	0.734
858.939	0.611
867.935	0.778
876.932	0.778
885.928	0.776
894.925	0.771
903.921	0.768
912.918	0.696
921.915	0.741
930.911	0.753
939.908	0.73
948.904	0.688
957.901	0.524
966.897	0.738
975.894	0.721
984.89	0.6011
993.887	0.6
1002.88	0.376
1011.88	0.618
1020.88	0.721
1029.87	0.764
1038.87	0.773
1047.87	0.776
1056.86	0.765
1065.86	0.753
1074.86	0.705
1083.85	0.729
1092.85	0.736
1101.85	0.696
1110.84	0.672
1119.84	0.611
1128.84	0.652
1137.83	0.634
1146.83	0.581
1155.82	0.568
1164.82	0.3791
1173.82	0.4363
1182.81	0.706
1191.81	0.718
1200.81	0.678
1209.8	0.623
1218.8	0.553
1227.8	0.449
1236.79	0.304
1245.79	0.153
1254.79	0.303
1263.78	0.5319
1272.78	0.579
1281.78	0.706
1290.77	0.721
1299.77	0.5041
1308.77	0.687
1317.76	0.646
1326.76	0.733
1335.76	0.768
1344.75	0.729
1353.75	0.4502
1362.75	0.59
1371.74	0.607
1380.74	0.512
1389.73	0.7199
1398.73	0.773
1407.73	0.765
1416.72	0.611
1425.72	0.597
1434.72	0.672
1443.71	0.596
1452.71	0.435
1461.71	0.442
1470.7	0.6409
1479.7	0.723
1488.7	0.723
1497.69	0.707
1506.69	0.479
1515.69	0.777
1524.68	0.783
1533.68	0.752
1542.68	0.744
1551.67	0.721
1560.67	0.686
1569.67	0.633
1578.66	0.573
1587.66	0.382
1596.66	0.2
1605.65	0.5929
1614.65	0.748
1623.64	0.782
1632.64	0.782
1641.64	0.768
1650.63	0.763
1659.63	0.718
1668.63	0.576
1677.62	0.164
1686.62	0.6579
1695.62	0.819
1704.61	0.834
1713.61	0.823
1722.61	0.817
1731.6	0.814
1740.6	0.81
1749.6	0.806
1758.59	0.801
1767.59	0.787
1776.59	0.8
1785.58	0.805
1794.58	0.804
1803.58	0.8
1812.57	0.796
1821.57	0.793
1830.57	0.785
1839.56	0.788
1848.56	0.788
1857.55	0.785
1866.55	0.782
1875.55	0.775
1884.54	0.779
1893.54	0.766
1902.54	0.749
1911.53	0.771
1920.53	0.771
1929.53	0.771
1938.52	0.771
1947.52	0.766
1956.52	0.762
1965.51	0.756
1974.51	0.747
1983.51	0.751
1992.5	0.744
2001.5	0.7495
2010.5	0.749
2019.49	0.75
2028.49	0.75
2037.49	0.749
2046.48	0.7475
2055.48	0.7475
2064.48	0.748
2073.47	0.749
2082.47	0.7485
2091.47	0.747
2100.46	0.7445
2109.46	0.744
2118.45	0.745
2127.45	0.7465
2136.45	0.748
2145.44	0.747
2154.44	0.745
2163.44	0.7435
2172.43	0.742
2181.43	0.7405
2190.43	0.739
2199.42	0.7375
2208.42	0.736
2217.42	0.7355
2226.41	0.733
2235.41	0.732
2244.41	0.732
2253.4	0.731
2262.4	0.731
2271.4	0.7295
2280.39	0.7265
2289.39	0.7245
2298.39	0.7225
2307.38	0.721
2316.38	0.721
2325.38	0.721
2334.37	0.72
2343.37	0.72
2352.36	0.719
2361.36	0.718
2370.36	0.717
2379.35	0.7141
2388.35	0.7111
2397.35	0.7066
2406.34	0.7016
2415.34	0.701
2424.34	0.7014
2433.33	0.702
2442.33	0.701
2451.33	0.6981
2460.32	0.6956
2469.32	0.6936
2478.32	0.6916
2487.31	0.689
2496.31	0.689
2505.31	0.6904
2514.3	0.691
2523.3	0.6881
2532.3	0.6816
2541.29	0.6761
2550.29	0.6736
2559.29	0.6744
2568.28	0.6746
2577.28	0.6736
2586.27	0.6716
2595.27	0.669
2604.27	0.666
2613.26	0.665
2622.26	0.665
2631.26	0.666
2640.25	0.666
2649.25	0.666
2658.25	0.6646
2667.24	0.6616
2676.24	0.659
2685.24	0.6566
2694.23	0.656
2703.23	0.656
2712.23	0.6556
2721.22	0.6542
2730.22	0.6506
2739.22	0.65
2748.21	0.649
2757.21	0.6494
2766.21	0.649
2775.2	0.649
2784.2	0.648
2793.2	0.6452
2802.19	0.6358
2811.19	0.6244
2820.18	0.6132
2829.18	0.6023
2838.18	0.5446
2847.17	0.3708
2856.17	0.2416
2865.17	0.2264
2874.16	0.2363
2883.16	0.2834
2892.16	0.2734
2901.15	0.2094
2910.15	0.1301
2919.15	0.0885
2928.14	0.0871
2937.14	0.1138
2946.14	0.118
2955.13	0.117
2964.13	0.1699
2973.13	0.2464
2982.12	0.3385
2991.12	0.4071
3000.12	0.4378
3009.11	0.4926
3018.11	0.5129
3027.11	0.5214
3036.1	0.5247
3045.1	0.5294
3054.1	0.5334
3063.09	0.5367
3072.09	0.5407
3081.08	0.5477
3090.08	0.5504
3099.08	0.5524
3108.07	0.553
3117.07	0.553
3126.07	0.553
3135.06	0.553
3144.06	0.553
3153.06	0.553
3162.05	0.553
3171.05	0.553
3180.05	0.553
3189.04	0.553
3198.04	0.553
3207.04	0.553
3216.03	0.552
3225.03	0.551
3234.03	0.55
3243.02	0.55
3252.02	0.549
3261.02	0.548
3270.01	0.547
3279.01	0.5467
3288.01	0.5447
3297	0.5437
3306	0.542
3314.99	0.5407
3323.99	0.539
3332.99	0.539
3341.98	0.5367
3350.98	0.536
3359.98	0.536
3368.97	0.536
3377.97	0.535
3386.97	0.534
3395.96	0.533
3404.96	0.5327
3413.96	0.531
3422.95	0.53
3431.95	0.529
3440.95	0.528
3449.94	0.5267
3458.94	0.524
3467.94	0.5237
3476.93	0.522
3485.93	0.521
3494.93	0.521
3503.92	0.521
3512.92	0.521
3521.92	0.52
3530.91	0.5197
3539.91	0.519
3548.9	0.518
3557.9	0.518
3566.9	0.517
3575.89	0.516
3584.89	0.515
3593.89	0.515
3602.88	0.514
3611.88	0.5137
3620.88	0.513
3629.87	0.5107
3638.87	0.5087
3647.87	0.507
3656.86	0.5057
3665.86	0.504
3674.86	0.502
3683.85	0.5007
3692.85	0.4987
3701.85	0.497
3710.84	0.4957
3719.84	0.495
3728.84	0.4937
3737.83	0.492
3746.83	0.4907
3755.83	0.489
3764.82	0.4877
3773.82	0.486
3782.81	0.4847
3791.81	0.484
3800.81	0.4825
3809.8	0.481
3818.8	0.4787
3827.8	0.4777
3836.79	0.475
3845.79	0.474
3854.79	0.4728
3863.78	0.472
3872.78	0.4707
3881.78	0.469
3890.77	0.468
3899.77	0.466
3908.77	0.4648
3917.76	0.4628
3926.76	0.461
3935.76	0.46
3944.75	0.458
3953.75	0.457
3962.75	0.455
3971.74	0.4548
3980.74	0.453
3989.74	0.452
3998.73	0.4508
