Infrared Spectrum: DIETHOXYMETHYLVINYLSILANE
Formula: C7 H16 O2 Si
CAS: 5507-44-8
State: SOLID (BETWEEN SALTS)
Class: COBLENTZ
Instrument: BECKMAN IR-4 (HYBRID PRISM-GRATING)
Sampling: TRANSMISSION
Resolution: 4
Origin: PENINSULAR CHEMRESEARCH, INC., GAINESVILLE, FLORIDA
MICROMETERS	TRANSMITTANCE
2.035	0.961
2.06994	0.95
2.10488	0.947
2.13982	0.958
2.17476	0.945
2.2097	0.915
2.24464	0.912
2.27959	0.931
2.31453	0.94
2.34947	0.945
2.38441	0.94
2.41935	0.93
2.45429	0.931
2.48923	0.942
2.52417	0.93
2.55911	0.92
2.59405	0.911
2.62899	0.888
2.66393	0.872
2.69887	0.862
2.73382	0.842
2.76876	0.822
2.8037	0.81
2.83864	0.817
2.87358	0.825
2.90852	0.84
2.94346	0.851
2.9784	0.875
3.01334	0.888
3.04828	0.892
3.08322	0.89
3.11816	0.886
3.1531	0.881
3.18805	0.845
3.22299	0.72
3.25793	0.58
3.29287	0.424
3.32781	0.162
3.36275	0.109
3.39769	0.137
3.43263	0.179
3.46757	0.413
3.50251	0.699
3.53745	0.802
3.57239	0.808
3.60733	0.802
3.64228	0.836
3.67722	0.921
3.71216	0.921
3.7471	0.922
3.78204	0.936
3.81698	0.947
3.85192	0.951
3.88686	0.957
3.9218	0.962
3.95674	0.958
3.99168	0.96
4.02662	0.952
4.06156	0.95
4.09651	0.96
4.13145	0.963
4.16639	0.951
4.20133	0.931
4.23627	0.938
4.27121	0.943
4.30615	0.955
4.34109	0.952
4.37603	0.955
4.41097	0.947
4.44591	0.956
4.48085	0.956
4.51579	0.948
4.55074	0.948
4.58568	0.957
4.62062	0.965
4.65556	0.97
4.6905	0.968
4.72544	0.968
4.76038	0.971
4.79532	0.967
4.83026	0.968
4.8652	0.963
4.90014	0.947
4.93508	0.95
4.97002	0.952
5.00497	0.948
5.03991	0.943
5.07485	0.933
5.10979	0.905
5.14473	0.873
5.17967	0.876
5.21461	0.892
5.24955	0.896
5.28449	0.91
5.31943	0.916
5.35437	0.922
5.38931	0.918
5.42425	0.917
5.4592	0.92
5.49414	0.922
5.52908	0.925
5.56402	0.926
5.59896	0.927
5.6339	0.931
5.66884	0.928
5.70378	0.922
5.73872	0.93
5.77366	0.925
5.8086	0.927
5.84354	0.925
5.87848	0.926
5.91343	0.927
5.94837	0.93
5.98331	0.927
6.01825	0.92
6.05319	0.92
6.08813	0.917
6.12307	0.898
6.15801	0.883
6.19295	0.806
6.22789	0.677
6.26283	0.87
6.29777	0.9
6.33271	0.891
6.36766	0.878
6.4026	0.877
6.43754	0.873
6.47248	0.877
6.50742	0.88
6.54236	0.876
6.5773	0.88
6.61224	0.86
6.64718	0.853
6.68212	0.815
6.71706	0.792
6.752	0.815
6.78694	0.795
6.82189	0.742
6.85683	0.699
6.89177	0.671
6.92671	0.706
6.96165	0.749
6.99659	0.705
7.03153	0.604
7.06647	0.498
7.10141	0.474
7.13635	0.458
7.17129	0.453
7.20623	0.578
7.24117	0.684
7.27612	0.711
7.31106	0.774
7.346	0.821
7.38094	0.845
7.41588	0.861
7.45082	0.865
7.48576	0.867
7.5207	0.861
7.55564	0.848
7.59058	0.82
7.62552	0.792
7.66046	0.727
7.6954	0.68
7.73035	0.697
7.76529	0.736
7.80023	0.707
7.83517	0.649
7.87011	0.556
7.90505	0.37
7.93999	0.285
7.97493	0.51
8.00987	0.694
8.04481	0.754
8.07975	0.766
8.11469	0.775
8.14963	0.779
8.18458	0.777
8.21952	0.771
8.25446	0.755
8.2894	0.739
8.32434	0.711
8.35928	0.695
8.39422	0.659
8.42916	0.606
8.4641	0.519
8.49904	0.408
8.53398	0.304
8.56892	0.28
8.60386	0.318
8.63881	0.373
8.67375	0.4
8.70869	0.397
8.74363	0.362
8.77857	0.313
8.81351	0.247
8.84845	0.193
8.88339	0.128
8.91833	0.096
8.95327	0.058
8.98821	0.049
9.02315	0.047
9.05809	0.048
9.09304	0.071
9.12798	0.078
9.16292	0.061
9.19786	0.048
9.2328	0.046
9.26774	0.047
9.30268	0.058
9.33762	0.108
9.37256	0.163
9.4075	0.229
9.44244	0.285
9.47738	0.349
9.51232	0.395
9.54727	0.423
9.58221	0.446
9.61715	0.461
9.65209	0.478
9.68703	0.505
9.72197	0.539
9.75691	0.554
9.79185	0.545
9.82679	0.481
9.86173	0.364
9.89667	0.323
9.93161	0.387
9.96655	0.503
10.0015	0.635
10.0364	0.689
10.0714	0.714
10.1063	0.71
10.1413	0.699
10.1762	0.674
10.2111	0.609
10.2461	0.539
10.281	0.445
10.316	0.343
10.3509	0.262
10.3858	0.202
10.4208	0.169
10.4557	0.157
10.4907	0.158
10.5256	0.187
10.5605	0.203
10.5955	0.239
10.6304	0.278
10.6654	0.327
10.7003	0.387
10.7353	0.449
10.7702	0.529
10.8051	0.585
10.8401	0.662
10.875	0.71
10.91	0.751
10.9449	0.766
10.9798	0.787
11.0148	0.806
11.0497	0.811
11.0847	0.813
11.1196	0.815
11.1545	0.815
11.1895	0.808
11.2244	0.794
11.2594	0.78
11.2943	0.774
11.3292	0.765
11.3642	0.774
11.3991	0.776
11.4341	0.776
11.469	0.78
11.5039	0.777
11.5389	0.774
11.5738	0.767
11.6088	0.736
11.6437	0.719
11.6787	0.701
11.7136	0.694
11.7485	0.659
11.7835	0.637
11.8184	0.604
11.8534	0.558
11.8883	0.519
11.9232	0.473
11.9582	0.429
11.9931	0.363
12.0281	0.299
12.063	0.223
12.0979	0.179
12.1329	0.168
12.1678	0.164
12.2028	0.172
12.2377	0.173
12.2726	0.162
12.3076	0.128
12.3425	0.121
12.3775	0.112
12.4124	0.118
12.4473	0.129
12.4823	0.144
12.5172	0.153
12.5522	0.173
12.5871	0.218
12.6221	0.26
12.657	0.299
12.6919	0.32
12.7269	0.334
12.7618	0.32
12.7968	0.304
12.8317	0.26
12.8666	0.212
12.9016	0.166
12.9365	0.128
12.9715	0.128
13.0064	0.138
13.0413	0.156
13.0763	0.192
13.1112	0.247
13.1462	0.31
13.1811	0.359
13.216	0.421
13.251	0.461
13.2859	0.513
13.3209	0.558
13.3558	0.594
13.3907	0.622
13.4257	0.647
13.4606	0.661
13.4956	0.659
13.5305	0.656
13.5655	0.654
13.6004	0.645
13.6353	0.63
13.6703	0.614
13.7052	0.598
13.7402	0.596
13.7751	0.602
13.81	0.606
13.845	0.609
13.8799	0.6
13.9149	0.591
13.9498	0.579
13.9847	0.56
14.0197	0.549
14.0546	0.534
14.0896	0.529
14.1245	0.528
14.1594	0.531
14.1944	0.551
14.2293	0.578
14.2643	0.607
14.2992	0.626
14.3342	0.646
14.3691	0.66
14.404	0.682
14.439	0.697
14.4739	0.709
14.5089	0.719
14.5438	0.727
14.5787	0.739
14.6137	0.741
14.6486	0.741
14.6836	0.734
14.7185	0.732
14.7534	0.725
14.7884	0.72
14.8233	0.701
14.8583	0.687
14.8932	0.67
14.9281	0.66
14.9631	0.657
14.998	0.659
