Infrared Spectrum: BENZAMIDE
Formula: C7 H7 N O
CAS: 55-21-0
State: SOLID (SPLIT MULL, FLUOROLUBE FOR 3800-1333 AND NUJOL FOR 1333-420 CM ^-^1)
Class: COBLENTZ III
Instrument: BECKMAN IR-9 (GRATING)
Instrument parameters: ORDER CHANGES AT 670, 1200, 2000 CM^-^1
Sampling: TRANSMISSION
Resolution: 4
Origin: DOW CHEMICAL COMPANY
1/CM	TRANSMITTANCE
415.625	0.621
424.148	0.622
432.671	0.664
441.193	0.72
449.716	0.757
458.239	0.778
466.762	0.796
475.284	0.812
483.807	0.822
492.33	0.829
500.853	0.83
509.375	0.83
517.898	0.818
526.421	0.76
534.944	0.608
543.466	0.758
551.989	0.813
560.512	0.828
569.035	0.832
577.557	0.829
586.08	0.822
594.603	0.793
603.126	0.786
611.648	0.748
620.171	0.698
628.694	0.668
637.217	0.414
645.739	0.538
654.262	0.544
662.785	0.568
671.308	0.606
679.83	0.648
688.353	0.462
696.876	0.541
705.399	0.489
713.921	0.505
722.444	0.66
730.967	0.708
739.49	0.74
748.012	0.748
756.535	0.73
765.058	0.662
773.581	0.56
782.103	0.589
790.626	0.566
799.149	0.537
807.672	0.722
816.194	0.646
824.717	0.74
833.24	0.793
841.763	0.808
850.285	0.781
858.808	0.806
867.331	0.817
875.854	0.82
884.376	0.82
892.899	0.82
901.422	0.814
909.945	0.816
918.467	0.804
926.99	0.786
935.513	0.812
944.036	0.814
952.558	0.813
961.081	0.808
969.604	0.801
978.127	0.797
986.649	0.8
995.172	0.801
1003.69	0.782
1012.22	0.801
1020.74	0.793
1029.26	0.6022
1037.79	0.796
1046.31	0.8
1054.83	0.797
1063.35	0.793
1071.88	0.773
1080.4	0.754
1088.92	0.77
1097.45	0.762
1105.97	0.745
1114.49	0.698
1123.01	0.5249
1131.54	0.626
1140.06	0.669
1148.58	0.5441
1157.1	0.678
1165.63	0.722
1174.15	0.725
1182.67	0.584
1191.2	0.726
1199.72	0.73
1208.24	0.722
1216.76	0.714
1225.29	0.713
1233.81	0.702
1242.33	0.689
1250.85	0.664
1259.38	0.66
1267.9	0.654
1276.42	0.646
1284.95	0.63
1293.47	0.618
1301.99	0.532
1310.51	0.628
1319.04	0.632
1327.56	0.645
1336.08	0.636
1344.6	0.63
1353.13	0.637
1361.65	0.633
1370.17	0.589
1378.7	0.514
1387.22	0.3879
1395.74	0.25
1404.26	0.172
1412.79	0.3961
1421.31	0.677
1429.83	0.813
1438.36	0.854
1446.88	0.6456
1455.4	0.768
1463.92	0.852
1472.45	0.854
1480.97	0.854
1489.49	0.841
1498.01	0.796
1506.54	0.821
1515.06	0.824
1523.58	0.818
1532.11	0.8
1540.63	0.777
1549.15	0.748
1557.67	0.716
1566.2	0.6459
1574.72	0.3929
1583.24	0.7211
1591.76	0.737
1600.29	0.6089
1608.81	0.4499
1617.33	0.232
1625.86	0.132
1634.38	0.345
1642.9	0.305
1651.42	0.166
1659.95	0.06
1668.47	0.0961
1676.99	0.3891
1685.51	0.6421
1694.04	0.77
1702.56	0.87
1711.08	0.933
1719.61	0.95
1728.13	0.978
1736.65	0.982
1745.17	0.986
1753.7	0.986
1762.22	0.982
1770.74	0.981
1779.27	0.986
1787.79	0.986
1796.31	0.982
1804.83	0.976
1813.36	0.954
1821.88	0.977
1830.4	0.978
1838.92	0.978
1847.45	0.977
1855.97	0.976
1864.49	0.97
1873.02	0.965
1881.54	0.957
1890.06	0.934
1898.58	0.938
1907.11	0.933
1915.63	0.937
1924.15	0.941
1932.67	0.941
1941.2	0.94
1949.72	0.934
1958.24	0.918
1966.77	0.932
1975.29	0.925
1983.81	0.936
1992.33	0.934
2000.86	0.932
2009.38	0.932
2017.9	0.93
2026.42	0.93
2034.95	0.926
2043.47	0.921
2051.99	0.917
2060.52	0.911
2069.04	0.9015
2077.56	0.9005
2086.08	0.9
2094.61	0.8975
2103.13	0.893
2111.65	0.89
2120.18	0.8866
2128.7	0.8845
2137.22	0.8815
2145.74	0.877
2154.27	0.8751
2162.79	0.8725
2171.31	0.8672
2179.83	0.862
2188.36	0.8591
2196.88	0.854
2205.4	0.85
2213.93	0.8477
2222.45	0.8416
2230.97	0.8366
2239.49	0.8311
2248.02	0.826
2256.54	0.8206
2265.06	0.817
2273.58	0.816
2282.11	0.812
2290.63	0.8056
2299.15	0.8031
2307.68	0.8
2316.2	0.801
2324.72	0.7966
2333.24	0.794
2341.77	0.793
2350.29	0.793
2358.81	0.794
2367.33	0.794
2375.86	0.794
2384.38	0.792
2392.9	0.792
2401.43	0.79
2409.95	0.7886
2418.47	0.785
2426.99	0.781
2435.52	0.781
2444.04	0.78
2452.56	0.778
2461.09	0.777
2469.61	0.776
2478.13	0.774
2486.65	0.773
2495.18	0.7712
2503.7	0.768
2512.22	0.765
2520.74	0.7616
2529.27	0.761
2537.79	0.762
2546.31	0.762
2554.84	0.761
2563.36	0.76
2571.88	0.757
2580.4	0.7536
2588.93	0.748
2597.45	0.7446
2605.97	0.742
2614.49	0.74
2623.02	0.7376
2631.54	0.734
2640.06	0.732
2648.59	0.729
2657.11	0.725
2665.63	0.7217
2674.15	0.718
2682.68	0.7137
2691.2	0.7073
2699.72	0.7047
2708.24	0.7007
2716.77	0.6937
2725.29	0.685
2733.81	0.6793
2742.34	0.672
2750.86	0.6654
2759.38	0.6547
2767.9	0.645
2776.43	0.6377
2784.95	0.636
2793.47	0.64
2802	0.6457
2810.52	0.646
2819.04	0.646
2827.56	0.649
2836.09	0.649
2844.61	0.6457
2853.13	0.6321
2861.65	0.629
2870.18	0.63
2878.7	0.632
2887.22	0.63
2895.75	0.6254
2904.27	0.6151
2912.79	0.6069
2921.31	0.5894
2929.84	0.5767
2938.36	0.5737
2946.88	0.574
2955.4	0.576
2963.93	0.573
2972.45	0.5687
2980.97	0.565
2989.5	0.5615
2998.02	0.5515
3006.54	0.5395
3015.06	0.5317
3023.59	0.5104
3032.11	0.485
3040.63	0.4835
3049.15	0.4718
3057.68	0.442
3066.2	0.4177
3074.72	0.4345
3083.25	0.436
3091.77	0.436
3100.29	0.4313
3108.81	0.4193
3117.34	0.4071
3125.86	0.3798
3134.38	0.3424
3142.91	0.2912
3151.43	0.235
3159.95	0.1904
3168.47	0.1636
3177	0.162
3185.52	0.2289
3194.04	0.3125
3202.56	0.3966
3211.09	0.4444
3219.61	0.4683
3228.13	0.5028
3236.66	0.5148
3245.18	0.517
3253.7	0.5044
3262.22	0.4924
3270.75	0.4808
3279.27	0.472
3287.79	0.4528
3296.31	0.4268
3304.84	0.4056
3313.36	0.4
3321.88	0.3883
3330.41	0.3532
3338.93	0.2991
3347.45	0.2341
3355.97	0.1498
3364.5	0.0725
3373.02	0.0676
3381.54	0.1922
3390.06	0.3476
3398.59	0.5003
3407.11	0.6131
3415.63	0.6967
3424.16	0.7453
3432.68	0.7737
3441.2	0.781
3449.72	0.781
3458.25	0.778
3466.77	0.7757
3475.29	0.7699
3483.82	0.761
3492.34	0.7554
3500.86	0.7446
3509.38	0.7379
3517.91	0.729
3526.43	0.7219
3534.95	0.7179
3543.47	0.7117
3552	0.7059
3560.52	0.7009
3569.04	0.6969
3577.57	0.692
3586.09	0.686
3594.61	0.681
3603.13	0.6779
3611.66	0.676
3620.18	0.6729
3628.7	0.6678
3637.22	0.662
3645.75	0.6598
3654.27	0.654
3662.79	0.652
3671.32	0.649
3679.84	0.6478
3688.36	0.6449
3696.88	0.6419
3705.41	0.638
3713.93	0.636
3722.45	0.634
3730.97	0.6329
3739.5	0.63
3748.02	0.628
3756.54	0.625
3765.07	0.6219
3773.59	0.6198
3782.11	0.617
3790.63	0.614
