Infrared Spectrum: Benzamide
Formula: C 7 H 7 N O
CAS: 55-21-0
State: solid
Instrument: Bruker Tensor 37 FTIR
Resolution: 0.96450084
Origin: Pacific Northwest National Laboratory Under IARPA Contract
1/cm	Reflectance
7498.99	0.86023
7481.63	0.847854
7464.27	0.848514
7446.91	0.851575
7429.55	0.847515
7412.19	0.839497
7394.84	0.823007
7377.48	0.827924
7360.12	0.836325
7342.76	0.827108
7325.4	0.815071
7308.04	0.804865
7290.68	0.810595
7273.32	0.815999
7255.96	0.828556
7238.6	0.823317
7221.24	0.832551
7203.88	0.837577
7186.52	0.837181
7169.16	0.823456
7151.8	0.807244
7134.44	0.771773
7117.08	0.732346
7099.72	0.718768
7082.36	0.676797
7065	0.65142
7047.64	0.688175
7030.28	0.669456
7012.92	0.666385
6995.56	0.673277
6978.2	0.653038
6960.84	0.657727
6943.48	0.689447
6926.12	0.706746
6908.76	0.711862
6891.4	0.707205
6874.04	0.698451
6856.68	0.705149
6839.32	0.704899
6821.96	0.685089
6804.6	0.659527
6787.24	0.683035
6769.88	0.63693
6752.52	0.4532
6735.16	0.47242
6717.8	0.52255
6700.44	0.62681
6683.08	0.653582
6665.72	0.716205
6648.36	0.715068
6631	0.734881
6613.64	0.713366
6596.28	0.720468
6578.92	0.712262
6561.56	0.728991
6544.2	0.724349
6526.85	0.741064
6509.49	0.740745
6492.13	0.751005
6474.77	0.747536
6457.41	0.751792
6440.05	0.743374
6422.69	0.749455
6405.33	0.752716
6387.97	0.755329
6370.61	0.742206
6353.25	0.729363
6335.89	0.70883
6318.53	0.66949
6301.17	0.58077
6283.81	0.45168
6266.45	0.41612
6249.09	0.39775
6231.73	0.37823
6214.37	0.4114
6197.01	0.44206
6179.65	0.41239
6162.29	0.40316
6144.93	0.34911
6127.57	0.33839
6110.21	0.38141
6092.85	0.36422
6075.49	0.34265
6058.13	0.33204
6040.77	0.4007
6023.41	0.36496
6006.05	0.26293
5988.69	0.22285
5971.33	0.37368
5953.97	0.45527
5936.61	0.45995
5919.25	0.45672
5901.89	0.46436
5884.53	0.4697
5867.17	0.47807
5849.81	0.37813
5832.45	0.41066
5815.09	0.36221
5797.73	0.38058
5780.37	0.20526
5763.01	0.36937
5745.65	0.39857
5728.29	0.43998
5710.93	0.45086
5693.57	0.45699
5676.21	0.46988
5658.86	0.46559
5641.5	0.47169
5624.14	0.47639
5606.78	0.40898
5589.42	0.43604
5572.06	0.39271
5554.7	0.43697
5537.34	0.42648
5519.98	0.38095
5502.62	0.3223
5485.26	0.17867
5467.9	0.0742
5450.54	0.03225
5433.18	0.03894
5415.82	0.03953
5398.46	0.03809
5381.1	0.03949
5363.74	0.03688
5346.38	0.03273
5329.02	0.03858
5311.66	0.04608
5294.3	0.04593
5276.94	0.05032
5259.58	0.06734
5242.22	0.08997
5224.86	0.12025
5207.5	0.1384
5190.14	0.13948
5172.78	0.11462
5155.42	0.08428
5138.06	0.07629
5120.7	0.12601
5103.34	0.20948
5085.98	0.27257
5068.62	0.28993
5051.26	0.26054
5033.9	0.31069
5016.54	0.26559
4999.18	0.29814
4981.82	0.24687
4964.46	0.27233
4947.1	0.26265
4929.74	0.26767
4912.38	0.19423
4895.02	0.20434
4877.66	0.2249
4860.3	0.27365
4842.94	0.33616
4825.58	0.37085
4808.22	0.36476
4790.86	0.34483
4773.51	0.3488
4756.15	0.31939
4738.79	0.20813
4721.43	0.20887
4704.07	0.13551
4686.71	0.25021
4669.35	0.20416
4651.99	0.12747
4634.63	0.09635
4617.27	0.08976
4599.91	0.05203
4582.55	0.0803
4565.19	0.03373
4547.83	0.05678
4530.47	0.05885
4513.11	0.07071
4495.75	0.05647
4478.39	0.04573
4461.03	0.03178
4443.67	0.03923
4426.31	0.04995
4408.95	0.04844
4391.59	0.046
4374.23	0.04728
4356.87	0.06329
4339.51	0.04488
4322.15	0.03742
4304.79	0.07058
4287.43	0.08108
4270.07	0.19576
4252.71	0.17884
4235.35	0.19435
4217.99	0.1919
4200.63	0.14766
4183.27	0.10331
4165.91	0.06768
4148.55	0.03102
4131.19	0.03517
4113.83	0.03594
4096.47	0.03172
4079.11	0.03703
4061.75	0.045806
4044.39	0.861186
4027.03	0.850911
4009.67	0.840342
3992.31	0.846652
3974.95	0.843538
3957.59	0.834259
3940.23	0.816838
3922.87	0.823832
3905.52	0.834923
3888.16	0.819457
3870.8	0.8048
3853.44	0.800453
3836.08	0.811268
3818.72	0.816478
3801.36	0.821373
3784	0.815386
3766.64	0.823904
3749.28	0.825827
3731.92	0.824957
3714.56	0.813115
3697.2	0.791084
3679.84	0.746789
3662.48	0.720726
3645.12	0.694508
3627.76	0.654715
3610.4	0.647163
3593.04	0.674365
3575.68	0.651218
3558.32	0.661188
3540.96	0.652374
3523.6	0.634804
3506.24	0.655074
3488.88	0.682915
3471.52	0.698596
3454.16	0.698501
3436.8	0.693232
3419.44	0.682714
3402.08	0.69585
3384.72	0.675097
3367.36	0.659965
3350	0.636965
3332.64	0.663977
3315.28	0.559745
3297.92	0.452438
3280.56	0.476722
3263.2	0.545695
3245.84	0.628804
3228.48	0.661663
3211.12	0.69965
3193.76	0.711009
3176.4	0.725761
3159.04	0.702178
3141.68	0.694329
3124.32	0.709347
3106.96	0.716397
3089.6	0.716135
3072.24	0.728741
3054.88	0.732777
3037.53	0.737679
3020.17	0.734036
3002.81	0.739167
2985.45	0.728869
2968.09	0.740764
2950.73	0.740854
2933.37	0.742141
2916.01	0.726196
2898.65	0.712938
2881.29	0.6876
2863.93	0.637391
2846.57	0.51366
2829.21	0.425041
2811.85	0.401545
2794.49	0.368487
2777.13	0.377335
2759.77	0.412632
2742.41	0.422695
2725.05	0.397857
2707.69	0.379563
2690.33	0.310239
2672.97	0.342689
2655.61	0.372336
2638.25	0.308586
2620.89	0.33383
2603.53	0.356366
2586.17	0.371174
2568.81	0.340514
2551.45	0.246191
2534.09	0.263802
2516.73	0.389051
2499.37	0.440988
2482.01	0.445487
2464.65	0.45392
2447.29	0.454218
2429.93	0.461286
2412.57	0.440893
2395.21	0.376099
2377.85	0.37838
2360.49	0.364831
2343.13	0.292276
2325.77	0.233452
2308.41	0.373338
2291.05	0.389616
2273.69	0.43875
2256.33	0.425659
2238.97	0.456702
2221.61	0.428196
2204.25	0.453152
2186.89	0.445242
2169.53	0.460156
2152.18	0.399615
2134.82	0.399392
2117.46	0.437076
2100.1	0.437023
2082.74	0.379638
2065.38	0.362826
2048.02	0.283161
2030.66	0.131933
2013.3	0.0530248
1995.94	0.0291455
1978.58	0.0386546
1961.22	0.0381962
1943.86	0.0377804
1926.5	0.0394968
1909.14	0.034561
1891.78	0.0336762
1874.42	0.0388145
1857.06	0.0460742
1839.7	0.0438142
1822.34	0.054304
1804.98	0.0714033
1787.62	0.094579
1770.26	0.122563
1752.9	0.134545
1735.54	0.125697
1718.18	0.10492
1700.82	0.086701
1683.46	0.0830018
1666.1	0.153201
1648.74	0.220297
1631.38	0.275614
1614.02	0.261404
1596.66	0.298853
1579.3	0.306007
1561.94	0.236245
1544.58	0.289611
1527.22	0.237418
1509.86	0.280784
1492.5	0.245967
1475.14	0.231842
1457.78	0.212899
1440.42	0.223346
1423.06	0.242556
1405.7	0.285208
1388.34	0.334918
1370.98	0.359106
1353.62	0.336858
1336.26	0.335557
1318.9	0.350492
1301.54	0.321144
1284.19	0.192164
1266.83	0.20211
1249.47	0.141229
1232.11	0.253014
1214.75	0.153446
1197.39	0.130974
1180.03	0.0898031
1162.67	0.0796758
1145.31	0.0470976
1127.95	0.0566067
1110.59	0.0398059
1093.23	0.0421725
1075.87	0.0598155
1058.51	0.0683438
1041.15	0.0629496
1023.79	0.0397739
1006.43	0.0315015
989.068	0.0427695
971.709	0.048686
954.349	0.0441767
936.989	0.046959
919.629	0.0547411
902.269	0.0687809
884.91	0.0701987
867.55	0.0544
850.19	0.0899737
832.83	0.141005
815.47	0.116326
798.111	0.179809
780.751	0.228868
763.391	0.0808697
746.031	0.138148
728.671	0.0860187
711.312	0.0471509
693.952	0.0337934
676.592	0.0405192
659.232	0.0277277
641.872	0.039017
624.513	0.0387292
607.153	0.049604
