Infrared Spectrum: CARBONIC ACID, BIS(o-METHOXYPHENYL) ESTER
Formula: C15 H14 O5
CAS: 553-17-3
State: SOLID (NUJOL MULL)
Class: COBLENTZ III
Instrument: BECKMAN IR-7 (GRATING)
Instrument parameters: GRATING CHANGES AT 3000, 2200, 1150 CM^-^1
Sampling: TRANSMISSION
Resolution: 4
Origin: WESTERN REGIONAL RES. USDA
1/CM	TRANSMITTANCE
596.117	0.811
605.178	0.816
614.24	0.838
623.301	0.835
632.363	0.832
641.424	0.818
650.486	0.829
659.547	0.823
668.609	0.825
677.67	0.821
686.732	0.814
695.793	0.762
704.855	0.812
713.916	0.805
722.978	0.784
732.039	0.755
741.101	0.68
750.162	0.208
759.224	0.491
768.285	0.679
777.347	0.758
786.408	0.728
795.47	0.824
804.531	0.828
813.593	0.822
822.654	0.785
831.716	0.766
840.777	0.817
849.839	0.796
858.9	0.798
867.962	0.811
877.023	0.807
886.085	0.799
895.146	0.761
904.208	0.795
913.269	0.792
922.331	0.786
931.392	0.765
940.454	0.721
949.515	0.768
958.577	0.764
967.638	0.753
976.7	0.738
985.761	0.748
994.823	0.729
1003.88	0.6069
1012.95	0.636
1022.01	0.3111
1031.07	0.575
1040.13	0.629
1049.19	0.663
1058.25	0.73
1067.31	0.721
1076.38	0.713
1085.44	0.698
1094.5	0.65
1103.56	0.162
1112.62	0.397
1121.68	0.628
1130.75	0.655
1139.81	0.615
1148.87	0.302
1157.93	0.155
1166.99	0.192
1176.05	0.508
1185.11	0.632
1194.18	0.548
1203.24	0.524
1212.3	0.59
1221.36	0.492
1230.42	0.4059
1239.48	0.078
1248.54	0.114
1257.61	0.11
1266.67	0.169
1275.73	0.418
1284.79	0.281
1293.85	0.416
1302.91	0.584
1311.98	0.346
1321.04	0.511
1330.1	0.676
1339.16	0.716
1348.22	0.721
1357.28	0.721
1366.34	0.696
1375.41	0.667
1384.47	0.613
1393.53	0.698
1402.59	0.716
1411.65	0.713
1420.71	0.704
1429.77	0.691
1438.84	0.577
1447.9	0.453
1456.96	0.4109
1466.02	0.313
1475.08	0.509
1484.14	0.631
1493.21	0.597
1502.27	0.139
1511.33	0.44
1520.39	0.623
1529.45	0.65
1538.51	0.707
1547.57	0.731
1556.64	0.74
1565.7	0.743
1574.76	0.741
1583.82	0.723
1592.88	0.626
1601.94	0.682
1611	0.572
1620.07	0.4891
1629.13	0.736
1638.19	0.75
1647.25	0.748
1656.31	0.752
1665.37	0.747
1674.44	0.749
1683.5	0.744
1692.56	0.743
1701.62	0.734
1710.68	0.742
1719.74	0.74
1728.8	0.732
1737.87	0.705
1746.93	0.696
1755.99	0.702
1765.05	0.678
1774.11	0.5979
1783.17	0.13
1792.23	0.336
1801.3	0.583
1810.36	0.688
1819.42	0.723
1828.48	0.73
1837.54	0.737
1846.6	0.752
1855.66	0.748
1864.73	0.748
1873.79	0.751
1882.85	0.753
1891.91	0.756
1900.97	0.75
1910.03	0.741
1919.1	0.751
1928.16	0.762
1937.22	0.762
1946.28	0.75
1955.34	0.766
1964.4	0.77
1973.46	0.77
1982.53	0.772
1991.59	0.771
2000.65	0.768
2009.71	0.7661
2018.77	0.7655
2027.83	0.765
2036.89	0.766
2045.96	0.766
2055.02	0.7679
2064.08	0.768
2073.14	0.769
2082.2	0.77
2091.26	0.77
2100.33	0.771
2109.39	0.771
2118.45	0.773
2127.51	0.7748
2136.57	0.7765
2145.63	0.778
2154.69	0.7797
2163.76	0.7813
2172.82	0.783
2181.88	0.785
2190.94	0.787
2200	0.7887
2209.06	0.7904
2218.12	0.792
2227.19	0.793
2236.25	0.7942
2245.31	0.7942
2254.37	0.7921
2263.43	0.77
2272.49	0.7772
2281.56	0.7928
2290.62	0.7969
2299.68	0.801
2308.74	0.8021
2317.8	0.8047
2326.86	0.8063
2335.92	0.806
2344.99	0.805
2354.05	0.807
2363.11	0.8088
2372.17	0.8114
2381.23	0.813
2390.29	0.814
2399.35	0.8152
2408.42	0.8169
2417.48	0.8195
2426.54	0.822
2435.6	0.8213
2444.66	0.821
2453.72	0.8228
2462.79	0.825
2471.85	0.827
2480.91	0.826
2489.97	0.825
2499.03	0.825
2508.09	0.827
2517.15	0.8292
2526.22	0.83
2535.28	0.8314
2544.34	0.831
2553.4	0.83
2562.46	0.8287
2571.52	0.827
2580.58	0.8235
2589.65	0.8241
2598.71	0.8294
2607.77	0.8307
2616.83	0.828
2625.89	0.827
2634.95	0.8284
2644.02	0.8336
2653.08	0.8364
2662.14	0.84
2671.2	0.84
2680.26	0.84
2689.32	0.841
2698.38	0.8455
2707.45	0.848
2716.51	0.848
2725.57	0.848
2734.63	0.8471
2743.69	0.846
2752.75	0.846
2761.81	0.8468
2770.88	0.848
2779.94	0.847
2789	0.8434
2798.06	0.8408
2807.12	0.8373
2816.18	0.8321
2825.25	0.8247
2834.31	0.8069
2843.37	0.716
2852.43	0.4357
2861.49	0.4035
2870.55	0.4332
2879.61	0.46
2888.68	0.4984
2897.74	0.4797
2906.8	0.3564
2915.86	0.2296
2924.92	0.1938
2933.98	0.2385
2943.04	0.272
2952.11	0.255
2961.17	0.2766
2970.23	0.3221
2979.29	0.4377
2988.35	0.5563
2997.41	0.6439
3006.47	0.702
3015.54	0.7416
3024.6	0.7312
3033.66	0.7484
3042.72	0.7703
3051.78	0.7862
3060.84	0.7789
3069.91	0.7655
3078.97	0.762
3088.03	0.7691
3097.09	0.7918
3106.15	0.8123
3115.21	0.8187
3124.27	0.8177
3133.34	0.816
3142.4	0.82
3151.46	0.8283
3160.52	0.8318
3169.58	0.832
3178.64	0.833
3187.7	0.834
3196.77	0.8352
3205.83	0.836
3214.89	0.837
3223.95	0.839
3233.01	0.8407
3242.07	0.842
3251.14	0.8429
3260.2	0.8435
3269.26	0.845
3278.32	0.844
3287.38	0.8427
3296.44	0.841
3305.5	0.8396
3314.57	0.8412
3323.63	0.843
3332.69	0.844
3341.75	0.843
3350.81	0.843
3359.87	0.841
3368.93	0.8391
3378	0.839
3387.06	0.841
3396.12	0.841
3405.18	0.841
3414.24	0.841
3423.3	0.8395
3432.37	0.839
3441.43	0.839
3450.49	0.839
3459.55	0.839
3468.61	0.84
3477.67	0.841
3486.73	0.841
3495.8	0.84
3504.86	0.839
3513.92	0.8383
3522.98	0.837
3532.04	0.8351
3541.1	0.83
3550.16	0.8301
3559.23	0.832
3568.29	0.8353
3577.35	0.837
3586.41	0.8386
3595.47	0.839
3604.53	0.839
3613.6	0.835
3622.66	0.836
3631.72	0.8383
3640.78	0.8395
3649.84	0.8331
3658.9	0.831
3667.96	0.8299
3677.03	0.8273
3686.09	0.8257
3695.15	0.825
3704.21	0.826
3713.27	0.8258
3722.33	0.8242
3731.39	0.8196
3740.46	0.819
3749.52	0.8206
3758.58	0.8235
3767.64	0.825
3776.7	0.823
3785.76	0.823
3794.83	0.8196
3803.89	0.814
3812.95	0.816
3822.01	0.818
3831.07	0.817
3840.13	0.8143
3849.19	0.812
3858.26	0.812
3867.32	0.814
3876.38	0.817
3885.44	0.816
3894.5	0.814
3903.56	0.813
3912.62	0.8113
3921.69	0.811
3930.75	0.811
3939.81	0.813
3948.87	0.8119
3957.93	0.811
