Infrared Spectrum: OCTAMETHYLCYCLOTETRASILOXANE
Formula: C8 H24 O4 Si4
CAS: 556-67-2
State: SOLUTION (6% IN CCl4 FOR 3800-1300, 2% IN CS2 FOR 1300-640, AND 6% IN CCl4 FOR 640-250 CM^-^1)
Boiling point: 175 C
Class: COBLENTZ III
Instrument: PERKIN-ELMER 521 (GRATING)
Instrument parameters: FILTERS AT 3150, 2500, 2000, 1150, 700, 410. GRATING CHANGES: 2000, 630 CM^-^1
Sampling: TRANSMISSION
Path length: 0.011 CM, 0.020 CM, AND 0.011 CM
Resolution: 2
Origin: DOW CORNING CORP.
1/CM	TRANSMITTANCE
242.196	0.973
251.672	0.964
261.148	0.933
270.624	0.914
280.1	0.886
289.576	0.872
299.052	0.872
308.528	0.846
318.004	0.797
327.48	0.63
336.956	0.299
346.432	0.226
355.909	0.109
365.385	0.132
374.861	0.195
384.337	0.157
393.813	0.553
403.289	0.759
412.765	0.818
422.241	0.843
431.717	0.853
441.193	0.864
450.669	0.865
460.145	0.859
469.621	0.838
479.097	0.832
488.573	0.853
498.049	0.862
507.525	0.86
517.001	0.844
526.477	0.8
535.953	0.681
545.429	0.46
554.905	0.445
564.382	0.667
573.858	0.786
583.334	0.824
592.81	0.842
602.286	0.857
611.762	0.871
621.238	0.877
630.714	0.878
640.19	0.878
649.666	0.873
659.142	0.857
668.618	0.86
678.094	0.814
687.57	0.674
697.046	0.746
706.522	0.866
715.998	0.882
725.474	0.885
734.95	0.886
744.426	0.883
753.902	0.877
763.378	0.845
772.855	0.794
782.331	0.644
791.807	0.463
801.283	0.149
810.759	0.084
820.235	0.2891
829.711	0.648
839.187	0.747
848.663	0.771
858.139	0.767
867.615	0.809
877.091	0.828
886.567	0.872
896.043	0.907
905.519	0.918
914.995	0.936
924.471	0.936
933.947	0.935
943.423	0.931
952.899	0.924
962.375	0.913
971.851	0.905
981.327	0.878
990.804	0.839
1000.28	0.807
1009.76	0.768
1019.23	0.691
1028.71	0.605
1038.18	0.428
1047.66	0.219
1057.14	0.065
1066.61	0.038
1076.09	0.04
1085.56	0.061
1095.04	0.232
1104.52	0.431
1113.99	0.582
1123.47	0.674
1132.94	0.737
1142.42	0.765
1151.9	0.807
1161.37	0.849
1170.85	0.883
1180.32	0.898
1189.8	0.906
1199.28	0.907
1208.75	0.906
1218.23	0.9
1227.7	0.873
1237.18	0.817
1246.66	0.668
1256.13	0.051
1265.61	0.6261
1275.08	0.786
1284.56	0.807
1294.04	0.814
1303.51	0.815
1312.99	0.815
1322.47	0.811
1331.94	0.801
1341.42	0.795
1350.89	0.804
1360.37	0.81
1369.85	0.802
1379.32	0.788
1388.8	0.761
1398.27	0.656
1407.75	0.596
1417.23	0.665
1426.7	0.752
1436.18	0.757
1445.65	0.741
1455.13	0.789
1464.61	0.814
1474.08	0.817
1483.56	0.821
1493.03	0.83
1502.51	0.834
1511.99	0.829
1521.46	0.822
1530.94	0.815
1540.41	0.8
1549.89	0.783
1559.37	0.785
1568.84	0.806
1578.32	0.818
1587.79	0.831
1597.27	0.83
1606.75	0.816
1616.22	0.817
1625.7	0.82
1635.17	0.823
1644.65	0.834
1654.13	0.842
1663.6	0.842
1673.08	0.841
1682.55	0.832
1692.03	0.827
1701.51	0.823
1710.98	0.824
1720.46	0.83
1729.94	0.838
1739.41	0.844
1748.89	0.844
1758.36	0.844
1767.84	0.843
1777.32	0.848
1786.79	0.852
1796.27	0.852
1805.74	0.853
1815.22	0.853
1824.7	0.855
1834.17	0.858
1843.65	0.856
1853.12	0.856
1862.6	0.856
1872.08	0.857
1881.55	0.857
1891.03	0.86
1900.5	0.855
1909.98	0.851
1919.46	0.845
1928.93	0.851
1938.41	0.841
1947.88	0.834
1957.36	0.841
1966.84	0.851
1976.31	0.859
1985.79	0.865
1995.26	0.872
2004.74	0.877
2014.22	0.879
2023.69	0.878
2033.17	0.8754
2042.64	0.872
2052.12	0.872
2061.6	0.872
2071.07	0.872
2080.55	0.871
2090.02	0.8779
2099.5	0.88
2108.98	0.882
2118.45	0.882
2127.93	0.879
2137.4	0.8802
2146.88	0.883
2156.36	0.882
2165.83	0.883
2175.31	0.8852
2184.79	0.889
2194.26	0.889
2203.74	0.889
2213.21	0.891
2222.69	0.891
2232.17	0.891
2241.64	0.891
2251.12	0.891
2260.59	0.891
2270.07	0.892
2279.55	0.892
2289.02	0.8927
2298.5	0.894
2307.97	0.8978
2317.45	0.9038
2326.93	0.907
2336.4	0.907
2345.88	0.908
2355.35	0.911
2364.83	0.904
2374.31	0.8986
2383.78	0.891
2393.26	0.89
2402.73	0.892
2412.21	0.891
2421.69	0.891
2431.16	0.891
2440.64	0.891
2450.11	0.891
2459.59	0.891
2469.07	0.89
2478.54	0.89
2488.02	0.8879
2497.49	0.885
2506.97	0.8883
2516.45	0.89
2525.92	0.8917
2535.4	0.891
2544.87	0.8902
2554.35	0.89
2563.83	0.889
2573.3	0.889
2582.78	0.887
2592.26	0.887
2601.73	0.887
2611.21	0.886
2620.68	0.885
2630.16	0.884
2639.64	0.8838
2649.11	0.884
2658.59	0.8787
2668.06	0.8783
2677.54	0.883
2687.02	0.8808
2696.49	0.883
2705.97	0.88
2715.44	0.88
2724.92	0.883
2734.4	0.882
2743.87	0.88
2753.35	0.877
2762.82	0.8738
2772.3	0.8702
2781.78	0.8624
2791.25	0.851
2800.73	0.85
2810.2	0.85
2819.68	0.848
2829.16	0.843
2838.63	0.841
2848.11	0.841
2857.58	0.844
2867.06	0.8288
2876.54	0.8192
2886.01	0.8
2895.49	0.7719
2904.96	0.709
2914.44	0.7584
2923.92	0.7778
2933.39	0.7653
2942.87	0.6681
2952.34	0.5551
2961.82	0.3063
2971.3	0.2891
2980.77	0.5379
2990.25	0.731
2999.73	0.7854
3009.2	0.8078
3018.68	0.8108
3028.15	0.81
3037.63	0.8031
3047.11	0.7961
3056.58	0.803
3066.06	0.816
3075.53	0.823
3085.01	0.825
3094.49	0.8267
3103.96	0.8228
3113.44	0.8178
3122.91	0.815
3132.39	0.8107
3141.87	0.8087
3151.34	0.8094
3160.82	0.8134
3170.29	0.8214
3179.77	0.831
3189.25	0.8421
3198.72	0.8486
3208.2	0.852
3217.67	0.8556
3227.15	0.8587
3236.63	0.8647
3246.1	0.8685
3255.58	0.871
3265.05	0.872
3274.53	0.8748
3284.01	0.876
3293.48	0.878
3302.96	0.878
3312.43	0.879
3321.91	0.878
3331.39	0.878
3340.86	0.8792
3350.34	0.882
3359.81	0.883
3369.29	0.8833
3378.77	0.884
3388.24	0.884
3397.72	0.885
3407.19	0.885
3416.67	0.886
3426.15	0.886
3435.62	0.886
3445.1	0.886
3454.58	0.887
3464.05	0.887
3473.53	0.887
3483	0.887
3492.48	0.887
3501.96	0.887
3511.43	0.887
3520.91	0.887
3530.38	0.887
3539.86	0.887
3549.34	0.887
3558.81	0.887
3568.29	0.887
3577.76	0.8868
3587.24	0.885
3596.72	0.883
3606.19	0.882
3615.67	0.8777
3625.14	0.877
3634.62	0.879
3644.1	0.877
3653.57	0.874
3663.05	0.8741
3672.52	0.876
3682	0.876
3691.48	0.8713
3700.95	0.8663
3710.43	0.8667
3719.9	0.8685
3729.38	0.8698
3738.86	0.871
3748.33	0.873
3757.81	0.8721
3767.28	0.87
3776.76	0.869
3786.24	0.87
