Infrared Spectrum: 2-PROPANONE,p-CHLOROPHENYL-
Formula: C9 H9 Cl O
CAS: 5586-88-9
State: SOLUTION 7% (CS2 FOR 7.5-15 microns, AND CCl4 FOR 2.5-7.5 microns)
Class: COBLENTZ III
Instrument: PERKIN-ELMER 21 (GRATING)
Instrument parameters: FILTER AT ABOUT 10 MICRONS
Path length: 0.01 CM
Resolution: 2
Origin: ABBOTT LABORATORIES
1/CM	TRANSMITTANCE
667	0.753
676	0.8557
685	0.8905
694	0.8804
703	0.8206
712	0.727
721	0.8876
730	0.8952
739	0.876
748	0.8675
757	0.81
766	0.6335
775	0.4898
784	0.6464
793	0.7555
802	0.7226
811	0.6402
820	0.4698
829	0.4111
838	0.6084
847	0.7047
856	0.8251
865	0.8475
874	0.8462
883	0.8539
892	0.8654
901	0.8707
910	0.8757
919	0.8626
928	0.847
937	0.8476
946	0.8488
955	0.838
964	0.8112
973	0.7802
982	0.812
991	0.7904
1000	0.7641
1009	0.436
1018	0.7799
1027	0.8428
1036	0.8541
1045	0.8481
1054	0.8291
1063	0.7976
1072	0.6783
1081	0.2918
1090	0.3944
1099	0.618
1108	0.7729
1117	0.7533
1126	0.6382
1135	0.5365
1144	0.3941
1153	0.5558
1162	0.7064
1171	0.6952
1180	0.6732
1189	0.6943
1198	0.608
1207	0.4709
1216	0.4205
1225	0.6519
1234	0.7678
1243	0.774
1252	0.7517
1261	0.7218
1270	0.6761
1279	0.705
1288	0.7196
1297	0.67
1306	0.6022
1315	0.5942
1324	0.6699
1333	0.6842
1342	0.4507
1351	0.3428
1360	0.7041
1369	0.7619
1378	0.7543
1387	0.6707
1396	0.5254
1405	0.511
1414	0.5381
1423	0.6018
1432	0.6943
1441	0.7737
1450	0.797
1459	0.7863
1468	0.7223
1477	0.2808
1486	0.3079
1495	0.7489
1504	0.844
1513	0.8932
1522	0.9079
1531	0.9252
1540	0.9154
1549	0.8931
1558	0.8714
1567	0.859
1576	0.842
1585	0.7717
1594	0.7862
1603	0.8364
1612	0.8392
1621	0.8339
1630	0.8197
1639	0.791
1648	0.7815
1657	0.7795
1666	0.7641
1675	0.7419
1684	0.6949
1693	0.4174
1702	0.1176
1711	0.0744
1720	0.2292
1729	0.4945
1738	0.6821
1747	0.7672
1756	0.8062
1765	0.8306
1774	0.8602
1783	0.8892
1792	0.9033
1801	0.9106
1810	0.9153
1819	0.9193
1828	0.9291
1837	0.9283
1846	0.9228
1855	0.9078
1864	0.8804
1873	0.8581
1882	0.8762
1891	0.9214
1900	0.9329
1909	0.9365
1918	0.9333
1927	0.9352
1936	0.9387
1945	0.9388
1954	0.9382
1963	0.9379
1972	0.9377
1981	0.9379
1990	0.938
1999	0.9384
2008	0.9389
2017	0.9392
2026	0.9395
2035	0.9398
2044	0.9401
2053	0.9399
2062	0.9397
2071	0.9395
2080	0.9388
2089	0.9381
2098	0.9374
2107	0.9367
2116	0.9359
2125	0.9355
2134	0.9354
2143	0.9352
2152	0.9356
2161	0.9365
2170	0.9373
2179	0.9381
2188	0.9389
2197	0.9388
2206	0.9388
2215	0.9382
2224	0.9373
2233	0.9361
2242	0.9344
2251	0.9311
2260	0.9282
2269	0.9257
2278	0.9262
2287	0.9278
2296	0.9298
2305	0.9313
2314	0.9326
2323	0.9344
2332	0.9359
2341	0.9363
2350	0.9369
2359	0.938
2368	0.9391
2377	0.9398
2386	0.9402
2395	0.9406
2404	0.941
2413	0.9412
2422	0.9414
2431	0.9413
2440	0.9409
2449	0.9405
2458	0.9399
2467	0.9389
2476	0.9377
2485	0.9363
2494	0.9349
2503	0.9337
2512	0.9342
2521	0.9348
2530	0.9349
2539	0.9351
2548	0.9352
2557	0.9354
2566	0.9354
2575	0.9353
2584	0.935
2593	0.9347
2602	0.9342
2611	0.9337
2620	0.9331
2629	0.9323
2638	0.9316
2647	0.9309
2656	0.9302
2665	0.9296
2674	0.9289
2683	0.9283
2692	0.9278
2701	0.9276
2710	0.928
2719	0.9285
2728	0.9285
2737	0.9276
2746	0.9245
2755	0.9209
2764	0.9151
2773	0.9088
2782	0.9016
2791	0.8945
2800	0.8869
2809	0.8792
2818	0.8698
2827	0.8584
2836	0.8437
2845	0.8309
2854	0.8238
2863	0.8229
2872	0.8227
2881	0.8229
2890	0.823
2899	0.8232
2908	0.8233
2917	0.8232
2926	0.8228
2935	0.8216
2944	0.8186
2953	0.8143
2962	0.8111
2971	0.8094
2980	0.8099
2989	0.8109
2998	0.8132
3007	0.8255
3016	0.8456
3025	0.8587
3034	0.8683
3043	0.8747
3052	0.881
3061	0.8875
3070	0.8947
3079	0.9045
3088	0.9016
3097	0.9023
3106	0.902
3115	0.9014
3124	0.8995
3133	0.8973
3142	0.8949
3151	0.8922
3160	0.8896
3169	0.887
3178	0.8844
3187	0.8819
3196	0.879
3205	0.8763
3214	0.874
3223	0.8724
3232	0.871
3241	0.8708
3250	0.8708
3259	0.8707
3268	0.8708
3277	0.8708
3286	0.8708
3295	0.8701
3304	0.8694
3313	0.8678
3322	0.865
3331	0.8594
3340	0.8556
3349	0.8539
3358	0.8536
3367	0.8542
3376	0.856
3385	0.8615
3394	0.8682
3403	0.8743
3412	0.8791
3421	0.883
3430	0.8867
3439	0.8901
3448	0.8932
3457	0.8958
3466	0.8984
3475	0.9
3484	0.9012
3493	0.9023
3502	0.9031
3511	0.904
3520	0.9047
3529	0.9049
3538	0.9049
3547	0.9049
3556	0.905
3565	0.905
3574	0.9048
3583	0.9047
3592	0.9046
3601	0.9045
3610	0.9044
3619	0.9043
3628	0.9042
3637	0.9041
3646	0.904
3655	0.9039
3664	0.9038
3673	0.9037
3682	0.9036
3691	0.9035
3700	0.9034
3709	0.9033
3718	0.9032
3727	0.903
3736	0.9028
3745	0.9026
3754	0.9023
3763	0.902
3772	0.9018
3781	0.9016
3790	0.9013
3799	0.9011
3808	0.9009
3817	0.9006
3826	0.9003
3835	0.9001
3844	0.8999
3853	0.8996
3862	0.8994
3871	0.8992
3880	0.8991
3889	0.8989
3898	0.8988
3907	0.8987
3916	0.8987
3925	0.8987
3934	0.8987
3943	0.8987
3952	0.8987
3961	0.8986
3970	0.8986
3979	0.8986
3988	0.8986
3997	0.8986
