Infrared Spectrum: 2-QuinolineCarboxylic acid, 4-hydroxy-8-methoxy-, ethyl ester
Formula: C13 H13 N O4
CAS: 55895-59-5
State: SOLID (SPLIT MULL), HALOCARBON FOR 3800-1330 CM^-^1, NUJOL FOR 1330-400 CM^-^1
Class: COBLENTZ II
Instrument: PERKIN-ELMER 180 (GRATING)
Instrument parameters: GRATINGS: 2000, 1000, 500, 250 CM^-^1; FILTER CHANGE: 2970, 2000, 1485, 1000, 743, 500, 372, 250, 186 CM^-^1.
Sampling: TRANSMISSION
Resolution: 2
Origin: K. K. DEB-NCI FREDERICK CANCER RESEARCH CENTER
1/CM	TRANSMITTANCE
397	0.7112
406	0.7725
415	0.8198
424	0.834
433	0.8361
442	0.7992
451	0.7657
460	0.7818
469	0.7596
478	0.7019
487	0.6226
496	0.5336
505	0.4925
514	0.6771
523	0.5275
532	0.5031
541	0.6056
550	0.6685
559	0.7149
568	0.7007
577	0.727
586	0.6626
595	0.8038
604	0.818
613	0.8213
622	0.7969
631	0.6214
640	0.298
649	0.3169
658	0.5403
667	0.7636
676	0.9198
685	0.9249
694	0.7329
703	0.8482
712	0.7222
721	0.8353
730	0.8726
739	0.8691
748	0.6274
757	0.5908
766	0.7425
775	0.4265
784	0.3964
793	0.8479
802	0.9096
811	0.5333
820	0.76
829	0.9069
838	0.8789
847	0.6122
856	0.3939
865	0.4117
874	0.8388
883	0.8544
892	0.8539
901	0.8066
910	0.8712
919	0.8759
928	0.8705
937	0.8622
946	0.8545
955	0.8409
964	0.8124
973	0.7897
982	0.7499
991	0.5704
1000	0.6337
1009	0.2421
1018	0.283
1027	0.6386
1036	0.7285
1045	0.7037
1054	0.4173
1063	0.4259
1072	0.4892
1081	0.7137
1090	0.7023
1099	0.5321
1108	0.5722
1117	0.4919
1126	0.6459
1135	0.5937
1144	0.2761
1153	0.4267
1162	0.6397
1171	0.5655
1180	0.6034
1189	0.5284
1198	0.7284
1207	0.7071
1216	0.6159
1225	0.1913
1234	0.203
1243	0.5022
1252	0.2117
1261	0.021
1270	0.0252
1279	0.2004
1288	0.373
1297	0.2142
1306	0.2997
1315	0.5787
1324	0.729
1333	0.6137
1342	0.4271
1351	0.7428
1360	0.7353
1369	0.4897
1378	0.5869
1387	0.7186
1396	0.7463
1405	0.7724
1414	0.7773
1423	0.7622
1432	0.6367
1441	0.6088
1450	0.5747
1459	0.6757
1468	0.6775
1477	0.4511
1486	0.7963
1495	0.8065
1504	0.7904
1513	0.7532
1522	0.6372
1531	0.3304
1540	0.4325
1549	0.6762
1558	0.6059
1567	0.5107
1576	0.2627
1585	0.0956
1594	0.2762
1603	0.3102
1612	0.1117
1621	0.3454
1630	0.5825
1639	0.7408
1648	0.7972
1657	0.8296
1666	0.8503
1675	0.8474
1684	0.8518
1693	0.8496
1702	0.8173
1711	0.6817
1720	0.2802
1729	0.5878
1738	0.8014
1747	0.8473
1756	0.8737
1765	0.8846
1774	0.8828
1783	0.8808
1792	0.8776
1801	0.8744
1810	0.8733
1819	0.8743
1828	0.8807
1837	0.8859
1846	0.886
1855	0.8841
1864	0.8806
1873	0.8787
1882	0.8795
1891	0.8817
1900	0.8833
1909	0.8836
1918	0.8827
1927	0.8813
1936	0.88
1945	0.8816
1954	0.8759
1963	0.8741
1972	0.8792
1981	0.8817
1990	0.8819
1999	0.8853
2008	0.8893
2017	0.8878
2026	0.8861
2035	0.8838
2044	0.8815
2053	0.8781
2062	0.8741
2071	0.8695
2080	0.8649
2089	0.8607
2098	0.8565
2107	0.8522
2116	0.8479
2125	0.8465
2134	0.8481
2143	0.8522
2152	0.8528
2161	0.8503
2170	0.8468
2179	0.8434
2188	0.841
2197	0.8389
2206	0.8372
2215	0.8355
2224	0.8339
2233	0.8321
2242	0.8304
2251	0.8286
2260	0.8273
2269	0.8261
2278	0.8248
2287	0.8227
2296	0.8207
2305	0.8189
2314	0.8186
2323	0.8191
2332	0.8217
2341	0.8245
2350	0.8264
2359	0.8271
2368	0.8278
2377	0.8279
2386	0.828
2395	0.8285
2404	0.8292
2413	0.8296
2422	0.8302
2431	0.8305
2440	0.8309
2449	0.8312
2458	0.8315
2467	0.8318
2476	0.8314
2485	0.8314
2494	0.8319
2503	0.8323
2512	0.8315
2521	0.83
2530	0.8287
2539	0.8277
2548	0.8268
2557	0.826
2566	0.8251
2575	0.8241
2584	0.823
2593	0.8219
2602	0.8238
2611	0.8222
2620	0.8195
2629	0.8164
2638	0.8161
2647	0.8194
2656	0.82
2665	0.819
2674	0.8179
2683	0.8162
2692	0.8147
2701	0.813
2710	0.8112
2719	0.8094
2728	0.8078
2737	0.8068
2746	0.8065
2755	0.8049
2764	0.8046
2773	0.8042
2782	0.8034
2791	0.8012
2800	0.7968
2809	0.7917
2818	0.7855
2827	0.7752
2836	0.7586
2845	0.7446
2854	0.7515
2863	0.7549
2872	0.7527
2881	0.7495
2890	0.7434
2899	0.7357
2908	0.7265
2917	0.7162
2926	0.7043
2935	0.6871
2944	0.6661
2953	0.68
2962	0.7129
2971	0.7051
2980	0.6811
2989	0.68
2998	0.6897
3007	0.7227
3016	0.7291
3025	0.7211
3034	0.7215
3043	0.7291
3052	0.7283
3061	0.7082
3070	0.6904
3079	0.7056
3088	0.7308
3097	0.7312
3106	0.7308
3115	0.7338
3124	0.7321
3133	0.7268
3142	0.724
3151	0.7237
3160	0.725
3169	0.7267
3178	0.7275
3187	0.7266
3196	0.7229
3205	0.7175
3214	0.7117
3223	0.7075
3232	0.704
3241	0.7016
3250	0.6998
3259	0.698
3268	0.6953
3277	0.692
3286	0.6885
3295	0.684
3304	0.6795
3313	0.6739
3322	0.6666
3331	0.6569
3340	0.6401
3349	0.6153
3358	0.5847
3367	0.4598
3376	0.2784
3385	0.267
3394	0.6393
3403	0.6311
3412	0.6109
3421	0.5907
3430	0.5772
3439	0.5817
3448	0.5932
3457	0.6056
3466	0.6034
3475	0.5848
3484	0.5681
3493	0.5197
3502	0.4632
3511	0.4067
3520	0.3711
3529	0.3725
3538	0.4339
3547	0.4984
3556	0.5352
3565	0.5732
3574	0.5982
3583	0.6167
3592	0.6343
3601	0.6519
3610	0.668
3619	0.6997
3628	0.7197
3637	0.7316
3646	0.735
3655	0.7354
3664	0.7343
3673	0.7329
3682	0.7314
3691	0.7299
3700	0.7285
3709	0.727
3718	0.7254
3727	0.7233
3736	0.7212
3745	0.7191
3754	0.7172
3763	0.7153
3772	0.7136
3781	0.7119
3790	0.7105
