Infrared Spectrum: Carbon tetrachloride
Formula: C Cl4
CAS: 56-23-5
State: LIQUID (NEAT)
Class: COBLENTZ III
Instrument: DOW KBr FOREPRISM-GRATING
Instrument parameters: BLAZED AT 3.5, 12.0, 20.0 MICRON AND CHANGED AT 5.0, 7.5, 14.9 MICRON
Sampling: TRANSMISSION
Path length: 0.010 CM
Resolution: 2
Origin: DOW CHEMICAL COMPANY
1/CM	TRANSMITTANCE
3792	0.8927
3783	0.8928
3774	0.893
3765	0.8931
3756	0.8932
3747	0.8932
3738	0.893
3729	0.8928
3720	0.8925
3711	0.8921
3702	0.8917
3693	0.8911
3684	0.8907
3675	0.8902
3666	0.8895
3657	0.8887
3648	0.8878
3639	0.887
3630	0.8862
3621	0.8862
3612	0.8863
3603	0.8863
3594	0.8864
3585	0.8864
3576	0.8865
3567	0.8861
3558	0.8855
3549	0.8848
3540	0.8842
3531	0.8836
3522	0.883
3513	0.8824
3504	0.8815
3495	0.8807
3486	0.8799
3477	0.879
3468	0.8782
3459	0.8775
3450	0.8774
3441	0.8773
3432	0.8773
3423	0.8771
3414	0.8771
3405	0.877
3396	0.877
3387	0.877
3378	0.877
3369	0.877
3360	0.877
3351	0.877
3342	0.8773
3333	0.8782
3324	0.8791
3315	0.8799
3306	0.8808
3297	0.8816
3288	0.882
3279	0.8823
3270	0.8825
3261	0.8828
3252	0.8833
3243	0.8832
3234	0.883
3225	0.8827
3216	0.8825
3207	0.8821
3198	0.8818
3189	0.8821
3180	0.883
3171	0.8837
3162	0.8845
3153	0.8852
3144	0.8858
3135	0.886
3126	0.8861
3117	0.8863
3108	0.8865
3099	0.8867
3090	0.8864
3081	0.8858
3072	0.8851
3063	0.8836
3054	0.8821
3045	0.8809
3036	0.8798
3027	0.8786
3018	0.8775
3009	0.8775
3000	0.8774
2991	0.8771
2982	0.8764
2973	0.8756
2964	0.8749
2955	0.8748
2946	0.8748
2937	0.874
2928	0.8723
2919	0.867
2910	0.864
2901	0.8635
2892	0.8631
2883	0.8624
2874	0.8618
2865	0.8613
2856	0.8612
2847	0.8612
2838	0.8615
2829	0.8647
2820	0.8671
2811	0.8665
2802	0.8661
2793	0.866
2784	0.8659
2775	0.8658
2766	0.8658
2757	0.8657
2748	0.8654
2739	0.8651
2730	0.8648
2721	0.8644
2712	0.8641
2703	0.8641
2694	0.8642
2685	0.8642
2676	0.8643
2667	0.864
2658	0.8636
2649	0.863
2640	0.8625
2631	0.8615
2622	0.8605
2613	0.8595
2604	0.8585
2595	0.8575
2586	0.8575
2577	0.8573
2568	0.8571
2559	0.8568
2550	0.8568
2541	0.857
2532	0.8571
2523	0.8571
2514	0.8573
2505	0.8571
2496	0.8567
2487	0.8561
2478	0.8557
2469	0.8551
2460	0.8547
2451	0.8542
2442	0.854
2433	0.8539
2424	0.8538
2415	0.8537
2406	0.8535
2397	0.8532
2388	0.8532
2379	0.8534
2370	0.8547
2361	0.8588
2352	0.863
2343	0.8601
2334	0.8568
2325	0.8606
2316	0.8601
2307	0.8559
2298	0.8478
2289	0.8386
2280	0.8366
2271	0.838
2262	0.844
2253	0.8505
2244	0.852
2235	0.8515
2226	0.8509
2217	0.8506
2208	0.8505
2199	0.8503
2190	0.85
2181	0.8496
2172	0.8492
2163	0.8488
2154	0.8487
2145	0.8491
2136	0.8496
2127	0.85
2118	0.8502
2109	0.8503
2100	0.8503
2091	0.8504
2082	0.8504
2073	0.8505
2064	0.8505
2055	0.8501
2046	0.8491
2037	0.848
2028	0.8468
2019	0.8463
2010	0.8458
2001	0.8453
1992	0.8444
1983	0.8455
1974	0.8466
1965	0.8491
1956	0.8517
1947	0.8539
1938	0.856
1929	0.8578
1920	0.8587
1911	0.8594
1902	0.8596
1893	0.8597
1884	0.8598
1875	0.8599
1866	0.86
1857	0.8597
1848	0.8587
1839	0.8583
1830	0.858
1821	0.8583
1812	0.8597
1803	0.8611
1794	0.8623
1785	0.8639
1776	0.8661
1767	0.8681
1758	0.87
1749	0.8708
1740	0.8716
1731	0.8716
1722	0.8708
1713	0.87
1704	0.8693
1695	0.8686
1686	0.868
1677	0.8675
1668	0.8684
1659	0.865
1650	0.8613
1641	0.8563
1632	0.8518
1623	0.8413
1614	0.8237
1605	0.7962
1596	0.7506
1587	0.6417
1578	0.5919
1569	0.5653
1560	0.5038
1551	0.4339
1542	0.4889
1533	0.5721
1524	0.6349
1515	0.6921
1506	0.7389
1497	0.7795
1488	0.8071
1479	0.8248
1470	0.8361
1461	0.8416
1452	0.844
1443	0.8461
1434	0.8488
1425	0.8517
1416	0.8552
1407	0.8582
1398	0.8611
1389	0.8642
1380	0.8523
1371	0.8664
1362	0.8657
1353	0.8586
1344	0.849
1335	0.8457
1326	0.8428
1317	0.8404
1308	0.8385
1299	0.8371
1290	0.8344
1281	0.8244
1272	0.7861
1263	0.7068
1254	0.6334
1245	0.65
1236	0.7128
1227	0.7218
1218	0.6918
1209	0.6886
1200	0.7474
1191	0.7889
1182	0.8178
1173	0.8432
1164	0.864
1155	0.8609
1146	0.8612
1137	0.8603
1128	0.8585
1119	0.8458
1110	0.8257
1101	0.8282
1092	0.8327
1083	0.8227
1074	0.8101
1065	0.8075
1056	0.8191
1047	0.832
1038	0.8428
1029	0.8309
1020	0.7649
1011	0.6605
1002	0.6304
993	0.6734
984	0.6757
975	0.6542
966	0.7334
957	0.796
948	0.8285
939	0.8411
930	0.8427
921	0.8538
912	0.8496
903	0.8395
894	0.832
885	0.8233
876	0.8147
867	0.7819
858	0.7694
849	0.7387
840	0.6133
831	0.3584
822	0.1329
813	0.0001
804	0.0001
795	0.0001
786	0.0001
777	0.0002
768	0.0002
759	0.0002
750	0.0002
741	0.0002
732	0.0506
723	0.3771
714	0.5526
705	0.6908
696	0.7501
687	0.7906
678	0.8357
669	0.8586
660	0.8671
651	0.8737
642	0.8795
633	0.8832
624	0.801
615	0.8348
606	0.8596
597	0.8678
588	0.8694
579	0.8674
570	0.8594
561	0.8498
552	0.8475
543	0.8449
534	0.8277
525	0.8099
516	0.8235
507	0.8293
498	0.8304
489	0.8218
480	0.7547
471	0.73
462	0.7411
453	0.7421
444	0.7268
435	0.7284
426	0.7412
417	0.7485
408	0.749
399	0.7434
390	0.7371
381	0.7355
