Infrared Spectrum: Carbon tetrachloride
Formula: C Cl4
CAS: 56-23-5
State: gas
Melting point: -22.99 C
Boiling point: 76.54 C
Class: IUPAC A
Instrument: IFS66V (Bruker)
Instrument parameters: KBr Beam Splitter; MCT Detector; Multipass cell
Sampling: 1 L/min Flow
Resolution: 0.2410
Temperature: 23 C
Pressure: 101.3 Pa
Origin: NIST, Analytical Chemistry Division, 301-975-3108
cm-1	(micromol/mol)-1m-1 (base 10)
575.05	-1.66799e-06
583.608	9.0179e-07
592.165	5.8587e-07
600.723	-2.74156e-07
609.281	-5.33636e-07
617.838	-4.68059e-07
626.396	1.0576e-06
634.954	2.49709e-08
643.511	-5.25611e-08
652.069	3.70518e-07
660.626	3.29933e-07
669.184	-1.47257e-07
677.742	-4.14275e-07
686.299	-7.79635e-07
694.857	-1.43372e-07
703.415	-2.60557e-07
711.972	7.93044e-07
720.53	6.93524e-07
729.088	3.0194e-06
737.645	1.31156e-05
746.203	6.47592e-05
754.761	0.000234285
763.318	0.000449301
771.876	0.000555021
780.434	0.000781974
788.991	0.00126648
797.549	0.00488454
806.106	0.000319269
814.664	3.00031e-05
823.222	6.38743e-06
831.779	1.26625e-06
840.337	5.3261e-07
848.895	6.24258e-07
857.452	6.51149e-07
866.01	3.52859e-07
874.568	6.83214e-07
883.125	7.71085e-07
891.683	3.74381e-07
900.241	3.41654e-07
908.798	3.02757e-07
917.356	-8.25087e-08
925.914	-6.46464e-08
934.471	2.1095e-07
943.029	1.39406e-07
951.586	6.72366e-08
960.144	1.93874e-07
968.702	1.45183e-06
977.259	2.30072e-06
985.817	2.61892e-06
994.375	2.97955e-06
1002.93	4.49761e-06
1011.49	5.44017e-06
1020.05	4.13257e-06
1028.61	1.24165e-06
1037.16	-9.71842e-08
1045.72	1.32421e-08
1054.28	-7.0227e-08
1062.84	5.54496e-07
1071.39	5.00706e-07
1079.95	2.04984e-07
1088.51	-1.60259e-07
1097.07	5.19063e-08
1105.62	2.99236e-07
1114.18	5.53048e-07
1122.74	7.62733e-08
1131.3	-5.99534e-09
1139.85	-2.78711e-07
1148.41	-2.88329e-07
1156.97	-1.21027e-07
1165.53	1.85899e-08
1174.09	-5.08949e-08
1182.64	3.20794e-08
1191.2	2.26288e-07
1199.76	3.81526e-07
1208.32	1.2632e-06
1216.87	1.90603e-06
1225.43	2.74702e-06
1233.99	1.59088e-06
1242.55	2.09291e-06
1251.1	5.09502e-06
1259.66	5.91535e-06
1268.22	1.98726e-06
1276.78	1.30383e-06
1285.33	6.1632e-07
1293.89	3.37042e-07
1302.45	1.16123e-07
1311.01	-7.09109e-08
1319.57	-3.05682e-07
1328.12	-1.0804e-07
1336.68	-3.20969e-07
1345.24	-1.80792e-07
1353.8	-5.91094e-08
1362.35	-6.01717e-08
1370.91	1.88162e-07
1379.47	-1.45765e-07
1388.03	1.52008e-07
1396.58	-4.09415e-08
1405.14	-6.57974e-07
1413.7	-1.87915e-07
1422.26	-2.29118e-07
1430.81	-2.60921e-07
1439.37	-1.77088e-07
1447.93	-9.93248e-07
1456.49	-1.79843e-06
1465.05	-1.11524e-06
1473.6	-1.59979e-06
1482.16	-6.99578e-08
1490.72	-7.85295e-07
1499.28	2.51746e-09
1507.83	3.27328e-07
1516.39	7.76222e-07
1524.95	1.32318e-06
1533.51	1.6816e-06
1542.06	1.66869e-06
1550.62	6.37061e-06
1559.18	8.70777e-06
1567.74	9.76565e-06
1576.29	5.76447e-06
1584.85	8.0197e-06
1593.41	7.253e-06
1601.97	5.84776e-06
1610.53	2.76946e-06
1619.08	7.39748e-07
1627.64	-5.14166e-07
1636.2	-5.31126e-07
1644.76	-1.50735e-07
1653.31	-4.86569e-06
1661.87	-3.38388e-07
1670.43	-3.4351e-07
1678.99	-3.36911e-07
1687.54	-3.46326e-07
1696.1	-2.70683e-06
1704.66	-6.19434e-07
1713.22	-3.84982e-07
1721.77	-4.29103e-07
1730.33	-4.56665e-07
1738.89	-3.42506e-07
1747.45	-3.19688e-07
1756.01	-3.53267e-07
1764.56	-2.27423e-07
1773.12	-2.4057e-07
1781.68	7.2759e-08
1790.24	2.16749e-08
1798.79	1.23712e-07
1807.35	-1.68073e-09
1815.91	-3.00953e-07
1824.47	-2.83789e-07
1833.02	-2.2671e-07
1841.58	-3.17324e-07
1850.14	-1.63911e-07
1858.7	-2.54686e-07
1867.25	-2.34662e-07
1875.81	-2.13329e-07
1884.37	-2.42258e-07
1892.93	-2.77757e-07
1901.49	-3.66836e-07
1910.04	-4.88984e-07
1918.6	-3.49738e-07
1927.16	-4.18393e-07
1935.72	-3.82771e-07
1944.27	-4.6517e-07
1952.83	-3.53994e-07
1961.39	-3.21027e-07
1969.95	-2.26884e-07
1978.5	-2.77263e-07
1987.06	-2.84626e-07
1995.62	-2.65316e-07
2004.18	-2.41742e-07
2012.73	-2.15097e-07
2021.29	-1.39988e-07
2029.85	-2.81716e-07
2038.41	-2.71988e-07
2046.97	-2.83877e-07
2055.52	-2.57472e-07
2064.08	-3.2842e-07
2072.64	-3.65381e-07
2081.2	-3.5681e-07
2089.75	-3.59699e-07
2098.31	-2.4797e-07
2106.87	-3.46798e-07
2115.43	-1.3456e-07
2123.98	-1.92498e-07
2132.54	-3.0932e-07
2141.1	-3.64479e-07
2149.66	-3.16633e-07
2158.21	4.96711e-07
2166.77	-1.72162e-07
2175.33	-2.29889e-07
2183.89	6.27328e-08
2192.45	8.43546e-07
2201	2.43044e-07
2209.56	2.17688e-06
2218.12	-7.97002e-08
2226.68	-2.32756e-08
2235.23	5.10361e-07
2243.79	1.38909e-06
2252.35	-1.60514e-07
2260.91	-3.21166e-07
2269.46	-3.1007e-07
2278.02	-2.87813e-07
2286.58	-3.73959e-07
2295.14	-1.50946e-07
2303.69	-1.23094e-07
2312.25	-1.69572e-07
2320.81	-9.55326e-09
2329.37	7.79249e-08
2337.93	3.25378e-08
2346.48	-8.27561e-08
2355.04	-3.137e-07
2363.6	-3.01521e-07
2372.16	-1.67717e-07
2380.71	-2.16189e-07
2389.27	-2.73545e-07
2397.83	-2.11154e-07
2406.39	-4.32756e-07
2414.94	-3.10594e-07
2423.5	-3.92309e-07
2432.06	-3.70452e-07
2440.62	-4.51521e-07
2449.17	-4.37885e-07
2457.73	-2.04824e-07
2466.29	-3.85979e-07
2474.85	-5.45591e-07
2483.41	-4.75393e-07
2491.96	-4.49272e-07
2500.52	-3.77576e-07
2509.08	-6.6883e-07
2517.64	-6e-07
2526.19	-4.98712e-07
2534.75	-5.57436e-07
2543.31	-6.34495e-07
2551.87	-6.48494e-07
2560.42	-4.52546e-07
2568.98	-5.10652e-07
2577.54	-4.49396e-07
2586.1	-5.58622e-07
2594.65	-4.90876e-07
2603.21	-3.84815e-07
2611.77	-5.6218e-07
2620.33	-5.723e-07
2628.89	-4.74527e-07
2637.44	-5.64799e-07
2646	-5.7831e-07
2654.56	-5.60412e-07
2663.12	-5.70554e-07
2671.67	-5.39137e-07
2680.23	-6.75706e-07
2688.79	-6.69703e-07
2697.35	-6.54882e-07
2705.9	-6.21522e-07
2714.46	-6.52903e-07
2723.02	-8.51993e-07
2731.58	-7.29758e-07
2740.13	-5.15199e-07
2748.69	-5.89617e-07
2757.25	-5.70751e-07
2765.81	-6.28885e-07
2774.37	-7.0737e-07
2782.92	-6.71762e-07
2791.48	-6.40294e-07
2800.04	-5.54496e-07
2808.6	-6.03623e-07
2817.15	-6.11481e-07
2825.71	-4.53681e-07
2834.27	-6.03485e-07
2842.83	-7.57145e-07
2851.38	-6.13642e-07
2859.94	-5.40243e-07
2868.5	-5.66734e-07
2877.06	-4.70307e-07
2885.61	-4.55348e-07
2894.17	-4.98028e-07
2902.73	-4.46231e-07
2911.29	-6.06504e-07
2919.85	-7.75807e-07
2928.4	-7.02859e-07
2936.96	-5.23967e-07
2945.52	-5.57705e-07
2954.08	-6.11459e-07
2962.63	-1.34595e-06
2971.19	-5.74585e-07
2979.75	-6.87267e-07
2988.31	-4.79387e-07
2996.86	-6.4431e-07
3005.42	-5.68837e-07
3013.98	-5.49745e-07
3022.54	-5.01797e-07
3031.09	-7.39988e-07
3039.65	-8.6039e-07
3048.21	-5.47635e-07
3056.77	-6.54605e-07
3065.33	-5.03201e-07
3073.88	-6.89923e-07
3082.44	-4.73494e-07
3091	-2.08957e-07
3099.56	-1.26797e-07
3108.11	-3.27452e-07
3116.67	-1.65869e-07
3125.23	-2.39595e-08
3133.79	1.14828e-07
3142.34	2.65876e-07
3150.9	3.45081e-07
3159.46	4.26622e-07
3168.02	2.2198e-07
3176.57	3.61307e-07
3185.13	3.00473e-07
3193.69	4.58382e-07
3202.25	3.25655e-07
3210.81	6.14835e-07
3219.36	4.40294e-07
3227.92	4.5972e-07
3236.48	4.07392e-07
3245.04	6.08076e-07
3253.59	3.85142e-07
3262.15	6.18299e-07
3270.71	4.12885e-07
3279.27	2.46347e-07
3287.82	6.2922e-08
3296.38	-3.01804e-08
3304.94	-9.85884e-09
3313.5	-5.97642e-08
3322.05	2.8878e-08
3330.61	-4.15672e-08
3339.17	-2.84429e-07
3347.73	-3.03834e-07
3356.29	-1.8368e-07
3364.84	-4.12282e-07
3373.4	-1.37973e-07
3381.96	-2.28361e-07
3390.52	-3.29569e-07
3399.07	-4.25909e-07
3407.63	-2.98006e-07
3416.19	-5.04693e-07
3424.75	-5.40061e-07
3433.3	-6.10885e-07
3441.86	-4.72533e-07
3450.42	-1.73276e-07
3458.98	-5.38067e-07
3467.53	-5.36379e-07
3476.09	-5.36496e-07
3484.65	-6.74665e-07
3493.21	-6.29336e-07
3501.77	-9.3659e-07
3510.32	-7.67229e-07
3518.88	-1.04236e-06
3527.44	-8.18575e-07
3536	-7.22992e-07
3544.55	-8.62449e-07
3553.11	-8.44521e-07
3561.67	-1.03468e-06
3570.23	-9.04744e-07
3578.78	-6.40337e-07
3587.34	-8.77677e-07
3595.9	-8.42178e-07
3604.46	-6.88999e-07
3613.01	-1.4073e-06
3621.57	-8.43102e-07
3630.13	-8.54423e-07
3638.69	-8.24731e-07
3647.25	-1.46926e-06
3655.8	-1.02791e-06
3664.36	-9.27561e-07
3672.92	-9.27488e-07
3681.48	-1.08228e-06
3690.03	-1.0947e-06
3698.59	-9.44223e-07
3707.15	-1.21238e-06
3715.71	-1.25539e-06
3724.26	-1.43115e-06
3732.82	-1.34821e-06
3741.38	-1.50639e-06
3749.94	-1.47421e-06
3758.49	-1.33153e-06
3767.05	-1.36459e-06
3775.61	-1.26735e-06
3784.17	-1.43591e-06
3792.73	-1.06852e-06
3801.28	-3.574e-06
3809.84	-1.15439e-06
3818.4	-1.40776e-06
3826.96	-1.22643e-06
3835.51	-1.39043e-06
3844.07	-1.29408e-06
3852.63	-1.50917e-06
3861.19	-1.46786e-06
3869.74	-1.735e-06
3878.3	-1.34158e-06
3886.86	-1.55423e-06
3895.42	-1.52714e-06
3903.97	-2.0137e-06
3912.53	-1.35989e-06
3921.09	-1.41124e-06
3929.65	-1.25706e-06
3938.21	-1.52709e-06
3946.76	-1.63191e-06
3955.32	-1.44406e-06
3963.88	-1.58215e-06
3972.44	-1.68818e-06
