Infrared Spectrum: Carbon tetrachloride
Formula: C Cl4
CAS: 56-23-5
State: gas
Melting point: -22.99 C
Boiling point: 76.54 C
Class: IUPAC A
Instrument: IFS66V (Bruker)
Instrument parameters: KBr Beam Splitter; MCT Detector; Multipass cell
Sampling: 1 L/min Flow
Resolution: 0.2410
Temperature: 23 C
Pressure: 101.3 Pa
Origin: NIST, Analytical Chemistry Division, 301-975-3108
cm-1	(micromol/mol)-1m-1 (base 10)
575.05	-1.70659e-06
583.608	9.03368e-07
592.165	5.76681e-07
600.723	-2.67062e-07
609.281	-5.44208e-07
617.838	-4.66203e-07
626.396	1.05218e-06
634.954	2.06345e-08
643.511	-6.40061e-08
652.069	3.78296e-07
660.626	3.32887e-07
669.184	-1.44638e-07
677.742	-4.18721e-07
686.299	-7.97584e-07
694.857	-1.49556e-07
703.415	-2.57239e-07
711.972	7.98203e-07
720.53	6.97038e-07
729.088	3.02204e-06
737.645	1.31069e-05
746.203	6.47569e-05
754.761	0.000234273
763.318	0.000449304
771.876	0.000554936
780.434	0.000781972
788.991	0.00126652
797.549	0.00488867
806.106	0.000319256
814.664	2.99932e-05
823.222	6.39338e-06
831.779	1.25979e-06
840.337	5.35586e-07
848.895	6.22053e-07
857.452	6.53376e-07
866.01	3.52874e-07
874.568	6.84982e-07
883.125	7.719e-07
891.683	3.74243e-07
900.241	3.43081e-07
908.798	3.03412e-07
917.356	-8.44805e-08
925.914	-6.60215e-08
934.471	2.12565e-07
943.029	1.37551e-07
951.586	6.57814e-08
960.144	1.93517e-07
968.702	1.45164e-06
977.259	2.30028e-06
985.817	2.61746e-06
994.375	2.98042e-06
1002.93	4.49439e-06
1011.49	5.44175e-06
1020.05	4.13617e-06
1028.61	1.2412e-06
1037.16	-9.74243e-08
1045.72	1.43408e-08
1054.28	-7.0307e-08
1062.84	5.55275e-07
1071.39	5.03987e-07
1079.95	2.02416e-07
1088.51	-1.62529e-07
1097.07	5.13897e-08
1105.62	2.99942e-07
1114.18	5.5251e-07
1122.74	7.39013e-08
1131.3	-4.14726e-09
1139.85	-2.7858e-07
1148.41	-2.91604e-07
1156.97	-1.22315e-07
1165.53	1.71202e-08
1174.09	-5.28667e-08
1182.64	3.18757e-08
1191.2	2.23537e-07
1199.76	3.79955e-07
1208.32	1.2648e-06
1216.87	1.90633e-06
1225.43	2.74774e-06
1233.99	1.59056e-06
1242.55	2.09251e-06
1251.1	5.09689e-06
1259.66	5.91476e-06
1268.22	1.98715e-06
1276.78	1.3068e-06
1285.33	6.15607e-07
1293.89	3.39617e-07
1302.45	1.17826e-07
1311.01	-6.91283e-08
1319.57	-3.05813e-07
1328.12	-1.06163e-07
1336.68	-3.23996e-07
1345.24	-1.82516e-07
1353.8	-5.59662e-08
1362.35	-5.42564e-08
1370.91	1.88067e-07
1379.47	-1.47235e-07
1388.03	1.55144e-07
1396.58	-3.92171e-08
1405.14	-6.59684e-07
1413.7	-1.88817e-07
1422.26	-2.29598e-07
1430.81	-2.63031e-07
1439.37	-1.75684e-07
1447.93	-9.99701e-07
1456.49	-1.80538e-06
1465.05	-1.12021e-06
1473.6	-1.61141e-06
1482.16	-6.83134e-08
1490.72	-7.90032e-07
1499.28	1.49884e-09
1507.83	3.28834e-07
1516.39	7.7839e-07
1524.95	1.32402e-06
1533.51	1.68639e-06
1542.06	1.65532e-06
1550.62	6.37159e-06
1559.18	8.70849e-06
1567.74	9.76463e-06
1576.29	5.74752e-06
1584.85	8.02164e-06
1593.41	7.25497e-06
1601.97	5.84683e-06
1610.53	2.76845e-06
1619.08	7.41669e-07
1627.64	-5.13817e-07
1636.2	-5.31526e-07
1644.76	-1.51062e-07
1653.31	-4.89939e-06
1661.87	-3.39704e-07
1670.43	-3.43081e-07
1678.99	-3.36212e-07
1687.54	-3.45503e-07
1696.1	-2.7051e-06
1704.66	-6.15716e-07
1713.22	-3.84488e-07
1721.77	-4.3018e-07
1730.33	-4.53871e-07
1738.89	-3.42935e-07
1747.45	-3.17789e-07
1756.01	-3.54933e-07
1764.56	-2.28325e-07
1773.12	-2.36292e-07
1781.68	7.21333e-08
1790.24	2.15585e-08
1798.79	1.21653e-07
1807.35	-1.03318e-09
1815.91	-3.00975e-07
1824.47	-2.83753e-07
1833.02	-2.26441e-07
1841.58	-3.16982e-07
1850.14	-1.62354e-07
1858.7	-2.54671e-07
1867.25	-2.34131e-07
1875.81	-2.14283e-07
1884.37	-2.42135e-07
1892.93	-2.76295e-07
1901.49	-3.65017e-07
1910.04	-4.90461e-07
1918.6	-3.5056e-07
1927.16	-4.17506e-07
1935.72	-3.82058e-07
1944.27	-4.64246e-07
1952.83	-3.54016e-07
1961.39	-3.2046e-07
1969.95	-2.2671e-07
1978.5	-2.75982e-07
1987.06	-2.86299e-07
1995.62	-2.65199e-07
2004.18	-2.4204e-07
2012.73	-2.13751e-07
2021.29	-1.37602e-07
2029.85	-2.82094e-07
2038.41	-2.7158e-07
2046.97	-2.84582e-07
2055.52	-2.56075e-07
2064.08	-3.29154e-07
2072.64	-3.67273e-07
2081.2	-3.56796e-07
2089.75	-3.6007e-07
2098.31	-2.4634e-07
2106.87	-3.48494e-07
2115.43	-1.38417e-07
2123.98	-1.9885e-07
2132.54	-3.08666e-07
2141.1	-3.64282e-07
2149.66	-3.18066e-07
2158.21	5.04096e-07
2166.77	-1.71908e-07
2175.33	-2.30326e-07
2183.89	6.57305e-08
2192.45	8.53361e-07
2201	2.29787e-07
2209.56	2.1974e-06
2218.12	-8.36146e-08
2226.68	-2.6397e-08
2235.23	4.97257e-07
2243.79	1.40095e-06
2252.35	-1.6477e-07
2260.91	-3.21871e-07
2269.46	-3.10135e-07
2278.02	-2.87522e-07
2286.58	-3.75182e-07
2295.14	-1.4952e-07
2303.69	-1.22002e-07
2312.25	-1.69274e-07
2320.81	-9.74243e-09
2329.37	7.54875e-08
2337.93	3.53318e-08
2346.48	-8.45605e-08
2355.04	-3.14916e-07
2363.6	-3.00837e-07
2372.16	-1.66531e-07
2380.71	-2.14326e-07
2389.27	-2.75218e-07
2397.83	-2.08003e-07
2406.39	-4.33382e-07
2414.94	-3.09029e-07
2423.5	-3.92215e-07
2432.06	-3.69761e-07
2440.62	-4.52728e-07
2449.17	-4.37885e-07
2457.73	-2.03092e-07
2466.29	-3.85303e-07
2474.85	-5.4562e-07
2483.41	-4.75946e-07
2491.96	-4.49585e-07
2500.52	-3.77248e-07
2509.08	-6.69565e-07
2517.64	-6.00422e-07
2526.19	-4.98028e-07
2534.75	-5.58709e-07
2543.31	-6.3579e-07
2551.87	-6.49614e-07
2560.42	-4.5358e-07
2568.98	-5.11387e-07
2577.54	-4.49869e-07
2586.1	-5.58942e-07
2594.65	-4.91574e-07
2603.21	-3.82021e-07
2611.77	-5.65323e-07
2620.33	-5.72162e-07
2628.89	-4.73945e-07
2637.44	-5.65243e-07
2646	-5.785e-07
2654.56	-5.62136e-07
2663.12	-5.72126e-07
2671.67	-5.38322e-07
2680.23	-6.75e-07
2688.79	-6.69834e-07
2697.35	-6.55748e-07
2705.9	-6.19979e-07
2714.46	-6.5374e-07
2723.02	-8.54591e-07
2731.58	-7.31337e-07
2740.13	-5.1632e-07
2748.69	-5.90214e-07
2757.25	-5.70358e-07
2765.81	-6.27677e-07
2774.37	-7.09066e-07
2782.92	-6.6923e-07
2791.48	-6.39501e-07
2800.04	-5.52466e-07
2808.6	-6.0339e-07
2817.15	-6.10011e-07
2825.71	-4.52103e-07
2834.27	-6.04758e-07
2842.83	-7.58753e-07
2851.38	-6.16291e-07
2859.94	-5.41429e-07
2868.5	-5.66814e-07
2877.06	-4.70205e-07
2885.61	-4.53172e-07
2894.17	-4.99083e-07
2902.73	-4.46478e-07
2911.29	-6.05275e-07
2919.85	-7.77786e-07
2928.4	-7.01528e-07
2936.96	-5.22446e-07
2945.52	-5.55784e-07
2954.08	-6.12602e-07
2962.63	-1.34585e-06
2971.19	-5.72984e-07
2979.75	-6.86336e-07
2988.31	-4.75116e-07
2996.86	-6.45903e-07
3005.42	-5.70394e-07
3013.98	-5.49192e-07
3022.54	-4.98952e-07
3031.09	-7.40745e-07
3039.65	-8.6226e-07
3048.21	-5.46231e-07
3056.77	-6.54795e-07
3065.33	-5.02532e-07
3073.88	-6.89661e-07
3082.44	-4.76215e-07
3091	-2.08556e-07
3099.56	-1.32145e-07
3108.11	-3.2425e-07
3116.67	-1.65898e-07
3125.23	-2.26572e-08
3133.79	1.11714e-07
3142.34	2.67557e-07
3150.9	3.44783e-07
3159.46	4.27321e-07
3168.02	2.23596e-07
3176.57	3.58935e-07
3185.13	3.00153e-07
3193.69	4.58615e-07
3202.25	3.23145e-07
3210.81	6.15614e-07
3219.36	4.4084e-07
3227.92	4.60492e-07
3236.48	4.08294e-07
3245.04	6.07348e-07
3253.59	3.8432e-07
3262.15	6.19572e-07
3270.71	4.12987e-07
3279.27	2.45802e-07
3287.82	6.34895e-08
3296.38	-3.23996e-08
3304.94	-8.86932e-09
3313.5	-6.04846e-08
3322.05	2.70227e-08
3330.61	-4.12398e-08
3339.17	-2.85346e-07
3347.73	-3.04242e-07
3356.29	-1.84975e-07
3364.84	-4.14544e-07
3373.4	-1.38955e-07
3381.96	-2.26564e-07
3390.52	-3.2898e-07
3399.07	-4.23807e-07
3407.63	-2.97439e-07
3416.19	-5.07341e-07
3424.75	-5.39268e-07
3433.3	-6.10994e-07
3441.86	-4.77867e-07
3450.42	-1.68284e-07
3458.98	-5.36438e-07
3467.53	-5.37245e-07
3476.09	-5.34866e-07
3484.65	-6.73552e-07
3493.21	-6.32669e-07
3501.77	-9.38242e-07
3510.32	-7.69623e-07
3518.88	-1.04477e-06
3527.44	-8.1808e-07
3536	-7.23552e-07
3544.55	-8.6135e-07
3553.11	-8.44528e-07
3561.67	-1.03911e-06
3570.23	-9.06839e-07
3578.78	-6.3782e-07
3587.34	-8.76608e-07
3595.9	-8.39617e-07
3604.46	-6.8846e-07
3613.01	-1.41119e-06
3621.57	-8.42964e-07
3630.13	-8.54845e-07
3638.69	-8.22926e-07
3647.25	-1.46871e-06
3655.8	-1.02498e-06
3664.36	-9.27954e-07
3672.92	-9.26637e-07
3681.48	-1.08461e-06
3690.03	-1.09235e-06
3698.59	-9.41618e-07
3707.15	-1.21373e-06
3715.71	-1.25429e-06
3724.26	-1.43238e-06
3732.82	-1.34954e-06
3741.38	-1.50836e-06
3749.94	-1.46531e-06
3758.49	-1.33289e-06
3767.05	-1.36309e-06
3775.61	-1.26751e-06
3784.17	-1.43776e-06
3792.73	-1.06675e-06
3801.28	-3.58156e-06
3809.84	-1.15573e-06
3818.4	-1.40975e-06
3826.96	-1.2209e-06
3835.51	-1.38994e-06
3844.07	-1.28911e-06
3852.63	-1.50672e-06
3861.19	-1.46832e-06
3869.74	-1.73269e-06
3878.3	-1.34386e-06
3886.86	-1.55594e-06
3895.42	-1.525e-06
3903.97	-2.01143e-06
3912.53	-1.35797e-06
3921.09	-1.40901e-06
3929.65	-1.25846e-06
3938.21	-1.52664e-06
3946.76	-1.63256e-06
3955.32	-1.44357e-06
3963.88	-1.58492e-06
3972.44	-1.68935e-06
