Infrared Spectrum: Carbon tetrachloride
Formula: C Cl4
CAS: 56-23-5
State: gas
Melting point: -22.99 C
Boiling point: 76.54 C
Class: IUPAC A
Instrument: IFS66V (Bruker)
Instrument parameters: KBr Beam Splitter; MCT Detector; Multipass cell
Sampling: 1 L/min Flow
Resolution: 0.9640
Temperature: 23 C
Pressure: 101.3 Pa
Origin: NIST, Analytical Chemistry Division, 301-975-3108
cm-1	(micromol/mol)-1m-1 (base 10)
575.17	-1.15223e-06
583.848	-1.31103e-06
592.526	-1.04122e-06
601.205	-6.85106e-07
609.883	-1.14229e-06
618.561	2.91167e-07
627.239	4.64151e-07
635.917	-6.5072e-07
644.595	-1.22386e-06
653.274	-1.2788e-06
661.952	-1.46045e-06
670.63	-1.36586e-06
679.308	-1.12137e-06
687.986	-1.64491e-06
696.664	-1.03776e-06
705.343	-1.28014e-06
714.021	-1.67316e-06
722.699	-1.25087e-06
731.377	1.70603e-06
740.055	1.80597e-05
748.734	9.93837e-05
757.412	0.000297831
766.09	0.000500374
774.768	0.000647484
783.446	0.000608515
792.124	0.00374219
800.803	0.00177282
809.481	0.00012443
818.159	2.41902e-05
826.837	8.97885e-06
835.515	5.2866e-06
844.194	3.79551e-06
852.872	3.72863e-06
861.55	3.07462e-06
870.228	3.21857e-06
878.906	2.88636e-06
887.584	2.52116e-06
896.263	2.31468e-06
904.941	1.88373e-06
913.619	1.78369e-06
922.297	1.31294e-06
930.975	1.36807e-06
939.653	1.3034e-06
948.332	1.33561e-06
957.01	1.46694e-06
965.688	1.92717e-06
974.366	3.08332e-06
983.044	3.2106e-06
991.723	2.95063e-06
1000.4	5.05866e-06
1009.08	6.06223e-06
1017.76	5.46907e-06
1026.44	2.46159e-06
1035.11	7.53158e-07
1043.79	7.66683e-07
1052.47	8.29242e-07
1061.15	1.0815e-06
1069.83	1.162e-06
1078.5	1.33099e-06
1087.18	5.85943e-07
1095.86	5.22082e-07
1104.54	1.05408e-06
1113.22	9.90679e-07
1121.9	7.99905e-07
1130.57	5.09175e-07
1139.25	3.17651e-07
1147.93	2.30137e-07
1156.61	4.09277e-07
1165.29	3.32669e-07
1173.96	4.5617e-07
1182.64	4.78019e-07
1191.32	7.63613e-07
1200	9.15337e-07
1208.68	1.73206e-06
1217.36	2.51669e-06
1226.03	3.26389e-06
1234.71	2.24198e-06
1243.39	2.61035e-06
1252.07	5.94139e-06
1260.75	5.33209e-06
1269.42	2.03364e-06
1278.1	1.28491e-06
1286.78	8.86969e-07
1295.46	4.5577e-07
1304.14	1.87907e-07
1312.82	1.15425e-07
1321.49	8.92462e-08
1330.17	-2.15076e-08
1338.85	-1.22235e-07
1347.53	-6.60288e-08
1356.21	5.42804e-07
1364.88	3.29729e-07
1373.56	1.17811e-07
1382.24	2.48719e-07
1390.92	4.00858e-07
1399.6	-1.22388e-07
1408.28	-3.46406e-08
1416.95	3.73399e-08
1425.63	1.13213e-08
1434.31	-4.30733e-08
1442.99	4.23748e-08
1451.67	7.94601e-08
1460.34	1.39079e-07
1469.02	1.60019e-07
1477.7	8.97628e-08
1486.38	1.53492e-07
1495.06	-4.59837e-08
1503.73	5.32254e-07
1512.41	3.07036e-07
1521.09	-5.65883e-07
1529.77	1.97532e-06
1538.45	3.44982e-06
1547.13	5.60594e-06
1555.8	8.54425e-06
1564.48	9.7859e-06
1573.16	9.00252e-06
1581.84	8.5051e-06
1590.52	7.83686e-06
1599.19	6.82298e-06
1607.87	3.98368e-06
1616.55	-1.03967e-06
1625.23	4.70205e-07
1633.91	1.199e-07
1642.59	3.69397e-08
1651.26	-4.61947e-07
1659.94	2.83469e-08
1668.62	-4.56999e-08
1677.3	-2.09088e-07
1685.98	-5.73232e-07
1694.65	-4.79635e-07
1703.33	-2.05937e-07
1712.01	-1.3734e-07
1720.69	-2.09284e-07
1729.37	-1.08636e-07
1738.05	-1.6178e-07
1746.72	-1.6819e-07
1755.4	-1.99556e-07
1764.08	-3.8846e-08
1772.76	-1.75407e-06
1781.44	2.79526e-07
1790.11	2.59815e-07
1798.79	3.44077e-07
1807.47	3.59211e-08
1816.15	-1.25844e-07
1824.83	-4.37594e-07
1833.51	-1.43932e-07
1842.18	-3.10012e-07
1850.86	-1.75262e-07
1859.54	-2.1712e-07
1868.22	-2.8921e-07
1876.9	-1.25909e-07
1885.57	-2.69361e-07
1894.25	-2.17622e-07
1902.93	-1.97402e-07
1911.61	-1.39152e-07
1920.29	-1.62929e-07
1928.97	-2.52183e-07
1937.64	-2.41538e-07
1946.32	-2.2428e-07
1955	-6.57378e-08
1963.68	-2.83229e-07
1972.36	-2.98923e-07
1981.03	-1.44674e-07
1989.71	-1.83738e-07
1998.39	-8.42331e-08
2007.07	-1.84917e-07
2015.75	-1.48639e-07
2024.43	-2.55966e-08
2033.1	-1.55209e-07
2041.78	-1.21442e-07
2050.46	-2.91087e-07
2059.14	-1.50284e-07
2067.82	-2.93866e-07
2076.49	-1.99454e-07
2085.17	-2.88424e-07
2093.85	-2.33404e-07
2102.53	-4.44405e-07
2111.21	-2.75029e-08
2119.89	1.77379e-07
2128.56	-2.09473e-07
2137.24	-1.29853e-07
2145.92	-2.20052e-07
2154.6	1.20722e-07
2163.28	-1.29242e-07
2171.95	-2.67629e-07
2180.63	-2.14734e-07
2189.31	1.75728e-07
2197.99	6.66909e-08
2206.67	1.15835e-06
2215.35	9.06948e-07
2224.02	1.86045e-08
2232.7	9.67855e-07
2241.38	1.01285e-06
2250.06	1.54562e-07
2258.74	-2.81672e-07
2267.41	-3.21828e-07
2276.09	-2.92317e-07
2284.77	-2.01106e-07
2293.45	-2.55923e-07
2302.13	-1.99673e-07
2310.81	6.03827e-08
2319.48	8.49971e-08
2328.16	1.70096e-07
2336.84	2.32952e-07
2345.52	1.25437e-07
2354.2	-2.57727e-07
2362.87	-4.81977e-07
2371.55	-2.60666e-07
2380.23	-2.2954e-07
2388.91	-2.52408e-07
2397.59	-2.55268e-07
2406.27	-3.23436e-07
2414.94	-3.28005e-07
2423.62	-3.08389e-07
2432.3	-3.2492e-07
2440.98	-4.13715e-07
2449.66	-3.39945e-07
2458.33	-4.57821e-07
2467.01	-3.83425e-07
2475.69	-4.11299e-07
2484.37	-2.59895e-07
2493.05	-4.89479e-07
2501.73	-3.50888e-07
2510.4	-4.66218e-07
2519.08	-5.01964e-07
2527.76	-4.46573e-07
2536.44	-4.92775e-07
2545.12	-4.43794e-07
2553.79	-5.72308e-07
2562.47	-5.41756e-07
2571.15	-4.66392e-07
2579.83	-4.46711e-07
2588.51	-5.46937e-07
2597.19	-5.3237e-07
2605.86	-5.33243e-07
2614.54	-5.00044e-07
2623.22	-5.2385e-07
2631.9	-3.66531e-07
2640.58	-5.92928e-07
2649.25	-5.92869e-07
2657.93	-5.07821e-07
2666.61	-5.39195e-07
2675.29	-4.55741e-07
2683.97	-6.07028e-07
2692.65	-4.93888e-07
2701.32	-5.51273e-07
2710	-5.49018e-07
2718.68	-6.58083e-07
2727.36	-4.93546e-07
2736.04	-5.72344e-07
2744.71	-7.27968e-07
2753.39	-5.66327e-07
2762.07	-6.31373e-07
2770.75	-5.68488e-07
2779.43	-5.93997e-07
2788.11	-6.20525e-07
2796.78	-4.1266e-07
2805.46	-6.03179e-07
2814.14	-5.5737e-07
2822.82	-4.58862e-07
2831.5	-6.08323e-07
2840.17	-5.48101e-07
2848.85	-6.09328e-07
2857.53	-4.16938e-07
2866.21	-6.14741e-07
2874.89	-6.56577e-07
2883.57	-5.0088e-07
2892.24	-6.85754e-07
2900.92	-6.87907e-07
2909.6	-5.85041e-07
2918.28	-7.60193e-07
2926.96	-6.70889e-07
2935.63	-7.00727e-07
2944.31	-7.46544e-07
2952.99	-6.81359e-07
2961.67	2.39654e-07
2970.35	-7.51091e-07
2979.03	-6.0753e-07
2987.7	-5.48894e-07
2996.38	-7.23072e-07
3005.06	-6.223e-07
3013.74	-6.63649e-07
3022.42	-6.24199e-07
3031.09	-6.41654e-07
3039.77	-7.73617e-07
3048.45	-5.98566e-07
3057.13	-7.38344e-07
3065.81	-7.17775e-07
3074.49	-4.28929e-07
3083.16	-4.10746e-07
3091.84	-4.18728e-07
3100.52	-4.10972e-07
3109.2	-7.79613e-08
3117.88	-4.74971e-08
3126.55	-1.71638e-08
3135.23	1.13548e-07
3143.91	1.0048e-08
3152.59	1.27765e-07
3161.27	2.37631e-07
3169.95	3.35586e-07
3178.62	2.93357e-07
3187.3	3.31403e-07
3195.98	3.53354e-07
3204.66	4.73115e-07
3213.34	4.43211e-07
3222.01	3.73879e-07
3230.69	2.80813e-07
3239.37	5.69492e-07
3248.05	4.51186e-07
3256.73	3.6541e-07
3265.41	4.6362e-07
3274.08	1.9658e-07
3282.76	-1.50466e-08
3291.44	1.26426e-07
3300.12	1.53914e-07
3308.8	-3.20249e-07
3317.47	-1.24789e-07
3326.15	-1.12711e-07
3334.83	-2.64246e-07
3343.51	-3.02605e-07
3352.19	-1.96711e-07
3360.86	-3.39348e-07
3369.54	-1.86525e-07
3378.22	-1.90519e-07
3386.9	-2.23719e-07
3395.58	-5.34153e-07
3404.26	-3.98174e-07
3412.93	-5.58142e-07
3421.61	-4.9455e-07
3430.29	-4.33222e-07
3438.97	-5.49847e-07
3447.65	-4.75677e-07
3456.32	-4.48683e-07
3465	-7.3675e-07
3473.68	-6.5729e-07
3482.36	-7.65185e-07
3491.04	-7.25036e-07
3499.72	-8.24527e-07
3508.39	-8.49832e-07
3517.07	-6.18488e-07
3525.75	-9.89966e-07
3534.43	-7.2858e-07
3543.11	-9.39923e-07
3551.78	-1.05377e-06
3560.46	-1.09845e-06
3569.14	-1.02682e-06
3577.82	-8.17855e-07
3586.5	-1.49985e-06
3595.18	-1.1219e-06
3603.85	-8.81192e-07
3612.53	-1.67544e-06
3621.21	-1.16695e-06
3629.89	-1.77986e-06
3638.57	-9.09451e-07
3647.24	-1.75546e-06
3655.92	-1.39046e-06
3664.6	-1.17392e-06
3673.28	-1.03341e-06
3681.96	-1.16462e-06
3690.64	-1.45232e-06
3699.31	-1.30726e-06
3707.99	-1.42266e-06
3716.67	-1.10548e-06
3725.35	-1.43067e-06
3734.03	-1.28528e-06
3742.7	-1.35626e-06
3751.38	-1.31943e-06
3760.06	-1.93146e-06
3768.74	-1.38457e-06
3777.42	-1.26753e-06
3786.1	-1.40435e-06
3794.77	-1.32963e-06
3803.45	-1.32222e-06
3812.13	-1.53732e-06
3820.81	-2.39091e-06
3829.49	-1.22295e-06
3838.16	-3.07124e-06
3846.84	-1.48072e-06
3855.52	-1.73786e-06
3864.2	-1.52795e-06
3872.88	-1.32414e-06
3881.56	-1.64101e-06
3890.23	-1.46542e-06
3898.91	-1.86454e-06
3907.59	-1.44239e-06
3916.27	-1.76991e-06
3924.95	-1.67199e-06
3933.62	-1.50423e-06
3942.3	-1.55629e-06
3950.98	-1.47873e-06
3959.66	-1.52306e-06
3968.34	-1.60376e-06
