Infrared Spectrum: Carbon tetrachloride
Formula: C Cl4
CAS: 56-23-5
State: gas
Melting point: -22.99 C
Boiling point: 76.54 C
Class: IUPAC A
Instrument: IFS66V (Bruker)
Instrument parameters: KBr Beam Splitter; MCT Detector; Multipass cell
Sampling: 1 L/min Flow
Resolution: 0.4820
Temperature: 23 C
Pressure: 101.3 Pa
Origin: NIST, Analytical Chemistry Division, 301-975-3108
cm-1	(micromol/mol)-1m-1 (base 10)
575.17	-7.27583e-07
583.848	1.73734e-07
592.526	-2.76099e-07
601.205	3.33098e-07
609.883	-2.51222e-07
618.561	9.82996e-07
627.239	1.48612e-06
635.917	4.42535e-07
644.595	1.00917e-08
653.274	-4.18946e-08
661.952	-2.27554e-07
670.63	9.63475e-08
679.308	3.27335e-07
687.986	-3.52154e-08
696.664	6.36474e-07
705.343	4.48836e-07
714.021	5.00509e-07
722.699	1.20519e-06
731.377	4.32883e-06
740.055	2.12216e-05
748.734	0.000103146
757.412	0.000303428
766.09	0.000508433
774.768	0.000647604
783.446	0.000621455
792.124	0.00378985
800.803	0.00175124
809.481	0.000110344
818.159	1.60133e-05
826.837	3.35015e-06
835.515	8.42731e-07
844.193	3.29082e-07
852.872	5.49796e-07
861.55	4.3702e-07
870.228	7.54467e-07
878.906	7.4714e-07
887.584	5.69325e-07
896.263	5.11103e-07
904.941	3.31395e-07
913.619	2.50931e-07
922.297	-2.76848e-08
930.975	6.38533e-08
939.653	5.8993e-08
948.332	1.84146e-07
957.01	3.46857e-07
965.688	9.13875e-07
974.366	2.08251e-06
983.044	2.318e-06
991.723	2.17058e-06
1000.4	4.19499e-06
1009.08	5.27772e-06
1017.76	4.66829e-06
1026.44	1.72157e-06
1035.11	6.50538e-08
1043.79	4.05049e-08
1052.47	1.83258e-07
1061.15	4.09517e-07
1069.83	5.32123e-07
1078.5	6.69303e-07
1087.18	9.1298e-08
1095.86	3.8977e-08
1104.54	4.5446e-07
1113.22	4.94114e-07
1121.9	2.77117e-07
1130.57	1.24054e-08
1139.25	-1.77612e-07
1147.93	-2.50597e-07
1156.61	-6.63562e-08
1165.29	-1.47846e-07
1173.96	2.88417e-08
1182.64	2.68117e-08
1191.32	3.50145e-07
1200	4.96929e-07
1208.68	1.26212e-06
1217.36	2.0819e-06
1226.03	2.79213e-06
1234.71	1.83014e-06
1243.39	2.26011e-06
1252.07	5.51015e-06
1260.75	5.02486e-06
1269.42	1.74576e-06
1278.1	1.05135e-06
1286.78	5.15054e-07
1295.46	1.46478e-07
1304.14	-1.18321e-07
1312.82	-1.84997e-07
1321.49	-2.33331e-07
1330.17	-3.53245e-07
1338.85	-3.87383e-07
1347.53	-3.547e-07
1356.21	2.89966e-07
1364.88	9.79336e-09
1373.56	-1.93874e-07
1382.24	-6.79569e-09
1390.92	6.7695e-08
1399.6	-3.66603e-07
1408.28	-2.41123e-07
1416.95	-2.62347e-07
1425.63	-2.3109e-07
1434.31	-2.70998e-07
1442.99	-1.59611e-07
1451.67	-1.90396e-07
1460.34	-9.33352e-08
1469.02	-5.45911e-08
1477.7	-1.02423e-07
1486.38	-8.07989e-08
1495.06	-7.26717e-08
1503.73	2.87609e-07
1512.41	2.23174e-07
1521.09	-5.63082e-07
1529.77	1.76852e-06
1538.45	2.72131e-06
1547.13	5.42519e-06
1555.8	8.13356e-06
1564.48	9.73782e-06
1573.16	8.96224e-06
1581.84	8.3352e-06
1590.52	7.6356e-06
1599.19	6.65815e-06
1607.87	3.81412e-06
1616.55	-7.81846e-07
1625.23	1.6736e-07
1633.91	-1.85936e-07
1642.59	-9.41429e-08
1651.26	-2.86663e-07
1659.94	-2.44034e-07
1668.62	-4.29147e-07
1677.3	-3.42251e-07
1685.98	-3.8523e-07
1694.65	-3.6469e-07
1703.33	-3.96697e-07
1712.01	-3.26062e-07
1720.69	-3.23276e-07
1729.37	-3.11227e-07
1738.05	-4.24607e-07
1746.72	-3.44055e-07
1755.4	-3.02124e-07
1764.08	-1.53172e-07
1772.76	-1.60175e-06
1781.44	7.71245e-08
1790.11	2.3312e-08
1798.79	1.64392e-07
1807.47	-5.34997e-08
1816.15	-2.32385e-07
1824.83	-5.26288e-07
1833.51	-2.69943e-07
1842.18	-3.59575e-07
1850.86	-2.60921e-07
1859.54	-3.05275e-07
1868.22	-3.51441e-07
1876.9	-2.39843e-07
1885.57	-3.93335e-07
1894.25	-3.37092e-07
1902.93	-3.0422e-07
1911.61	-2.43692e-07
1920.29	-2.61052e-07
1928.97	-3.42287e-07
1937.64	-3.4562e-07
1946.32	-3.15061e-07
1955	-2.07181e-07
1963.68	-3.539e-07
1972.36	-3.38308e-07
1981.03	-2.36365e-07
1989.71	-2.75698e-07
1998.39	-1.67287e-07
2007.07	-2.84357e-07
2015.75	-2.14588e-07
2024.43	-1.51462e-07
2033.1	-2.49673e-07
2041.78	-2.41116e-07
2050.46	-3.33906e-07
2059.14	-2.72373e-07
2067.82	-3.7174e-07
2076.49	-3.07836e-07
2085.17	-3.80151e-07
2093.85	-3.32501e-07
2102.53	-3.92069e-07
2111.21	-1.17288e-07
2119.89	6.90774e-08
2128.56	-2.72279e-07
2137.24	-2.04635e-07
2145.92	-2.72373e-07
2154.6	3.1541e-08
2163.28	-2.68524e-07
2171.95	-2.15432e-07
2180.63	-1.68248e-07
2189.31	1.10892e-07
2197.99	2.82778e-07
2206.67	9.52743e-07
2215.35	5.93764e-07
2224.02	-1.38577e-07
2232.7	9.05406e-07
2241.38	8.25786e-07
2250.06	6.54322e-08
2258.74	-3.29904e-07
2267.41	-4.1218e-07
2276.09	-3.58964e-07
2284.77	-2.88977e-07
2293.45	-3.14363e-07
2302.13	-2.47301e-07
2310.81	-1.64072e-08
2319.48	7.6979e-09
2328.16	1.05086e-07
2336.84	1.14435e-07
2345.52	5.38708e-08
2354.2	-3.02328e-07
2362.87	-4.70649e-07
2371.55	-3.01957e-07
2380.23	-2.76288e-07
2388.91	-2.67906e-07
2397.59	-3.40279e-07
2406.27	-3.49592e-07
2414.94	-3.59728e-07
2423.62	-3.56235e-07
2432.3	-3.61525e-07
2440.98	-4.1039e-07
2449.66	-4.06694e-07
2458.33	-4.50844e-07
2467.01	-4.08062e-07
2475.69	-4.39392e-07
2484.37	-3.13453e-07
2493.05	-4.93197e-07
2501.73	-3.96413e-07
2510.4	-4.80253e-07
2519.08	-5.11896e-07
2527.76	-4.97213e-07
2536.44	-5.18452e-07
2545.12	-4.97424e-07
2553.79	-5.69812e-07
2562.47	-5.5649e-07
2571.15	-4.93626e-07
2579.83	-5.0438e-07
2588.51	-5.88358e-07
2597.19	-5.51608e-07
2605.86	-5.43488e-07
2614.54	-5.20452e-07
2623.22	-5.51128e-07
2631.9	-4.34349e-07
2640.58	-5.96937e-07
2649.25	-6.20125e-07
2657.93	-5.30901e-07
2666.61	-5.7385e-07
2675.29	-4.74993e-07
2683.97	-5.91407e-07
2692.65	-5.36292e-07
2701.32	-5.67578e-07
2710	-6.07152e-07
2718.68	-6.55835e-07
2727.36	-5.31082e-07
2736.04	-6.01179e-07
2744.71	-6.77947e-07
2753.39	-5.92498e-07
2762.07	-6.12391e-07
2770.75	-5.78521e-07
2779.43	-5.98435e-07
2788.11	-5.98101e-07
2796.78	-4.61983e-07
2805.46	-6.00815e-07
2814.14	-5.4511e-07
2822.82	-4.98603e-07
2831.5	-5.96747e-07
2840.17	-5.9116e-07
2848.85	-5.87784e-07
2857.53	-4.35295e-07
2866.21	-6.35739e-07
2874.89	-6.65381e-07
2883.57	-5.30697e-07
2892.24	-6.44543e-07
2900.92	-6.64675e-07
2909.6	-5.82552e-07
2918.28	-7.33534e-07
2926.96	-7.04569e-07
2935.63	-7.05348e-07
2944.31	-7.32938e-07
2952.99	-6.6477e-07
2961.67	6.11539e-08
2970.35	-6.85986e-07
2979.03	-6.00218e-07
2987.7	-5.26215e-07
2996.38	-6.43393e-07
3005.06	-5.71464e-07
3013.74	-6.17782e-07
3022.42	-5.99345e-07
3031.09	-6.0753e-07
3039.77	-7.13271e-07
3048.45	-5.56439e-07
3057.13	-6.90665e-07
3065.81	-6.48472e-07
3074.49	-4.5876e-07
3083.16	-4.04016e-07
3091.84	-4.203e-07
3100.52	-3.64108e-07
3109.2	-8.33382e-08
3117.88	-1.93102e-08
3126.55	2.52328e-08
3135.23	1.45467e-07
3143.91	7.59895e-08
3152.59	1.91385e-07
3161.27	2.93881e-07
3169.95	3.87325e-07
3178.62	3.49934e-07
3187.3	4.16131e-07
3195.98	4.12187e-07
3204.66	5.14399e-07
3213.34	4.92251e-07
3222.01	4.1322e-07
3230.69	3.76688e-07
3239.37	5.60725e-07
3248.05	4.90774e-07
3256.73	4.37915e-07
3265.4	4.68961e-07
3274.08	2.83993e-07
3282.76	8.57974e-08
3291.44	1.18284e-07
3300.12	2.20329e-07
3308.8	-1.68852e-07
3317.47	-9.14217e-08
3326.15	-2.21697e-08
3334.83	-1.89435e-07
3343.51	-2.81796e-07
3352.19	-1.31119e-07
3360.86	-3.20947e-07
3369.54	-2.04737e-07
3378.22	-1.86205e-07
3386.9	-2.20933e-07
3395.58	-4.07669e-07
3404.26	-3.83673e-07
3412.93	-4.14232e-07
3421.61	-4.37878e-07
3430.29	-3.91451e-07
3438.97	-4.66858e-07
3447.65	-4.35899e-07
3456.32	-3.95445e-07
3465	-6.30333e-07
3473.68	-6.11066e-07
3482.36	-6.52503e-07
3491.04	-6.48967e-07
3499.72	-6.79205e-07
3508.39	-7.38096e-07
3517.07	-5.93743e-07
3525.75	-8.94441e-07
3534.43	-6.57538e-07
3543.11	-8.54074e-07
3551.78	-9.289e-07
3560.46	-9.1955e-07
3569.14	-8.33207e-07
3577.82	-7.3894e-07
3586.5	-1.24601e-06
3595.18	-1.02055e-06
3603.85	-8.06956e-07
3612.53	-1.45047e-06
3621.21	-1.05355e-06
3629.89	-1.60265e-06
3638.57	-8.15941e-07
3647.24	-1.48949e-06
3655.92	-1.31888e-06
3664.6	-1.03964e-06
3673.28	-1.13103e-06
3681.96	-1.05456e-06
3690.64	-1.31532e-06
3699.31	-1.09824e-06
3707.99	-1.1689e-06
3716.67	-1.01254e-06
3725.35	-1.23878e-06
3734.03	-1.33116e-06
3742.7	-1.22162e-06
3751.38	-1.38719e-06
3760.06	-1.68636e-06
3768.74	-1.16076e-06
3777.42	-1.15388e-06
3786.1	-1.23319e-06
3794.77	-1.2096e-06
3803.45	-1.21542e-06
3812.13	-1.26952e-06
3820.81	-2.15846e-06
3829.49	-1.10083e-06
3838.16	-2.65879e-06
3846.84	-1.24213e-06
3855.52	-1.43858e-06
3864.2	-1.34221e-06
3872.88	-1.28487e-06
3881.56	-1.50868e-06
3890.23	-1.30269e-06
3898.91	-1.74112e-06
3907.59	-1.33292e-06
3916.27	-1.56579e-06
3924.95	-1.50556e-06
3933.62	-1.32637e-06
3942.3	-1.37143e-06
3950.98	-1.31405e-06
3959.66	-1.38448e-06
3968.34	-1.46171e-06
