Infrared Spectrum: Carbon tetrachloride
Formula: C Cl4
CAS: 56-23-5
State: gas
Melting point: -22.99 C
Boiling point: 76.54 C
Class: IUPAC A
Instrument: IFS66V (Bruker)
Instrument parameters: KBr Beam Splitter; MCT Detector; Multipass cell
Sampling: 1 L/min Flow
Resolution: 0.2410
Temperature: 23 C
Pressure: 101.3 Pa
Origin: NIST, Analytical Chemistry Division, 301-975-3108
cm-1	(micromol/mol)-1m-1 (base 10)
575.05	-1.55581e-06
583.608	7.46944e-07
592.165	5.03754e-07
600.723	-1.61605e-07
609.281	-5.60652e-07
617.838	-4.71129e-07
626.396	1.02616e-06
634.954	1.2647e-07
643.511	-5.8913e-08
652.069	4.25866e-07
660.626	3.58178e-07
669.184	-1.13759e-07
677.742	-4.09655e-07
686.299	-7.39821e-07
694.857	-1.84189e-07
703.415	-1.7834e-07
711.972	6.93393e-07
720.53	6.89246e-07
729.088	3.00693e-06
737.645	1.31835e-05
746.203	6.47586e-05
754.761	0.000234344
763.318	0.000449548
771.876	0.000556051
780.434	0.000782058
788.991	0.00126602
797.549	0.00485039
806.106	0.000319407
814.664	3.01225e-05
823.222	6.35054e-06
831.779	1.30898e-06
840.337	4.60797e-07
848.895	6.25655e-07
857.452	6.28485e-07
866.01	3.56003e-07
874.568	5.97984e-07
883.125	7.95118e-07
891.683	3.53376e-07
900.241	3.33469e-07
908.798	2.98123e-07
917.356	-4.90032e-08
925.914	-6.18015e-08
934.471	1.87806e-07
943.029	1.58942e-07
951.586	6.96667e-08
960.144	2.34437e-07
968.702	1.4362e-06
977.259	2.32262e-06
985.817	2.62364e-06
994.375	2.99926e-06
1002.93	4.50685e-06
1011.49	5.42354e-06
1020.05	4.11334e-06
1028.61	1.235e-06
1037.16	-7.59749e-08
1045.72	-5.31868e-09
1054.28	-8.26688e-08
1062.84	5.63286e-07
1071.39	4.58644e-07
1079.95	2.29904e-07
1088.51	-1.33164e-07
1097.07	1.00509e-07
1105.62	2.83913e-07
1114.18	5.57479e-07
1122.74	1.18466e-07
1131.3	6.86117e-09
1139.85	-2.70089e-07
1148.41	-2.87755e-07
1156.97	-1.22082e-07
1165.53	-7.26862e-09
1174.09	-3.64814e-08
1182.64	2.08818e-08
1191.2	2.47002e-07
1199.76	4.1063e-07
1208.32	1.24757e-06
1216.87	1.93513e-06
1225.43	2.75784e-06
1233.99	1.60259e-06
1242.55	2.09942e-06
1251.1	5.06183e-06
1259.66	5.93599e-06
1268.22	1.987e-06
1276.78	1.25279e-06
1285.33	6.31388e-07
1293.89	3.04475e-07
1302.45	7.79976e-08
1311.01	-8.15046e-08
1319.57	-2.73821e-07
1328.12	-1.09277e-07
1336.68	-3.02248e-07
1345.24	-1.59451e-07
1353.8	-5.31432e-08
1362.35	-7.35593e-08
1370.91	1.49738e-07
1379.47	-1.33418e-07
1388.03	1.02168e-07
1396.58	-4.77736e-08
1405.14	-6.58651e-07
1413.7	-2.02285e-07
1422.26	-2.4901e-07
1430.81	-2.69186e-07
1439.37	-1.95234e-07
1447.93	-9.20016e-07
1456.49	-1.65774e-06
1465.05	-1.11724e-06
1473.6	-1.55535e-06
1482.16	-8.48879e-08
1490.72	-7.5331e-07
1499.28	2.57567e-09
1507.83	3.18117e-07
1516.39	7.63431e-07
1524.95	1.31443e-06
1533.51	1.66278e-06
1542.06	1.75463e-06
1550.62	6.3574e-06
1559.18	8.68565e-06
1567.74	9.78475e-06
1576.29	5.84061e-06
1584.85	7.99326e-06
1593.41	7.23913e-06
1601.97	5.85121e-06
1610.53	2.77496e-06
1619.08	7.36212e-07
1627.64	-5.25451e-07
1636.2	-5.28412e-07
1644.76	-1.75939e-07
1653.31	-4.49207e-06
1661.87	-3.61721e-07
1670.43	-3.39879e-07
1678.99	-3.35703e-07
1687.54	-3.32538e-07
1696.1	-2.88569e-06
1704.66	-6.46151e-07
1713.22	-3.64377e-07
1721.77	-4.01106e-07
1730.33	-4.80406e-07
1738.89	-3.34793e-07
1747.45	-3.332e-07
1756.01	-3.39282e-07
1764.56	-2.48319e-07
1773.12	-2.42942e-07
1781.68	8.82203e-08
1790.24	6.61379e-09
1798.79	1.29016e-07
1807.35	-2.50291e-09
1815.91	-2.76273e-07
1824.47	-2.81948e-07
1833.02	-2.36452e-07
1841.58	-2.99185e-07
1850.14	-1.76382e-07
1858.7	-2.53107e-07
1867.25	-2.45365e-07
1875.81	-2.10666e-07
1884.37	-2.50975e-07
1892.93	-2.78594e-07
1901.49	-3.81876e-07
1910.04	-4.89057e-07
1918.6	-3.29627e-07
1927.16	-4.08273e-07
1935.72	-3.77976e-07
1944.27	-4.74149e-07
1952.83	-3.53238e-07
1961.39	-3.40439e-07
1969.95	-2.47046e-07
1978.5	-2.88439e-07
1987.06	-2.73799e-07
1995.62	-2.72868e-07
2004.18	-2.465e-07
2012.73	-2.23203e-07
2021.29	-1.50415e-07
2029.85	-2.84611e-07
2038.41	-2.6891e-07
2046.97	-2.68743e-07
2055.52	-2.63759e-07
2064.08	-3.15177e-07
2072.64	-3.70351e-07
2081.2	-3.77437e-07
2089.75	-3.44005e-07
2098.31	-2.76601e-07
2106.87	-3.38904e-07
2115.43	-4.22148e-08
2123.98	-1.90614e-07
2132.54	-3.13519e-07
2141.1	-3.66756e-07
2149.66	-3.05377e-07
2158.21	4.47548e-07
2166.77	-1.93961e-07
2175.33	-2.3579e-07
2183.89	3.52226e-08
2192.45	7.18837e-07
2201	3.20256e-07
2209.56	1.91043e-06
2218.12	-2.02416e-08
2226.68	2.01761e-08
2235.23	5.99527e-07
2243.79	1.22824e-06
2252.35	-1.28667e-07
2260.91	-3.12805e-07
2269.46	-3.1939e-07
2278.02	-2.73778e-07
2286.58	-3.55457e-07
2295.14	-1.84553e-07
2303.69	-1.38344e-07
2312.25	-1.69026e-07
2320.81	-2.84197e-08
2329.37	7.54584e-08
2337.93	3.09153e-08
2346.48	-6.664e-08
2355.04	-3.25211e-07
2363.6	-3.17055e-07
2372.16	-1.72039e-07
2380.71	-2.11772e-07
2389.27	-2.73952e-07
2397.83	-2.4706e-07
2406.39	-4.08731e-07
2414.94	-3.22955e-07
2423.5	-3.91487e-07
2432.06	-3.80289e-07
2440.62	-4.35477e-07
2449.17	-4.42506e-07
2457.73	-2.25691e-07
2466.29	-3.98356e-07
2474.85	-5.44732e-07
2483.41	-4.76601e-07
2491.96	-4.45612e-07
2500.52	-3.75633e-07
2509.08	-6.62631e-07
2517.64	-5.75655e-07
2526.19	-5.08593e-07
2534.75	-5.61299e-07
2543.31	-6.20249e-07
2551.87	-6.50713e-07
2560.42	-4.60572e-07
2568.98	-5.19296e-07
2577.54	-4.34495e-07
2586.1	-5.40221e-07
2594.65	-5.09291e-07
2603.21	-4.27918e-07
2611.77	-5.56264e-07
2620.33	-5.8189e-07
2628.89	-4.92011e-07
2637.44	-5.79715e-07
2646	-5.73494e-07
2654.56	-5.67069e-07
2663.12	-5.74636e-07
2671.67	-5.35586e-07
2680.23	-6.69252e-07
2688.79	-6.66414e-07
2697.35	-6.62114e-07
2705.9	-6.00793e-07
2714.46	-6.33731e-07
2723.02	-8.10812e-07
2731.58	-7.20321e-07
2740.13	-5.27517e-07
2748.69	-5.62565e-07
2757.25	-5.83149e-07
2765.81	-6.40679e-07
2774.37	-6.87471e-07
2782.92	-6.6632e-07
2791.48	-6.36576e-07
2800.04	-5.95292e-07
2808.6	-6.19507e-07
2817.15	-6.46413e-07
2825.71	-5.094e-07
2834.27	-6.01528e-07
2842.83	-7.11015e-07
2851.38	-5.88235e-07
2859.94	-5.16778e-07
2868.5	-5.49672e-07
2877.06	-4.74352e-07
2885.61	-4.5486e-07
2894.17	-5.15003e-07
2902.73	-4.80006e-07
2911.29	-6.18029e-07
2919.85	-7.43924e-07
2928.4	-7.24185e-07
2936.96	-5.4439e-07
2945.52	-5.66385e-07
2954.08	-6.06985e-07
2962.63	-1.37018e-06
2971.19	-6.0948e-07
2979.75	-7.26775e-07
2988.31	-5.12267e-07
2996.86	-6.61627e-07
3005.42	-5.58549e-07
3013.98	-5.70169e-07
3022.54	-5.19055e-07
3031.09	-6.91727e-07
3039.65	-8.35404e-07
3048.21	-5.41793e-07
3056.77	-6.42506e-07
3065.33	-5.29569e-07
3073.88	-6.67433e-07
3082.44	-4.5334e-07
3091	-2.42477e-07
3099.56	-1.48596e-07
3108.11	-3.25975e-07
3116.67	-1.92498e-07
3125.23	-1.86845e-08
3133.79	1.06075e-07
3142.34	2.65447e-07
3150.9	3.24934e-07
3159.46	4.24774e-07
3168.02	2.33011e-07
3176.57	3.91618e-07
3185.13	3.30311e-07
3193.69	4.43372e-07
3202.25	3.3456e-07
3210.81	6.07509e-07
3219.36	4.11452e-07
3227.92	4.44972e-07
3236.48	4.19201e-07
3245.04	5.73938e-07
3253.59	3.92506e-07
3262.15	6.01244e-07
3270.71	3.77983e-07
3279.27	2.64341e-07
3287.82	6.82625e-08
3296.38	-3.12864e-10
3304.94	-1.66182e-08
3313.5	-7.42506e-08
3322.05	2.32101e-08
3330.61	-3.40512e-08
3339.17	-2.83767e-07
3347.73	-2.96398e-07
3356.29	-1.96035e-07
3364.84	-3.38664e-07
3373.4	-1.42171e-07
3381.96	-2.93968e-07
3390.52	-3.03056e-07
3399.07	-4.3611e-07
3407.63	-3.05057e-07
3416.19	-5.14581e-07
3424.75	-5.3862e-07
3433.3	-5.90396e-07
3441.86	-4.66553e-07
3450.42	-2.1485e-07
3458.98	-5.20474e-07
3467.53	-5.37842e-07
3476.09	-5.22119e-07
3484.65	-6.14675e-07
3493.21	-6.13489e-07
3501.77	-9.03681e-07
3510.32	-7.48028e-07
3518.88	-9.94514e-07
3527.44	-7.9415e-07
3536	-7.38286e-07
3544.55	-8.58833e-07
3553.11	-8.71522e-07
3561.67	-1.00724e-06
3570.23	-9.39224e-07
3578.78	-6.41109e-07
3587.34	-9.04511e-07
3595.9	-8.07807e-07
3604.46	-7.23566e-07
3613.01	-1.34144e-06
3621.57	-8.44281e-07
3630.13	-8.72635e-07
3638.69	-8.19259e-07
3647.25	-1.49284e-06
3655.8	-1.02957e-06
3664.36	-9.63009e-07
3672.92	-9.4992e-07
3681.48	-1.08629e-06
3690.03	-1.1329e-06
3698.59	-9.40796e-07
3707.15	-1.19932e-06
3715.71	-1.24677e-06
3724.26	-1.42216e-06
3732.82	-1.32157e-06
3741.38	-1.47214e-06
3749.94	-1.49142e-06
3758.49	-1.35874e-06
3767.05	-1.33268e-06
3775.61	-1.28816e-06
3784.17	-1.41576e-06
3792.73	-1.12031e-06
3801.28	-3.55038e-06
3809.84	-1.12529e-06
3818.4	-1.39384e-06
3826.96	-1.27886e-06
3835.51	-1.39019e-06
3844.07	-1.32117e-06
3852.63	-1.51051e-06
3861.19	-1.4599e-06
3869.74	-1.74466e-06
3878.3	-1.34586e-06
3886.86	-1.54537e-06
3895.42	-1.55672e-06
3903.97	-2.05813e-06
3912.53	-1.39659e-06
3921.09	-1.44681e-06
3929.65	-1.29904e-06
3938.21	-1.52811e-06
3946.76	-1.64753e-06
3955.32	-1.4555e-06
3963.88	-1.55895e-06
3972.44	-1.66489e-06
