Infrared Spectrum: Carbon tetrachloride
Formula: C Cl4
CAS: 56-23-5
State: gas
Melting point: -22.99 C
Boiling point: 76.54 C
Class: IUPAC A
Instrument: IFS66V (Bruker)
Instrument parameters: KBr Beam Splitter; MCT Detector; Multipass cell
Sampling: 1 L/min Flow
Resolution: 0.4820
Temperature: 23 C
Pressure: 101.3 Pa
Origin: NIST, Analytical Chemistry Division, 301-975-3108
cm-1	(micromol/mol)-1m-1 (base 10)
575.17	-5.75305e-07
583.848	2.25546e-07
592.526	-3.40512e-07
601.205	4.60805e-07
609.883	-2.02627e-07
618.561	1.0774e-06
627.239	1.46505e-06
635.917	4.78936e-07
644.595	4.20038e-08
653.274	-4.77808e-08
661.952	-2.41327e-07
670.63	1.28158e-07
679.308	3.83651e-07
687.986	-9.49942e-08
696.664	7.14704e-07
705.343	4.57538e-07
714.021	5.22519e-07
722.699	1.26304e-06
731.377	4.3604e-06
740.055	2.12749e-05
748.734	0.000103186
757.412	0.000303247
766.09	0.000506664
774.768	0.00064726
783.446	0.000621293
792.124	0.00379426
800.803	0.00174417
809.481	0.000110004
818.159	1.59025e-05
826.837	3.21301e-06
835.515	8.33731e-07
844.193	2.64966e-07
852.872	5.33127e-07
861.55	4.1592e-07
870.228	7.65905e-07
878.906	7.26695e-07
887.584	5.31694e-07
896.263	5.26251e-07
904.941	3.59189e-07
913.619	2.34015e-07
922.297	-3.96755e-08
930.975	6.98705e-08
939.653	3.29016e-08
948.332	1.59648e-07
957.01	3.57669e-07
965.688	9.13977e-07
974.366	2.07031e-06
983.044	2.29132e-06
991.723	2.14501e-06
1000.4	4.18492e-06
1009.08	5.25116e-06
1017.76	4.65981e-06
1026.44	1.70097e-06
1035.11	3.00276e-08
1043.79	4.61001e-08
1052.47	1.83797e-07
1061.15	3.91982e-07
1069.83	5.41793e-07
1078.5	6.78194e-07
1087.18	8.53099e-08
1095.86	1.06956e-08
1104.54	4.45809e-07
1113.22	4.8448e-07
1121.9	2.426e-07
1130.57	2.29846e-08
1139.25	-1.66116e-07
1147.93	-2.49491e-07
1156.61	-4.79336e-08
1165.29	-1.63984e-07
1173.96	1.92739e-08
1182.64	1.52357e-08
1191.32	3.71566e-07
1200	4.97235e-07
1208.68	1.24034e-06
1217.36	2.06541e-06
1226.03	2.81189e-06
1234.71	1.81896e-06
1243.39	2.25874e-06
1252.07	5.52692e-06
1260.75	4.94907e-06
1269.42	1.74472e-06
1278.1	1.0049e-06
1286.78	4.96806e-07
1295.46	1.90541e-07
1304.14	-1.20962e-07
1312.82	-2.00349e-07
1321.49	-2.24418e-07
1330.17	-3.58454e-07
1338.85	-3.61801e-07
1347.53	-3.67877e-07
1356.21	2.48225e-07
1364.88	1.68801e-09
1373.56	-1.96711e-07
1382.24	-9.2695e-09
1390.92	8.09007e-08
1399.6	-3.16014e-07
1408.28	-2.73501e-07
1416.95	-2.46988e-07
1425.63	-2.26346e-07
1434.31	-2.82807e-07
1442.99	-1.84742e-07
1451.67	-1.74432e-07
1460.34	-9.0665e-08
1469.02	-4.70387e-08
1477.7	-8.90061e-08
1486.38	-6.63489e-08
1495.06	-9.98545e-08
1503.73	2.90898e-07
1512.41	1.5553e-07
1521.09	-7.05064e-07
1529.77	1.77802e-06
1538.45	2.82754e-06
1547.13	5.43606e-06
1555.8	8.11744e-06
1564.48	9.73425e-06
1573.16	8.95941e-06
1581.84	8.34285e-06
1590.52	7.59828e-06
1599.19	6.66871e-06
1607.87	3.82293e-06
1616.55	-9.63926e-07
1625.23	1.82436e-07
1633.91	-1.89552e-07
1642.59	-9.18801e-08
1651.26	-2.91378e-07
1659.94	-2.35921e-07
1668.62	-3.91895e-07
1677.3	-3.56897e-07
1685.98	-3.92709e-07
1694.65	-3.47293e-07
1703.33	-4.15352e-07
1712.01	-3.28369e-07
1720.69	-3.11874e-07
1729.37	-3.05391e-07
1738.05	-4.40468e-07
1746.72	-3.16815e-07
1755.4	-3.02335e-07
1764.08	-1.36452e-07
1772.76	-1.88943e-06
1781.44	7.7241e-08
1790.11	3.42622e-08
1798.79	1.57742e-07
1807.47	-6.83353e-08
1816.15	-2.40228e-07
1824.83	-5.1469e-07
1833.51	-2.73778e-07
1842.18	-3.84611e-07
1850.86	-2.50771e-07
1859.54	-3.04635e-07
1868.22	-3.48661e-07
1876.9	-2.40701e-07
1885.57	-3.98901e-07
1894.25	-3.38489e-07
1902.93	-2.95642e-07
1911.61	-2.54482e-07
1920.29	-2.4327e-07
1928.97	-3.39326e-07
1937.64	-3.37231e-07
1946.32	-3.03994e-07
1955	-1.94914e-07
1963.68	-3.48938e-07
1972.36	-3.40061e-07
1981.03	-2.43233e-07
1989.71	-2.77714e-07
1998.39	-1.60608e-07
2007.07	-2.81628e-07
2015.75	-2.21558e-07
2024.43	-1.33658e-07
2033.1	-2.34124e-07
2041.78	-2.33345e-07
2050.46	-3.43575e-07
2059.14	-2.63504e-07
2067.82	-3.64734e-07
2076.49	-3.09553e-07
2085.17	-3.97017e-07
2093.85	-3.26724e-07
2102.53	-3.83731e-07
2111.21	-1.71828e-07
2119.89	8.2043e-08
2128.56	-2.69143e-07
2137.24	-1.92047e-07
2145.92	-2.77903e-07
2154.6	1.06366e-07
2163.28	-2.58833e-07
2171.95	-2.15752e-07
2180.63	-1.61227e-07
2189.31	1.79635e-07
2197.99	2.62886e-07
2206.67	1.13148e-06
2215.35	5.26171e-07
2224.02	-1.35841e-07
2232.7	9.09153e-07
2241.38	6.98865e-07
2250.06	7.18641e-08
2258.74	-3.3042e-07
2267.41	-4.11052e-07
2276.09	-3.78019e-07
2284.77	-2.94994e-07
2293.45	-3.23923e-07
2302.13	-2.5745e-07
2310.81	3.41967e-10
2319.48	1.41807e-08
2328.16	1.25175e-07
2336.84	1.18554e-07
2345.52	6.32203e-08
2354.2	-3.14966e-07
2362.87	-5.0518e-07
2371.55	-3.25415e-07
2380.23	-2.89188e-07
2388.91	-2.70845e-07
2397.59	-3.56395e-07
2406.27	-3.59517e-07
2414.94	-3.51972e-07
2423.62	-3.50473e-07
2432.3	-3.57552e-07
2440.98	-4.14777e-07
2449.66	-4.03536e-07
2458.33	-4.48494e-07
2467.01	-4.15607e-07
2475.69	-4.30995e-07
2484.37	-3.31941e-07
2493.05	-5.10375e-07
2501.73	-3.80872e-07
2510.4	-4.71456e-07
2519.08	-5.1672e-07
2527.76	-5.06803e-07
2536.44	-5.12376e-07
2545.12	-4.91429e-07
2553.79	-5.56832e-07
2562.47	-5.62944e-07
2571.15	-4.91138e-07
2579.83	-4.91975e-07
2588.51	-6.0195e-07
2597.19	-5.45678e-07
2605.86	-5.54751e-07
2614.54	-5.33913e-07
2623.22	-5.5561e-07
2631.9	-4.11867e-07
2640.58	-6.00538e-07
2649.25	-6.34015e-07
2657.93	-5.21595e-07
2666.61	-5.99789e-07
2675.29	-4.59408e-07
2683.97	-5.84742e-07
2692.65	-4.98545e-07
2701.32	-5.6461e-07
2710	-5.82501e-07
2718.68	-6.77852e-07
2727.36	-5.34779e-07
2736.04	-6.1816e-07
2744.71	-6.99454e-07
2753.39	-6.02612e-07
2762.07	-6.49578e-07
2770.75	-5.87216e-07
2779.43	-5.95911e-07
2788.11	-6.18044e-07
2796.78	-4.59473e-07
2805.46	-5.78201e-07
2814.14	-5.48843e-07
2822.82	-5.08032e-07
2831.5	-5.89544e-07
2840.17	-5.91392e-07
2848.85	-5.77823e-07
2857.53	-4.28121e-07
2866.21	-6.43139e-07
2874.89	-6.81752e-07
2883.57	-5.27073e-07
2892.24	-6.57363e-07
2900.92	-6.63868e-07
2909.6	-5.82974e-07
2918.28	-7.30275e-07
2926.96	-7.15541e-07
2935.63	-7.38009e-07
2944.31	-7.80449e-07
2952.99	-6.47548e-07
2961.67	7.47671e-08
2970.35	-6.88868e-07
2979.03	-6.24629e-07
2987.7	-5.26812e-07
2996.38	-6.38657e-07
3005.06	-5.81519e-07
3013.74	-6.0363e-07
3022.42	-6.00422e-07
3031.09	-6.33192e-07
3039.77	-7.25982e-07
3048.45	-5.49978e-07
3057.13	-7.22984e-07
3065.81	-6.54322e-07
3074.49	-4.72853e-07
3083.16	-4.01186e-07
3091.84	-4.176e-07
3100.52	-3.65163e-07
3109.2	-4.36117e-08
3117.88	3.12864e-10
3126.55	1.80006e-08
3135.23	1.34117e-07
3143.91	7.37922e-08
3152.59	1.95198e-07
3161.27	2.86678e-07
3169.95	4.215e-07
3178.62	3.54467e-07
3187.3	3.91298e-07
3195.98	4.10106e-07
3204.66	5.21609e-07
3213.34	5.1736e-07
3222.01	4.18692e-07
3230.69	3.46762e-07
3239.37	5.77343e-07
3248.05	4.93597e-07
3256.73	4.34451e-07
3265.4	4.71871e-07
3274.08	2.93197e-07
3282.76	6.94848e-08
3291.44	1.21289e-07
3300.12	2.09801e-07
3308.8	-1.67047e-07
3317.47	-7.64988e-08
3326.15	-1.73094e-08
3334.83	-1.96558e-07
3343.51	-2.95249e-07
3352.19	-1.33556e-07
3360.86	-3.31519e-07
3369.54	-1.83673e-07
3378.22	-1.57276e-07
3386.9	-1.78616e-07
3395.58	-4.36074e-07
3404.26	-3.84626e-07
3412.93	-3.61409e-07
3421.61	-4.39697e-07
3430.29	-3.46136e-07
3438.97	-4.52656e-07
3447.65	-4.22017e-07
3456.32	-3.68051e-07
3465	-6.45278e-07
3473.68	-6.3424e-07
3482.36	-6.59298e-07
3491.04	-6.59888e-07
3499.72	-6.97759e-07
3508.39	-7.38693e-07
3517.07	-5.48123e-07
3525.75	-9.13569e-07
3534.43	-6.15294e-07
3543.11	-8.35521e-07
3551.78	-9.08185e-07
3560.46	-9.24192e-07
3569.14	-8.26164e-07
3577.82	-7.66436e-07
3586.5	-1.32667e-06
3595.18	-1.0729e-06
3603.85	-8.2938e-07
3612.53	-1.49066e-06
3621.21	-1.1143e-06
3629.89	-1.55273e-06
3638.57	-7.85463e-07
3647.24	-1.51371e-06
3655.92	-1.21465e-06
3664.6	-1.04008e-06
3673.28	-1.13885e-06
3681.96	-1.06296e-06
3690.64	-1.26614e-06
3699.31	-1.10802e-06
3707.99	-1.17139e-06
3716.67	-9.97031e-07
3725.35	-1.23792e-06
3734.03	-1.32507e-06
3742.7	-1.21534e-06
3751.38	-1.37146e-06
3760.06	-1.72779e-06
3768.74	-1.14926e-06
3777.42	-1.12942e-06
3786.1	-1.27165e-06
3794.77	-1.22079e-06
3803.45	-1.20674e-06
3812.13	-1.27146e-06
3820.81	-2.2996e-06
3829.49	-1.07202e-06
3838.16	-2.57395e-06
3846.84	-1.23882e-06
3855.52	-1.4357e-06
3864.2	-1.33058e-06
3872.88	-1.27163e-06
3881.56	-1.47918e-06
3890.23	-1.23442e-06
3898.91	-1.70282e-06
3907.59	-1.31458e-06
3916.27	-1.59518e-06
3924.95	-1.4691e-06
3933.62	-1.30148e-06
3942.3	-1.3022e-06
3950.98	-1.29836e-06
3959.66	-1.40485e-06
3968.34	-1.46345e-06
