Infrared Spectrum: Carbon tetrachloride
Formula: C Cl4
CAS: 56-23-5
State: gas
Melting point: -22.99 C
Boiling point: 76.54 C
Class: IUPAC A
Instrument: IFS66V (Bruker)
Instrument parameters: KBr Beam Splitter; MCT Detector; Multipass cell
Sampling: 1 L/min Flow
Resolution: 1.9290
Temperature: 23 C
Pressure: 101.3 Pa
Origin: NIST, Analytical Chemistry Division, 301-975-3108
cm-1	(micromol/mol)-1m-1 (base 10)
575.652	6.73676e-08
584.33	4.87653e-07
593.008	6.84589e-08
601.687	1.87806e-07
610.365	1.52539e-07
619.043	8.43772e-07
627.721	1.47079e-06
636.399	6.63417e-07
645.077	2.86176e-07
653.756	3.51732e-07
662.434	3.84117e-07
671.112	6.10281e-07
679.79	6.52117e-07
688.468	9.30377e-07
697.146	1.30552e-06
705.825	1.47414e-06
714.503	1.83835e-06
723.181	3.19335e-06
731.859	7.61271e-06
740.537	2.8099e-05
749.216	0.000115783
757.894	0.000327561
766.572	0.000527093
775.25	0.00067664
783.928	0.000628348
792.606	0.00413328
801.285	0.00156442
809.963	0.000128227
818.641	2.63226e-05
827.319	9.26262e-06
835.997	4.70434e-06
844.676	3.0663e-06
853.354	2.38347e-06
862.032	1.85721e-06
870.71	1.78577e-06
879.388	1.64881e-06
888.066	1.35675e-06
896.745	1.06246e-06
905.423	8.47053e-07
914.101	6.53572e-07
922.779	5.29525e-07
931.457	4.43612e-07
940.135	4.17324e-07
948.814	5.00247e-07
957.492	6.0171e-07
966.17	1.19508e-06
974.848	2.29556e-06
983.526	2.62309e-06
992.205	2.55362e-06
1000.88	4.32132e-06
1009.56	5.3594e-06
1018.24	4.54256e-06
1026.92	1.75567e-06
1035.6	2.40119e-07
1044.27	6.96522e-08
1052.95	2.20998e-07
1061.63	4.11772e-07
1070.31	5.60419e-07
1078.99	5.61161e-07
1087.66	1.68772e-07
1096.34	2.32909e-07
1105.02	4.19834e-07
1113.7	5.87034e-07
1122.38	3.36452e-07
1131.06	-2.32101e-08
1139.73	-2.12798e-07
1148.41	-1.77743e-07
1157.09	-7.00305e-08
1165.77	8.97118e-09
1174.45	9.88431e-08
1183.12	1.61394e-07
1191.8	3.7468e-07
1200.48	6.58323e-07
1209.16	1.35327e-06
1217.84	2.11198e-06
1226.52	2.38858e-06
1235.19	1.94415e-06
1243.87	2.53023e-06
1252.55	5.62076e-06
1261.23	5.25729e-06
1269.91	1.66908e-06
1278.58	1.18117e-06
1287.26	5.68954e-07
1295.94	1.09524e-07
1304.62	-4.35463e-08
1313.3	-1.33629e-07
1321.98	-1.81796e-07
1330.65	-2.30442e-07
1339.33	-2.67862e-07
1348.01	-2.73574e-07
1356.69	2.27459e-07
1365.37	2.6346e-08
1374.04	-5.62427e-08
1382.72	4.19819e-08
1391.4	1.6509e-08
1400.08	-2.0908e-07
1408.76	-1.77146e-07
1417.44	-3.02408e-07
1426.11	-2.00822e-07
1434.79	-2.47453e-07
1443.47	-1.46486e-07
1452.15	-2.73683e-07
1460.83	-1.94296e-07
1469.5	-1.65381e-07
1478.18	-1.371e-07
1486.86	-2.7775e-07
1495.54	-3.80581e-07
1504.22	1.23603e-07
1512.9	5.64755e-07
1521.57	3.66727e-07
1530.25	1.81086e-06
1538.93	2.08482e-06
1547.61	5.47381e-06
1556.29	7.99437e-06
1564.96	9.80217e-06
1573.64	8.77153e-06
1582.32	8.19672e-06
1591	7.68061e-06
1599.68	6.45194e-06
1608.36	3.63656e-06
1617.03	3.93146e-07
1625.71	1.33098e-07
1634.39	-4.73428e-07
1643.07	-1.27736e-07
1651.75	-9.64362e-07
1660.42	-2.64559e-07
1669.1	-7.17986e-07
1677.78	-3.32698e-07
1686.46	-4.15861e-07
1695.14	-1.09963e-06
1703.82	-5.13213e-07
1712.49	-3.5211e-07
1721.17	-3.29358e-07
1729.85	-4.39639e-07
1738.53	-4.16516e-07
1747.21	-3.95882e-07
1755.88	-3.52088e-07
1764.56	-2.07232e-07
1773.24	-4.49716e-07
1781.92	8.6023e-08
1790.6	-1.17404e-07
1799.28	3.02023e-08
1807.95	1.08993e-08
1816.63	-2.26739e-07
1825.31	-4.3993e-07
1833.99	-3.0211e-07
1842.67	-3.43226e-07
1851.34	-2.57829e-07
1860.02	-2.54198e-07
1868.7	-4.06483e-07
1877.38	-2.60012e-07
1886.06	-3.72315e-07
1894.74	-3.81221e-07
1903.41	-3.48698e-07
1912.09	-2.25429e-07
1920.77	-3.48145e-07
1929.45	-3.36983e-07
1938.13	-3.37303e-07
1946.8	-3.17273e-07
1955.48	-2.91756e-07
1964.16	-3.33469e-07
1972.84	-3.45649e-07
1981.52	-2.44194e-07
1990.19	-2.63926e-07
1998.87	-1.92157e-07
2007.55	-2.47904e-07
2016.23	-1.91858e-07
2024.91	-2.1971e-07
2033.59	-2.73028e-07
2042.26	-2.79867e-07
2050.94	-2.60979e-07
2059.62	-2.75931e-07
2068.3	-3.14814e-07
2076.98	-2.96224e-07
2085.65	-2.76652e-07
2094.33	-2.37529e-07
2103.01	-2.2914e-07
2111.69	-1.20991e-07
2120.37	-1.70234e-07
2129.05	-2.56963e-07
2137.72	-2.37376e-07
2146.4	-2.19434e-07
2155.08	-1.7986e-07
2163.76	-2.71966e-07
2172.44	-4.19819e-08
2181.11	-1.45365e-07
2189.79	1.1982e-07
2198.47	3.22577e-07
2207.15	6.36503e-07
2215.83	6.33265e-07
2224.51	-2.40614e-08
2233.18	9.5072e-07
2241.86	8.31403e-07
2250.54	7.719e-08
2259.22	-3.0374e-07
2267.9	-3.50677e-07
2276.57	-3.31977e-07
2285.25	-2.91909e-07
2293.93	-3.12638e-07
2302.61	-2.07225e-07
2311.29	-8.78783e-08
2319.97	-1.0521e-08
2328.64	6.65308e-08
2337.32	4.60928e-08
2346	1.33513e-08
2354.68	-2.69659e-07
2363.36	-3.62296e-07
2372.03	-2.4765e-07
2380.71	-2.4108e-07
2389.39	-2.64552e-07
2398.07	-3.30129e-07
2406.75	-3.33818e-07
2415.43	-3.42207e-07
2424.1	-3.74149e-07
2432.78	-3.80246e-07
2441.46	-3.78085e-07
2450.14	-4.04766e-07
2458.82	-4.25844e-07
2467.49	-4.22904e-07
2476.17	-4.05086e-07
2484.85	-3.48356e-07
2493.53	-4.20947e-07
2502.21	-4.4928e-07
2510.89	-4.80093e-07
2519.56	-4.80115e-07
2528.24	-4.82152e-07
2536.92	-4.79824e-07
2545.6	-5.09742e-07
2554.28	-5.27772e-07
2562.95	-5.04584e-07
2571.63	-4.89253e-07
2580.31	-4.90214e-07
2588.99	-5.19434e-07
2597.67	-5.37434e-07
2606.35	-5.14421e-07
2615.02	-4.84087e-07
2623.7	-5.21995e-07
2632.38	-4.90643e-07
2641.06	-5.57836e-07
2649.74	-5.52525e-07
2658.41	-5.35732e-07
2667.09	-5.70496e-07
2675.77	-5.25975e-07
2684.45	-5.9455e-07
2693.13	-5.9292e-07
2701.81	-5.42971e-07
2710.48	-6.16924e-07
2719.16	-5.92389e-07
2727.84	-5.60041e-07
2736.52	-5.65068e-07
2745.2	-5.94543e-07
2753.87	-5.72497e-07
2762.55	-5.69012e-07
2771.23	-5.5139e-07
2779.91	-5.93692e-07
2788.59	-5.70387e-07
2797.27	-5.23501e-07
2805.94	-5.7003e-07
2814.62	-5.5844e-07
2823.3	-5.27292e-07
2831.98	-5.77401e-07
2840.66	-6.11838e-07
2849.33	-5.28158e-07
2858.01	-4.85936e-07
2866.69	-5.99752e-07
2875.37	-5.95016e-07
2884.05	-5.50589e-07
2892.73	-6.02139e-07
2901.4	-6.55813e-07
2910.08	-6.03769e-07
2918.76	-6.71682e-07
2927.44	-7.5112e-07
2936.12	-6.56199e-07
2944.79	-6.28841e-07
2953.47	-6.73246e-07
2962.15	-5.6071e-07
2970.83	-6.80595e-07
2979.51	-6.07952e-07
2988.19	-5.5566e-07
2996.86	-6.03005e-07
3005.54	-5.71398e-07
3014.22	-6.03252e-07
3022.9	-5.91472e-07
3031.58	-5.37907e-07
3040.25	-5.96551e-07
3048.93	-5.81708e-07
3057.61	-5.2719e-07
3066.29	-5.24083e-07
3074.97	-4.41443e-07
3083.65	-4.41181e-07
3092.32	-3.80486e-07
3101	-3.40046e-07
3109.68	-1.60259e-07
3118.36	-6.37005e-08
3127.04	9.50233e-09
3135.71	1.67207e-07
3144.39	1.70023e-07
3153.07	3.09633e-07
3161.75	3.05319e-07
3170.43	3.66269e-07
3179.11	3.60994e-07
3187.78	4.09124e-07
3196.46	3.7847e-07
3205.14	4.43874e-07
3213.82	4.18735e-07
3222.5	3.91851e-07
3231.17	4.22955e-07
3239.85	4.27335e-07
3248.53	4.97722e-07
3257.21	4.48195e-07
3265.89	4.50466e-07
3274.57	3.22984e-07
3283.24	1.7022e-07
3291.92	1.04707e-07
3300.6	1.58047e-07
3309.28	-2.33193e-08
3317.96	-9.04976e-08
3326.63	-3.14683e-08
3335.31	-1.29125e-07
3343.99	-2.24243e-07
3352.67	-1.7914e-07
3361.35	-2.89195e-07
3370.03	-2.4116e-07
3378.7	-3.20292e-07
3387.38	-3.15119e-07
3396.06	-3.50975e-07
3404.74	-4.26142e-07
3413.42	-4.18393e-07
3422.09	-4.62092e-07
3430.77	-5.19441e-07
3439.45	-5.10768e-07
3448.13	-4.98028e-07
3456.81	-4.42768e-07
3465.49	-5.25429e-07
3474.16	-6.25102e-07
3482.84	-6.52044e-07
3491.52	-7.00793e-07
3500.2	-6.69514e-07
3508.88	-7.6616e-07
3517.55	-7.23887e-07
3526.23	-8.46726e-07
3534.91	-7.69099e-07
3543.59	-8.87303e-07
3552.27	-9.37158e-07
3560.95	-8.61023e-07
3569.62	-8.15214e-07
3578.3	-7.41392e-07
3586.98	-1.02392e-06
3595.66	-8.66647e-07
3604.34	-8.06344e-07
3613.01	-1.12616e-06
3621.69	-8.50509e-07
3630.37	-1.17135e-06
3639.05	-8.44848e-07
3647.73	-1.24602e-06
3656.41	-1.38792e-06
3665.08	-1.04146e-06
3673.76	-1.26988e-06
3682.44	-9.69899e-07
3691.12	-1.44076e-06
3699.8	-1.09712e-06
3708.47	-1.24977e-06
3717.15	-1.10992e-06
3725.83	-1.27406e-06
3734.51	-1.51537e-06
3743.19	-1.5149e-06
3751.87	-2.04775e-06
3760.54	-1.33369e-06
3769.22	-1.38445e-06
3777.9	-1.23335e-06
3786.58	-1.21128e-06
3795.26	-1.21945e-06
3803.93	-1.32057e-06
3812.61	-1.25861e-06
3821.29	-1.80361e-06
3829.97	-1.22913e-06
3838.65	-1.87249e-06
3847.33	-1.27151e-06
3856	-1.47686e-06
3864.68	-1.60778e-06
3873.36	-1.43149e-06
3882.04	-1.46294e-06
3890.72	-1.63807e-06
3899.39	-1.74446e-06
3908.07	-1.46413e-06
3916.75	-1.63046e-06
3925.43	-1.48685e-06
3934.11	-1.42077e-06
3942.79	-1.50616e-06
3951.46	-1.28925e-06
3960.14	-1.39962e-06
3968.82	-1.49106e-06
