Infrared Spectrum: Carbon tetrachloride
Formula: C Cl4
CAS: 56-23-5
State: gas
Melting point: -22.99 C
Boiling point: 76.54 C
Class: IUPAC A
Instrument: IFS66V (Bruker)
Instrument parameters: KBr Beam Splitter; MCT Detector; Multipass cell
Sampling: 1 L/min Flow
Resolution: 0.1250
Temperature: 23 C
Pressure: 101.3 Pa
Origin: NIST, Analytical Chemistry Division, 301-975-3108
cm-1	(micromol/mol)-1m-1 (base 10)
575.05	-1.82864e-06
583.608	8.89544e-07
592.165	5.86743e-07
600.723	-9.14995e-07
609.281	-2.26586e-07
617.838	-2.81461e-07
626.396	1.39544e-06
634.954	-5.82727e-07
643.511	2.03638e-07
652.069	1.51659e-07
660.626	8.40294e-08
669.184	-3.17651e-07
677.742	-1.72563e-07
686.299	-7.28441e-07
694.857	1.21617e-07
703.415	-7.25706e-07
711.972	9.10877e-07
720.53	6.90505e-07
729.088	3.1159e-06
737.645	1.31342e-05
746.203	6.49181e-05
754.761	0.000233959
763.318	0.000448654
771.876	0.00055381
780.434	0.000781743
788.991	0.00126773
797.549	0.00492238
806.106	0.000319042
814.664	2.98381e-05
823.222	6.42357e-06
831.779	1.21076e-06
840.337	5.18197e-07
848.895	5.5745e-07
857.452	7.86801e-07
866.01	3.25022e-07
874.568	9.98566e-07
883.125	7.45205e-07
891.683	5.53747e-07
900.241	3.89021e-07
908.798	3.64261e-07
917.356	-8.38329e-08
925.914	4.07014e-08
934.471	2.34408e-07
943.029	1.1314e-07
951.586	9.64493e-08
960.144	6.81825e-08
968.702	1.49466e-06
977.259	2.1883e-06
985.817	2.59801e-06
994.375	2.93702e-06
1002.93	4.50458e-06
1011.49	5.43407e-06
1020.05	4.11396e-06
1028.61	1.12728e-06
1037.16	-2.01819e-07
1045.72	8.63067e-08
1054.28	-2.16822e-08
1062.84	6.15148e-07
1071.39	5.53849e-07
1079.95	7.57203e-08
1088.51	-1.99571e-07
1097.07	7.75611e-09
1105.62	2.65367e-07
1114.18	5.67949e-07
1122.74	-7.11365e-08
1131.3	-1.29722e-07
1139.85	-3.35172e-07
1148.41	-1.96849e-07
1156.97	-9.99054e-08
1165.53	2.33011e-07
1174.09	-6.70038e-08
1182.64	7.70736e-08
1191.2	1.53791e-07
1199.76	3.9009e-07
1208.32	1.27871e-06
1216.87	1.83824e-06
1225.43	2.69825e-06
1233.99	1.52381e-06
1242.55	1.99924e-06
1251.1	5.22929e-06
1259.66	5.83157e-06
1268.22	1.98878e-06
1276.78	1.34307e-06
1285.33	5.62835e-07
1293.89	4.19288e-07
1302.45	2.43895e-07
1311.01	-6.81024e-08
1319.57	-4.99381e-07
1328.12	-1.11321e-07
1336.68	-3.90454e-07
1345.24	-2.30733e-07
1353.8	-1.30333e-07
1362.35	-1.13831e-07
1370.91	2.74469e-07
1379.47	-1.65287e-07
1388.03	2.83796e-07
1396.58	-3.8053e-08
1405.14	-5.81956e-07
1413.7	-1.36125e-07
1422.26	-1.41975e-07
1430.81	-1.98537e-07
1439.37	-1.88075e-07
1447.93	-1.08852e-06
1456.49	-2.27303e-06
1465.05	-1.09133e-06
1473.6	-1.52792e-06
1482.16	-6.62325e-08
1490.72	-7.55129e-07
1499.28	5.68539e-08
1507.83	3.72613e-07
1516.39	7.96209e-07
1524.95	1.34392e-06
1533.51	1.65751e-06
1542.06	1.64414e-06
1550.62	6.37698e-06
1559.18	8.68816e-06
1567.74	9.70412e-06
1576.29	5.86938e-06
1584.85	8.02629e-06
1593.41	7.27346e-06
1601.97	5.80185e-06
1610.53	2.79559e-06
1619.08	7.28965e-07
1627.64	-4.43357e-07
1636.2	-4.71398e-07
1644.76	-1.00029e-07
1653.31	-5.5447e-06
1661.87	-2.55057e-07
1670.43	-3.36234e-07
1678.99	-3.63635e-07
1687.54	-4.05813e-07
1696.1	-2.25527e-06
1704.66	-5.85863e-07
1713.22	-4.72293e-07
1721.77	-5.21704e-07
1730.33	-4.56534e-07
1738.89	-3.8221e-07
1747.45	-2.93131e-07
1756.01	-3.66051e-07
1764.56	-2.06148e-07
1773.12	-3.18161e-07
1781.68	7.59458e-08
1790.24	9.41647e-08
1798.79	1.19543e-07
1807.35	4.05559e-08
1815.91	-3.81701e-07
1824.47	-3.21406e-07
1833.02	-1.7663e-07
1841.58	-3.35943e-07
1850.14	-1.4479e-07
1858.7	-2.99665e-07
1867.25	-2.44929e-07
1875.81	-2.1039e-07
1884.37	-2.08484e-07
1892.93	-2.91662e-07
1901.49	-3.44259e-07
1910.04	-4.297e-07
1918.6	-4.23916e-07
1927.16	-4.47875e-07
1935.72	-3.48392e-07
1944.27	-4.39275e-07
1952.83	-3.04598e-07
1961.39	-2.50335e-07
1969.95	-1.86016e-07
1978.5	-2.61299e-07
1987.06	-3.12653e-07
1995.62	-1.87616e-07
2004.18	-2.01426e-07
2012.73	-2.01222e-07
2021.29	-1.39566e-07
2029.85	-2.64312e-07
2038.41	-2.76943e-07
2046.97	-2.97228e-07
2055.52	-2.35223e-07
2064.08	-4.2556e-07
2072.64	-3.94812e-07
2081.2	-2.94754e-07
2089.75	-4.11721e-07
2098.31	-1.8678e-07
2106.87	-3.89792e-07
2115.43	-3.05602e-07
2123.98	-1.16393e-07
2132.54	-3.12645e-07
2141.1	-3.58942e-07
2149.66	-3.17637e-07
2158.21	4.86074e-07
2166.77	-1.20714e-07
2175.33	-1.62667e-07
2183.89	1.03834e-07
2192.45	1.1262e-06
2201	1.15825e-07
2209.56	2.70241e-06
2218.12	-1.84859e-07
2226.68	-5.84328e-08
2235.23	4.33746e-07
2243.79	1.71194e-06
2252.35	-2.14705e-07
2260.91	-3.32603e-07
2269.46	-3.22257e-07
2278.02	-3.17797e-07
2286.58	-3.99229e-07
2295.14	-1.00778e-07
2303.69	-9.40337e-08
2312.25	-1.61227e-07
2320.81	3.60666e-08
2329.37	1.81868e-07
2337.93	-1.46246e-08
2346.48	-1.14996e-07
2355.04	-2.32261e-07
2363.6	-2.69499e-07
2372.16	-1.67637e-07
2380.71	-2.72941e-07
2389.27	-2.56956e-07
2397.83	-1.47701e-07
2406.39	-5.04547e-07
2414.94	-2.4156e-07
2423.5	-3.99309e-07
2432.06	-3.54067e-07
2440.62	-4.6031e-07
2449.17	-4.11052e-07
2457.73	-1.2337e-07
2466.29	-3.94681e-07
2474.85	-5.8491e-07
2483.41	-4.99432e-07
2491.96	-4.32501e-07
2500.52	-4.23989e-07
2509.08	-6.55799e-07
2517.64	-6.71944e-07
2526.19	-4.67433e-07
2534.75	-5.53783e-07
2543.31	-6.51128e-07
2551.87	-6.44565e-07
2560.42	-4.02925e-07
2568.98	-4.86983e-07
2577.54	-5.23981e-07
2586.1	-6.03339e-07
2594.65	-4.43728e-07
2603.21	-3.62689e-07
2611.77	-5.42811e-07
2620.33	-5.34233e-07
2628.89	-4.43546e-07
2637.44	-5.21406e-07
2646	-6.41109e-07
2654.56	-5.80078e-07
2663.12	-4.76928e-07
2671.67	-5.27779e-07
2680.23	-7.38831e-07
2688.79	-6.13548e-07
2697.35	-6.55995e-07
2705.9	-6.92928e-07
2714.46	-7.43837e-07
2723.02	-9.43342e-07
2731.58	-7.51353e-07
2740.13	-4.81585e-07
2748.69	-6.51731e-07
2757.25	-4.88562e-07
2765.81	-6.20241e-07
2774.37	-7.51353e-07
2782.92	-7.32909e-07
2791.48	-7.30282e-07
2800.04	-4.5243e-07
2808.6	-5.29562e-07
2817.15	-5.20634e-07
2825.71	-2.77867e-07
2834.27	-6.53252e-07
2842.83	-9.16785e-07
2851.38	-6.54263e-07
2859.94	-6.11903e-07
2868.5	-6.29344e-07
2877.06	-4.30166e-07
2885.61	-4.97599e-07
2894.17	-4.28048e-07
2902.73	-3.54031e-07
2911.29	-5.9522e-07
2919.85	-8.2978e-07
2928.4	-6.62201e-07
2936.96	-5.79023e-07
2945.52	-5.65294e-07
2954.08	-5.52241e-07
2962.63	-1.16687e-06
2971.19	-5.38649e-07
2979.75	-5.5681e-07
2988.31	-4.42462e-07
2996.86	-5.7102e-07
3005.42	-5.77299e-07
3013.98	-5.29314e-07
3022.54	-4.57043e-07
3031.09	-8.13853e-07
3039.65	-8.41283e-07
3048.21	-5.75771e-07
3056.77	-6.83825e-07
3065.33	-4.91516e-07
3073.88	-7.87754e-07
3082.44	-5.69303e-07
3091	-9.46958e-08
3099.56	9.33935e-08
3108.11	-3.33316e-07
3116.67	-1.08484e-07
3125.23	-5.03201e-08
3133.79	1.96697e-07
3142.34	1.93524e-07
3150.9	4.66029e-07
3159.46	4.10579e-07
3168.02	1.85863e-07
3176.57	3.18655e-07
3185.13	2.47417e-07
3193.69	5.53383e-07
3202.25	2.5315e-07
3210.81	5.67768e-07
3219.36	5.71224e-07
3227.92	4.90185e-07
3236.48	3.48297e-07
3245.04	6.77808e-07
3253.59	4.41509e-07
3262.15	6.74512e-07
3270.71	4.20758e-07
3279.27	2.21289e-07
3287.82	9.49578e-08
3296.38	-3.3069e-08
3304.94	5.21682e-09
3313.5	-8.77474e-08
3322.05	2.74738e-08
3330.61	-1.98632e-08
3339.17	-2.26164e-07
3347.73	-3.78631e-07
3356.29	-1.31963e-07
3364.84	-6.65352e-07
3373.4	-3.00422e-08
3381.96	-7.51673e-08
3390.52	-4.41392e-07
3399.07	-4.39865e-07
3407.63	-3.57894e-07
3416.19	-3.56199e-07
3424.75	-5.84699e-07
3433.3	-5.74563e-07
3441.86	-4.37136e-07
3450.42	-1.33469e-07
3458.98	-6.50138e-07
3467.53	-6.4853e-07
3476.09	-5.91e-07
3484.65	-8.61728e-07
3493.21	-5.65468e-07
3501.77	-9.59204e-07
3510.32	-7.85695e-07
3518.88	-1.16518e-06
3527.44	-8.72511e-07
3536	-6.24018e-07
3544.55	-8.922e-07
3553.11	-7.41836e-07
3561.67	-1.03216e-06
3570.23	-7.27619e-07
3578.78	-6.29183e-07
3587.34	-7.82065e-07
3595.9	-1.01111e-06
3604.46	-6.49105e-07
3613.01	-1.57792e-06
3621.57	-7.82072e-07
3630.13	-7.9319e-07
3638.69	-9.04802e-07
3647.25	-1.41988e-06
3655.8	-1.06469e-06
3664.36	-7.38249e-07
3672.92	-8.83411e-07
3681.48	-1.04511e-06
3690.03	-9.62645e-07
3698.59	-1.10198e-06
3707.15	-1.16657e-06
3715.71	-1.29293e-06
3724.26	-1.4549e-06
3732.82	-1.41167e-06
3741.38	-1.6111e-06
3749.94	-1.52922e-06
3758.49	-1.22593e-06
3767.05	-1.49985e-06
3775.61	-1.1596e-06
3784.17	-1.53343e-06
3792.73	-9.14843e-07
3801.28	-3.56209e-06
3809.84	-1.28377e-06
3818.4	-1.4716e-06
3826.96	-1.17768e-06
3835.51	-1.27745e-06
3844.07	-1.30707e-06
3852.63	-1.46377e-06
3861.19	-1.48854e-06
3869.74	-1.72848e-06
3878.3	-1.27234e-06
3886.86	-1.55565e-06
3895.42	-1.56661e-06
3903.97	-1.94803e-06
3912.53	-1.30643e-06
3921.09	-1.38014e-06
3929.65	-1.09855e-06
3938.21	-1.56045e-06
3946.76	-1.66631e-06
3955.32	-1.40576e-06
3963.88	-1.54739e-06
3972.44	-1.58354e-06
