Infrared Spectrum: Carbon tetrachloride
Formula: C Cl4
CAS: 56-23-5
State: gas
Melting point: -22.99 C
Boiling point: 76.54 C
Class: IUPAC A
Instrument: IFS66V (Bruker)
Instrument parameters: KBr Beam Splitter; MCT Detector; Multipass cell
Sampling: 1 L/min Flow
Resolution: 1.9290
Temperature: 23 C
Pressure: 101.3 Pa
Origin: NIST, Analytical Chemistry Division, 301-975-3108
cm-1	(micromol/mol)-1m-1 (base 10)
575.652	-2.43197e-07
584.33	4.99629e-07
593.008	3.29089e-08
601.687	-4.3256e-07
610.365	4.13024e-07
619.043	2.71136e-07
627.721	1.73423e-06
636.399	-2.22512e-07
645.077	3.41858e-07
653.756	-7.64071e-07
662.434	5.98428e-07
671.112	-4.15119e-07
679.79	6.13817e-07
688.468	-6.43975e-07
697.146	1.48744e-06
705.825	-5.80158e-07
714.503	1.44219e-06
723.181	-9.42375e-08
731.859	6.23932e-06
740.537	2.12571e-05
749.216	0.000113806
757.894	0.000316563
766.572	0.000505788
775.25	0.000679715
783.928	0.000580689
792.606	0.00432675
801.285	0.00152884
809.963	9.89759e-05
818.641	1.23163e-05
827.319	4.76649e-06
835.997	-4.42775e-07
844.676	1.67939e-06
853.354	-3.42375e-07
862.032	1.29709e-06
870.71	6.80006e-08
879.388	1.41466e-06
888.066	1.94921e-08
896.745	9.64399e-07
905.423	-2.38388e-07
914.101	6.59211e-07
922.779	-2.3662e-07
931.457	5.0243e-07
940.135	-2.90148e-07
948.814	5.70743e-07
957.492	-1.78842e-08
966.17	1.27425e-06
974.848	1.8351e-06
983.526	2.69694e-06
992.205	1.90393e-06
1000.88	4.44318e-06
1009.56	4.9716e-06
1018.24	4.72501e-06
1026.92	1.33749e-06
1035.6	2.9992e-07
1044.27	-2.66727e-07
1052.95	3.79758e-07
1061.63	1.28391e-07
1070.31	5.84662e-07
1078.99	3.97599e-07
1087.66	2.39872e-07
1096.34	1.10012e-08
1105.02	5.36212e-07
1113.7	3.66356e-07
1122.38	3.75014e-07
1131.06	-1.27583e-07
1139.73	-1.22184e-07
1148.41	-3.08149e-07
1157.09	5.5195e-08
1165.77	-6.84444e-08
1174.45	1.38315e-07
1183.12	3.45969e-08
1191.8	4.27139e-07
1200.48	5.52845e-07
1209.16	1.45913e-06
1217.84	2.15385e-06
1226.52	2.42362e-06
1235.19	1.79672e-06
1243.87	2.54584e-06
1252.55	5.63395e-06
1261.23	5.18229e-06
1269.91	1.50702e-06
1278.58	1.27043e-06
1287.26	3.90585e-07
1295.94	1.12464e-07
1304.62	-1.24971e-07
1313.3	-7.56694e-08
1321.98	-2.33957e-07
1330.65	-2.62143e-07
1339.33	-4.07429e-07
1348.01	-3.13475e-07
1356.69	1.73952e-07
1365.37	3.56883e-08
1374.04	-1.66072e-07
1382.72	2.13839e-08
1391.4	-2.08309e-08
1400.08	-1.87187e-07
1408.76	-2.6143e-07
1417.44	-4.01019e-07
1426.11	-2.54809e-07
1434.79	-2.77248e-07
1443.47	-1.41524e-07
1452.15	-3.41982e-07
1460.83	-2.49505e-07
1469.5	-2.44339e-07
1478.18	-2.41356e-07
1486.86	-3.46253e-07
1495.54	-4.68415e-07
1504.22	4.74352e-07
1512.9	5.24825e-07
1521.57	6.42753e-08
1530.25	1.93297e-06
1538.93	1.69976e-06
1547.61	5.58821e-06
1556.29	8.16309e-06
1564.96	9.8963e-06
1573.64	8.58563e-06
1582.32	8.1765e-06
1591	7.71843e-06
1599.68	6.54695e-06
1608.36	3.68062e-06
1617.03	-2.60252e-07
1625.71	1.03543e-07
1634.39	-2.30624e-07
1643.07	-2.12311e-08
1651.75	-7.25684e-07
1660.42	-2.36874e-07
1669.1	-1.14398e-06
1677.78	-3.50917e-07
1686.46	1.13577e-08
1695.14	-1.13799e-06
1703.82	-5.61729e-07
1712.49	-3.67433e-07
1721.17	-3.42222e-07
1729.85	-5.11925e-07
1738.53	-1.98661e-07
1747.21	-4.43546e-07
1755.88	-3.38722e-07
1764.56	-2.55129e-07
1773.24	-6.29838e-07
1781.92	1.81861e-07
1790.6	-2.41545e-07
1799.28	-1.24876e-07
1807.95	-2.78667e-09
1816.63	-2.62529e-07
1825.31	-5.77314e-07
1833.99	-3.32865e-07
1842.67	-1.70845e-07
1851.34	-2.13264e-07
1860.02	-2.35928e-07
1868.7	-4.35594e-07
1877.38	-2.44965e-07
1886.06	-4.28514e-07
1894.74	-3.93452e-07
1903.41	-3.28529e-07
1912.09	-1.58273e-07
1920.77	-3.71005e-07
1929.45	-3.06606e-07
1938.13	-3.45605e-07
1946.8	-2.59029e-07
1955.48	-2.8077e-07
1964.16	-3.46995e-07
1972.84	-2.81395e-07
1981.52	-2.35368e-07
1990.19	-2.76091e-07
1998.87	-1.40265e-07
2007.55	-2.94143e-07
2016.23	-1.59859e-07
2024.91	-2.52539e-07
2033.59	-2.57538e-07
2042.26	-3.29213e-07
2050.94	-2.25262e-07
2059.62	-2.7377e-07
2068.3	-2.73043e-07
2076.98	-3.33178e-07
2085.65	-2.13664e-07
2094.33	-2.30653e-07
2103.01	-9.88213e-08
2111.69	5.29613e-08
2120.37	-2.03885e-07
2129.05	-3.78478e-07
2137.72	-1.86052e-07
2146.4	-2.30893e-07
2155.08	-6.93539e-08
2163.76	-4.25276e-07
2172.44	1.3507e-07
2181.11	-3.11358e-07
2189.79	2.47002e-07
2198.47	1.66713e-07
2207.15	6.55842e-07
2215.83	6.14501e-07
2224.51	-6.54103e-08
2233.18	9.30006e-07
2241.86	8.77612e-07
2250.54	1.93102e-08
2259.22	-2.50647e-07
2267.9	-4.20773e-07
2276.57	-3.18299e-07
2285.25	-3.56701e-07
2293.93	-3.0406e-07
2302.61	-2.49316e-07
2311.29	-7.8507e-09
2319.97	-4.68059e-08
2328.64	9.14508e-08
2337.32	1.44354e-08
2346	7.34502e-08
2354.68	-3.55952e-07
2363.36	-3.4885e-07
2372.03	-2.78201e-07
2380.71	-1.63257e-07
2389.39	-2.93022e-07
2398.07	-2.82378e-07
2406.75	-3.83411e-07
2415.43	-2.64705e-07
2424.1	-4.02918e-07
2432.78	-3.25837e-07
2441.46	-3.93422e-07
2450.14	-3.38257e-07
2458.82	-5.3392e-07
2467.49	-3.53078e-07
2476.17	-4.25764e-07
2484.85	-2.74083e-07
2493.53	-4.56665e-07
2502.21	-3.65265e-07
2510.89	-5.38548e-07
2519.56	-4.08891e-07
2528.24	-5.49723e-07
2536.92	-3.76135e-07
2545.6	-5.7647e-07
2554.28	-5.04307e-07
2562.95	-5.72606e-07
2571.63	-4.10033e-07
2580.31	-5.33498e-07
2588.99	-4.58767e-07
2597.67	-6.02415e-07
2606.35	-4.55326e-07
2615.02	-5.11452e-07
2623.7	-4.72162e-07
2632.38	-5.25778e-07
2641.06	-5.35775e-07
2649.74	-6.13584e-07
2658.41	-4.56614e-07
2667.09	-6.39639e-07
2675.77	-4.37609e-07
2684.45	-6.67338e-07
2693.13	-5.56082e-07
2701.81	-5.87522e-07
2710.48	-5.58251e-07
2719.16	-6.44543e-07
2727.84	-4.75909e-07
2736.52	-6.13257e-07
2745.2	-5.22402e-07
2753.87	-6.07501e-07
2762.55	-5.16145e-07
2771.23	-5.97402e-07
2779.91	-5.10339e-07
2788.59	-6.36976e-07
2797.27	-4.08862e-07
2805.94	-6.39966e-07
2814.62	-4.75997e-07
2823.3	-6.20154e-07
2831.98	-4.53703e-07
2840.66	-7.28645e-07
2849.33	-4.39035e-07
2858.01	-5.31344e-07
2866.69	-5.46726e-07
2875.37	-7.23304e-07
2884.05	-4.54329e-07
2892.73	-7.36241e-07
2901.4	-6.15883e-07
2910.08	-6.61081e-07
2918.76	-5.79169e-07
2927.44	-8.72526e-07
2936.12	-5.76622e-07
2944.79	-6.86401e-07
2953.47	-5.92382e-07
2962.15	-5.08731e-07
2970.83	-6.27103e-07
2979.51	-6.68757e-07
2988.19	-5.09117e-07
2996.86	-7.27954e-07
3005.54	-4.70612e-07
3014.22	-7.08251e-07
3022.9	-5.30078e-07
3031.58	-6.48763e-07
3040.25	-4.99054e-07
3048.93	-7.23334e-07
3057.61	-4.50953e-07
3066.29	-5.88911e-07
3074.97	-3.0804e-07
3083.65	-5.58323e-07
3092.32	-3.70809e-07
3101	-4.92462e-07
3109.68	-1.84371e-08
3118.36	-1.60128e-07
3127.04	7.35084e-08
3135.71	1.20591e-07
3144.39	2.70707e-07
3153.07	2.27124e-07
3161.75	3.73486e-07
3170.43	3.30559e-07
3179.11	4.88155e-07
3187.78	3.20016e-07
3196.46	4.73574e-07
3205.14	3.53005e-07
3213.82	4.96798e-07
3222.5	2.52314e-07
3231.17	5.27394e-07
3239.85	3.27896e-07
3248.53	6.10965e-07
3257.21	4.22824e-07
3265.89	5.97373e-07
3274.57	2.77445e-07
3283.24	1.76775e-07
3291.92	-7.43815e-08
3300.6	2.13955e-07
3309.28	-2.5259e-07
3317.96	5.68903e-08
3326.63	-1.49207e-07
3335.31	-2.61496e-08
3343.99	-3.61532e-07
3352.67	-1.27932e-07
3361.35	-3.92782e-07
3370.03	-1.04984e-07
3378.7	-4.40439e-07
3387.38	-1.98894e-07
3396.06	-4.39428e-07
3404.74	-3.37966e-07
3413.42	-5.21493e-07
3422.09	-3.85863e-07
3430.77	-7.30006e-07
3439.45	-3.79016e-07
3448.13	-5.26077e-07
3456.81	-2.56781e-07
3465.49	-5.76622e-07
3474.16	-5.20089e-07
3482.84	-7.63744e-07
3491.52	-5.51251e-07
3500.2	-7.50647e-07
3508.88	-7.00829e-07
3517.55	-7.92382e-07
3526.23	-7.461e-07
3534.91	-8.68779e-07
3543.59	-7.46704e-07
3552.27	-1.11127e-06
3560.95	-7.30064e-07
3569.62	-8.42804e-07
3578.3	-6.473e-07
3586.98	-1.21445e-06
3595.66	-7.71886e-07
3604.34	-8.79162e-07
3613.01	-1.09615e-06
3621.69	-1.01715e-06
3630.37	-1.00244e-06
3639.05	-1.00716e-06
3647.73	-1.05797e-06
3656.41	-1.75741e-06
3665.08	-9.58935e-07
3673.76	-1.23538e-06
3682.44	-9.11277e-07
3691.12	-1.90597e-06
3699.8	-1.03173e-06
3708.47	-1.22185e-06
3717.15	-8.64246e-07
3725.83	-1.31655e-06
3734.51	-1.77743e-06
3743.19	-1.09929e-06
3751.87	-2.51712e-06
3760.54	-1.51914e-06
3769.22	-1.23854e-06
3777.9	-1.3409e-06
3786.58	-1.03713e-06
3795.26	-1.34394e-06
3803.93	-1.32301e-06
3812.61	-1.25626e-06
3821.29	-1.89008e-06
3829.97	-1.2564e-06
3838.65	-1.74622e-06
3847.33	-1.40055e-06
3856	-1.11707e-06
3864.68	-1.87962e-06
3873.36	-1.14323e-06
3882.04	-1.48746e-06
3890.72	-1.52577e-06
3899.39	-2.20973e-06
3908.07	-1.3518e-06
3916.75	-1.84005e-06
3925.43	-1.34488e-06
3934.11	-1.46104e-06
3942.79	-1.38911e-06
3951.46	-1.41456e-06
3960.14	-1.27174e-06
3968.82	-1.69865e-06
