Infrared Spectrum: Carbon tetrachloride
Formula: C Cl4
CAS: 56-23-5
State: gas
Melting point: -22.99 C
Boiling point: 76.54 C
Class: IUPAC A
Instrument: IFS66V (Bruker)
Instrument parameters: KBr Beam Splitter; MCT Detector; Multipass cell
Sampling: 1 L/min Flow
Resolution: 0.2410
Temperature: 23 C
Pressure: 101.3 Pa
Origin: NIST, Analytical Chemistry Division, 301-975-3108
cm-1	(micromol/mol)-1m-1 (base 10)
575.05	-1.11597e-06
583.608	1.675e-06
592.165	1.28238e-06
600.723	-1.10891e-06
609.281	-2.82814e-08
617.838	-5.05522e-07
626.396	1.39168e-06
634.954	-3.82916e-07
643.511	3.34531e-07
652.069	-1.47788e-07
660.626	1.01361e-07
669.184	-3.90803e-07
677.742	-2.88111e-07
686.299	-4.5195e-07
694.857	2.72999e-07
703.415	-8.12587e-07
711.972	1.1724e-06
720.53	6.15592e-07
729.088	2.99235e-06
737.645	1.30329e-05
746.203	6.48307e-05
754.761	0.000234357
763.318	0.000447925
771.876	0.000552014
780.434	0.000781577
788.991	0.00126797
797.549	0.0049425
806.106	0.000318962
814.664	2.96707e-05
823.222	6.39676e-06
831.779	1.24869e-06
840.337	8.13453e-07
848.895	6.88409e-07
857.452	7.03965e-07
866.01	3.31912e-07
874.568	1.07095e-06
883.125	6.18793e-07
891.683	4.79576e-07
900.241	3.45045e-07
908.798	3.10055e-07
917.356	-1.94412e-07
925.914	-3.80311e-08
934.471	2.81199e-07
943.029	9.24258e-08
951.586	1.00087e-07
960.144	-1.05355e-08
968.702	1.54099e-06
977.259	2.19771e-06
985.817	2.64166e-06
994.375	2.84648e-06
1002.93	4.54759e-06
1011.49	5.48298e-06
1020.05	4.12904e-06
1028.61	1.28271e-06
1037.16	-2.02081e-07
1045.72	6.33367e-08
1054.28	-2.51746e-09
1062.84	4.83447e-07
1071.39	6.31148e-07
1079.95	1.56454e-07
1088.51	-2.3654e-07
1097.07	-1.92557e-07
1105.62	3.69434e-07
1114.18	5.47577e-07
1122.74	-6.22017e-08
1131.3	-1.35193e-07
1139.85	-3.22803e-07
1148.41	-2.01091e-07
1156.97	-8.12936e-08
1165.53	1.94638e-07
1174.09	-7.52474e-08
1182.64	9.65876e-08
1191.2	1.99702e-07
1199.76	2.71791e-07
1208.32	1.2986e-06
1216.87	1.73544e-06
1225.43	2.67034e-06
1233.99	1.53157e-06
1242.55	2.07958e-06
1251.1	5.2175e-06
1259.66	5.82529e-06
1268.22	1.99409e-06
1276.78	1.488e-06
1285.33	5.52357e-07
1293.89	4.34968e-07
1302.45	2.68182e-07
1311.01	-7.02706e-08
1319.57	-4.71478e-07
1328.12	-1.58222e-07
1336.68	-3.31032e-07
1345.24	-2.41996e-07
1353.8	-1.77656e-07
1362.35	-1.64275e-07
1370.91	3.95532e-07
1379.47	-1.65287e-07
1388.03	3.17528e-07
1396.58	-5.24592e-08
1405.14	-6.02415e-07
1413.7	-8.37383e-08
1422.26	-1.05515e-07
1430.81	-1.55762e-07
1439.37	-1.17913e-07
1447.93	-1.19237e-06
1456.49	-2.32859e-06
1465.05	-9.5844e-07
1473.6	-1.48471e-06
1482.16	-4.16982e-08
1490.72	-8.09488e-07
1499.28	3.26033e-08
1507.83	3.19136e-07
1516.39	7.86212e-07
1524.95	1.33858e-06
1533.51	1.64123e-06
1542.06	1.61267e-06
1550.62	6.41323e-06
1559.18	8.80179e-06
1567.74	9.6953e-06
1576.29	5.8689e-06
1584.85	8.10239e-06
1593.41	7.26897e-06
1601.97	5.86045e-06
1610.53	2.76761e-06
1619.08	6.9738e-07
1627.64	-4.6768e-07
1636.2	-5.46813e-07
1644.76	-6.62107e-09
1653.31	-5.83309e-06
1661.87	-1.75437e-07
1670.43	-3.78383e-07
1678.99	-3.66051e-07
1687.54	-4.45401e-07
1696.1	-1.81301e-06
1704.66	-5.91371e-07
1713.22	-5.08032e-07
1721.77	-5.45583e-07
1730.33	-4.14894e-07
1738.89	-3.72213e-07
1747.45	-3.04045e-07
1756.01	-3.76048e-07
1764.56	-8.61903e-08
1773.12	-3.53194e-07
1781.68	9.31315e-09
1790.24	1.02306e-07
1798.79	1.56832e-07
1807.35	-1.21216e-08
1815.91	-4.31657e-07
1824.47	-2.96864e-07
1833.02	-1.82465e-07
1841.58	-4.22242e-07
1850.14	-1.4885e-07
1858.7	-2.63373e-07
1867.25	-1.91698e-07
1875.81	-2.01906e-07
1884.37	-1.95278e-07
1892.93	-3.20089e-07
1901.49	-3.42055e-07
1910.04	-4.47366e-07
1918.6	-4.33527e-07
1927.16	-4.99869e-07
1935.72	-4.35499e-07
1944.27	-4.46362e-07
1952.83	-3.59168e-07
1961.39	-2.35921e-07
1969.95	-1.27088e-07
1978.5	-2.54737e-07
1987.06	-2.95882e-07
1995.62	-2.28994e-07
2004.18	-2.06992e-07
2012.73	-2.09306e-07
2021.29	-1.53172e-07
2029.85	-2.51702e-07
2038.41	-3.01884e-07
2046.97	-3.43262e-07
2055.52	-2.65847e-07
2064.08	-3.7719e-07
2072.64	-2.81264e-07
2081.2	-2.47504e-07
2089.75	-4.29533e-07
2098.31	-1.39457e-07
2106.87	-3.37245e-07
2115.43	-5.08534e-07
2123.98	-1.94048e-08
2132.54	-3.10019e-07
2141.1	-3.59764e-07
2149.66	-3.32902e-07
2158.21	5.38315e-07
2166.77	-6.54685e-08
2175.33	-1.85426e-07
2183.89	1.14654e-07
2192.45	1.20806e-06
2201	2.32021e-07
2209.56	2.97748e-06
2218.12	-2.80159e-07
2226.68	-1.61911e-07
2235.23	4.42135e-07
2243.79	1.88332e-06
2252.35	-2.0259e-07
2260.91	-3.48254e-07
2269.46	-2.54846e-07
2278.02	-3.7022e-07
2286.58	-4.35528e-07
2295.14	-1.60215e-08
2303.69	-7.3472e-08
2312.25	-1.81475e-07
2320.81	9.43757e-08
2329.37	1.60143e-07
2337.93	-4.48778e-08
2346.48	-1.14486e-07
2355.04	-2.12143e-07
2363.6	-2.39137e-07
2372.16	-1.83404e-07
2380.71	-2.94514e-07
2389.27	-2.1851e-07
2397.83	-1.14159e-07
2406.39	-5.44208e-07
2414.94	-2.91196e-07
2423.5	-3.94747e-07
2432.06	-3.37333e-07
2440.62	-4.99723e-07
2449.17	-4.16967e-07
2457.73	-1.44041e-07
2466.29	-3.41094e-07
2474.85	-5.52423e-07
2483.41	-4.51404e-07
2491.96	-4.56439e-07
2500.52	-3.96144e-07
2509.08	-6.82509e-07
2517.64	-7.20736e-07
2526.19	-4.68895e-07
2534.75	-4.95809e-07
2543.31	-6.67789e-07
2551.87	-6.00953e-07
2560.42	-3.76506e-07
2568.98	-4.45634e-07
2577.54	-5.16276e-07
2586.1	-6.52583e-07
2594.65	-3.72875e-07
2603.21	-2.43095e-07
2611.77	-4.98399e-07
2620.33	-5.27845e-07
2628.89	-3.95765e-07
2637.44	-4.71369e-07
2646	-6.00436e-07
2654.56	-4.75567e-07
2663.12	-4.95933e-07
2671.67	-5.77175e-07
2680.23	-7.29467e-07
2688.79	-6.84669e-07
2697.35	-5.90963e-07
2705.9	-7.83418e-07
2714.46	-7.29249e-07
2723.02	-9.90767e-07
2731.58	-7.32072e-07
2740.13	-4.13759e-07
2748.69	-7.10848e-07
2757.25	-5.12129e-07
2765.81	-6.08091e-07
2774.37	-7.60572e-07
2782.92	-7.73901e-07
2791.48	-6.79154e-07
2800.04	-3.96973e-07
2808.6	-5.25473e-07
2817.15	-4.68415e-07
2825.71	-2.09728e-07
2834.27	-5.74949e-07
2842.83	-9.47933e-07
2851.38	-6.63904e-07
2859.94	-6.30704e-07
2868.5	-6.58818e-07
2877.06	-4.49287e-07
2885.61	-5.21311e-07
2894.17	-3.7612e-07
2902.73	-2.52459e-07
2911.29	-5.81104e-07
2919.85	-8.81366e-07
2928.4	-6.25793e-07
2936.96	-4.61707e-07
2945.52	-5.73312e-07
2954.08	-5.95125e-07
2962.63	-1.22963e-06
2971.19	-4.43597e-07
2979.75	-5.04387e-07
2988.31	-4.31985e-07
2996.86	-5.05326e-07
3005.42	-5.73843e-07
3013.98	-4.57552e-07
3022.54	-5.05653e-07
3031.09	-9.75262e-07
3039.65	-9.34531e-07
3048.21	-6.17731e-07
3056.77	-7.12121e-07
3065.33	-3.81366e-07
3073.88	-8.17527e-07
3082.44	-5.04038e-07
3091	-3.53681e-08
3099.56	1.52539e-07
3108.11	-4.28085e-07
3116.67	-2.17186e-08
3125.23	-8.96755e-08
3133.79	2.61678e-07
3142.34	2.13708e-07
3150.9	4.60383e-07
3159.46	4.14384e-07
3168.02	1.06184e-07
3176.57	2.69594e-07
3185.13	1.54962e-07
3193.69	5.36721e-07
3202.25	3.55035e-07
3210.81	6.29984e-07
3219.36	5.79722e-07
3227.92	5.07407e-07
3236.48	3.16967e-07
3245.04	8.11365e-07
3253.59	3.64312e-07
3262.15	6.77037e-07
3270.71	6.00713e-07
3279.27	1.69434e-07
3287.82	1.53594e-08
3296.38	-1.22759e-07
3304.94	-6.32276e-09
3313.5	3.69543e-08
3322.05	1.22708e-07
3330.61	-9.83629e-08
3339.17	-2.59764e-07
3347.73	-3.32916e-07
3356.29	-8.21958e-08
3364.84	-7.41924e-07
3373.4	-8.70052e-08
3381.96	6.3213e-08
3390.52	-4.87347e-07
3399.07	-4.39224e-07
3407.63	-2.80428e-07
3416.19	-3.68059e-07
3424.75	-5.66662e-07
3433.3	-7.19899e-07
3441.86	-3.53252e-07
3450.42	-1.09219e-07
3458.98	-6.78565e-07
3467.53	-4.94339e-07
3476.09	-6.6907e-07
3484.65	-1.03037e-06
3493.21	-5.99309e-07
3501.77	-1.06197e-06
3510.32	-8.06184e-07
3518.88	-1.2174e-06
3527.44	-9.67236e-07
3536	-6.24185e-07
3544.55	-9.1266e-07
3553.11	-7.03492e-07
3561.67	-1.04564e-06
3570.23	-6.57108e-07
3578.78	-7.0908e-07
3587.34	-7.65206e-07
3595.9	-1.11991e-06
3604.46	-5.21296e-07
3613.01	-1.64139e-06
3621.57	-8.44812e-07
3630.13	-7.57814e-07
3638.69	-9.07465e-07
3647.25	-1.35298e-06
3655.8	-1.11948e-06
3664.36	-7.2233e-07
3672.92	-8.328e-07
3681.48	-9.87522e-07
3690.03	-9.56235e-07
3698.59	-1.03954e-06
3707.15	-1.24421e-06
3715.71	-1.332e-06
3724.26	-1.43978e-06
3732.82	-1.44727e-06
3741.38	-1.63449e-06
3749.94	-1.64609e-06
3758.49	-1.15419e-06
3767.05	-1.57344e-06
3775.61	-1.16444e-06
3784.17	-1.48235e-06
3792.73	-8.42265e-07
3801.28	-3.47989e-06
3809.84	-1.26804e-06
3818.4	-1.42301e-06
3826.96	-1.1156e-06
3835.51	-1.41352e-06
3844.07	-1.29458e-06
3852.63	-1.5791e-06
3861.19	-1.49042e-06
3869.74	-1.75195e-06
3878.3	-1.24552e-06
3886.86	-1.54611e-06
3895.42	-1.42814e-06
3903.97	-1.8363e-06
3912.53	-1.22269e-06
3921.09	-1.28549e-06
3929.65	-9.88773e-07
3938.21	-1.52953e-06
3946.76	-1.52509e-06
3955.32	-1.39737e-06
3963.88	-1.62142e-06
3972.44	-1.78478e-06
