Infrared Spectrum: Carbon tetrachloride
Formula: C Cl4
CAS: 56-23-5
State: gas
Melting point: -22.99 C
Boiling point: 76.54 C
Class: IUPAC A
Instrument: IFS66V (Bruker)
Instrument parameters: KBr Beam Splitter; MCT Detector; Multipass cell
Sampling: 1 L/min Flow
Resolution: 0.4820
Temperature: 23 C
Pressure: 101.3 Pa
Origin: NIST, Analytical Chemistry Division, 301-975-3108
cm-1	(micromol/mol)-1m-1 (base 10)
575.17	-5.96391e-07
583.848	2.31577e-07
592.526	-3.32785e-07
601.205	4.59182e-07
609.883	-2.01462e-07
618.561	1.07287e-06
627.239	1.46951e-06
635.917	4.75167e-07
644.595	4.44776e-08
653.274	-4.47104e-08
661.952	-2.36074e-07
670.63	1.32232e-07
679.308	3.8507e-07
687.986	-8.68524e-08
696.664	7.12107e-07
705.343	4.60128e-07
714.021	5.27408e-07
722.699	1.26391e-06
731.377	4.36451e-06
740.055	2.12835e-05
748.734	0.000103188
757.412	0.000303279
766.09	0.000506768
774.768	0.000647227
783.446	0.000621308
792.124	0.00379399
800.803	0.00174478
809.481	0.000109989
818.159	1.58864e-05
826.837	3.20356e-06
835.515	8.22781e-07
844.193	2.62704e-07
852.872	5.2142e-07
861.55	4.12711e-07
870.228	7.57036e-07
878.906	7.20867e-07
887.584	5.27466e-07
896.263	5.20867e-07
904.941	3.54082e-07
913.619	2.30049e-07
922.297	-4.25131e-08
930.975	6.55704e-08
939.653	2.95693e-08
948.332	1.55566e-07
957.01	3.53965e-07
965.688	9.11197e-07
974.366	2.06655e-06
983.044	2.29239e-06
991.723	2.14759e-06
1000.4	4.18197e-06
1009.08	5.24877e-06
1017.76	4.65703e-06
1026.44	1.70038e-06
1035.11	3.07116e-08
1043.79	4.35026e-08
1052.47	1.81599e-07
1061.15	3.86227e-07
1069.83	5.38839e-07
1078.5	6.7452e-07
1087.18	8.63722e-08
1095.86	1.19252e-08
1104.54	4.42629e-07
1113.22	4.84087e-07
1121.9	2.43575e-07
1130.57	2.20605e-08
1139.25	-1.68335e-07
1147.93	-2.5016e-07
1156.61	-5.05748e-08
1165.29	-1.63271e-07
1173.96	1.85826e-08
1182.64	1.54686e-08
1191.32	3.70023e-07
1200	4.97613e-07
1208.68	1.23947e-06
1217.36	2.06488e-06
1226.03	2.80845e-06
1234.71	1.81719e-06
1243.39	2.25821e-06
1252.07	5.5248e-06
1260.75	4.95414e-06
1269.42	1.74239e-06
1278.1	1.00681e-06
1286.78	4.9618e-07
1295.46	1.87165e-07
1304.14	-1.19492e-07
1312.82	-2e-07
1321.49	-2.26193e-07
1330.17	-3.59553e-07
1338.85	-3.61394e-07
1347.53	-3.69121e-07
1356.21	2.47599e-07
1364.88	1.98632e-09
1373.56	-1.96682e-07
1382.24	-8.86932e-09
1390.92	8.02677e-08
1399.6	-3.17673e-07
1408.28	-2.715e-07
1416.95	-2.48763e-07
1425.63	-2.26542e-07
1434.31	-2.8197e-07
1442.99	-1.84793e-07
1451.67	-1.77095e-07
1460.34	-9.30879e-08
1469.02	-4.94761e-08
1477.7	-8.81184e-08
1486.38	-6.68801e-08
1495.06	-9.94179e-08
1503.73	2.91465e-07
1512.41	1.60303e-07
1521.09	-6.88198e-07
1529.77	1.77782e-06
1538.45	2.81061e-06
1547.13	5.43588e-06
1555.8	8.11806e-06
1564.48	9.73366e-06
1573.16	8.95758e-06
1581.84	8.3423e-06
1590.52	7.59947e-06
1599.19	6.66684e-06
1607.87	3.82149e-06
1616.55	-9.45139e-07
1625.23	1.80675e-07
1633.91	-1.90141e-07
1642.59	-9.3117e-08
1651.26	-2.94732e-07
1659.94	-2.35572e-07
1668.62	-3.94994e-07
1677.3	-3.5633e-07
1685.98	-3.95722e-07
1694.65	-3.47111e-07
1703.33	-4.17717e-07
1712.01	-3.29889e-07
1720.69	-3.11161e-07
1729.37	-3.08178e-07
1738.05	-4.38606e-07
1746.72	-3.19186e-07
1755.4	-3.02379e-07
1764.08	-1.37849e-07
1772.76	-1.87285e-06
1781.44	7.6688e-08
1790.11	3.38911e-08
1798.79	1.57079e-07
1807.47	-6.75422e-08
1816.15	-2.39879e-07
1824.83	-5.1549e-07
1833.51	-2.74265e-07
1842.18	-3.84437e-07
1850.86	-2.5056e-07
1859.54	-3.04198e-07
1868.22	-3.49331e-07
1876.9	-2.41567e-07
1885.57	-3.98734e-07
1894.25	-3.38198e-07
1902.93	-2.96573e-07
1911.61	-2.5307e-07
1920.29	-2.44347e-07
1928.97	-3.39232e-07
1937.64	-3.38577e-07
1946.32	-3.04686e-07
1955	-1.9626e-07
1963.68	-3.49098e-07
1972.36	-3.39574e-07
1981.03	-2.4287e-07
1989.71	-2.78099e-07
1998.39	-1.61496e-07
2007.07	-2.81912e-07
2015.75	-2.20605e-07
2024.43	-1.34495e-07
2033.1	-2.35579e-07
2041.78	-2.34313e-07
2050.46	-3.42906e-07
2059.14	-2.65257e-07
2067.82	-3.63897e-07
2076.49	-3.09648e-07
2085.17	-3.96078e-07
2093.85	-3.27925e-07
2102.53	-3.83331e-07
2111.21	-1.7257e-07
2119.89	7.77212e-08
2128.56	-2.70154e-07
2137.24	-1.93692e-07
2145.92	-2.78289e-07
2154.6	1.03056e-07
2163.28	-2.60354e-07
2171.95	-2.17957e-07
2180.63	-1.63635e-07
2189.31	1.77758e-07
2197.99	2.57319e-07
2206.67	1.11847e-06
2215.35	5.31825e-07
2224.02	-1.34961e-07
2232.7	9.10623e-07
2241.38	6.98566e-07
2250.06	7.03361e-08
2258.74	-3.29627e-07
2267.41	-4.10303e-07
2276.09	-3.77503e-07
2284.77	-2.95598e-07
2293.45	-3.23778e-07
2302.13	-2.5673e-07
2310.81	-4.51106e-10
2319.48	1.453e-08
2328.16	1.22715e-07
2336.84	1.19616e-07
2345.52	6.27401e-08
2354.2	-3.12391e-07
2362.87	-5.02961e-07
2371.55	-3.23967e-07
2380.23	-2.89515e-07
2388.91	-2.71347e-07
2397.59	-3.56381e-07
2406.27	-3.59e-07
2414.94	-3.51586e-07
2423.62	-3.508e-07
2432.3	-3.58462e-07
2440.98	-4.14304e-07
2449.66	-4.03441e-07
2458.33	-4.47453e-07
2467.01	-4.14464e-07
2475.69	-4.2994e-07
2484.37	-3.32094e-07
2493.05	-5.08142e-07
2501.73	-3.82865e-07
2510.4	-4.72388e-07
2519.08	-5.16465e-07
2527.76	-5.06635e-07
2536.44	-5.12151e-07
2545.12	-4.92986e-07
2553.79	-5.56148e-07
2562.47	-5.61241e-07
2571.15	-4.92695e-07
2579.83	-4.92171e-07
2588.51	-6.01229e-07
2597.19	-5.45984e-07
2605.86	-5.54053e-07
2614.54	-5.32465e-07
2623.22	-5.56068e-07
2631.9	-4.13016e-07
2640.58	-6.01528e-07
2649.25	-6.32865e-07
2657.93	-5.21566e-07
2666.61	-5.98501e-07
2675.29	-4.60375e-07
2683.97	-5.84575e-07
2692.65	-5.00233e-07
2701.32	-5.65403e-07
2710	-5.83782e-07
2718.68	-6.76848e-07
2727.36	-5.35921e-07
2736.04	-6.17899e-07
2744.71	-6.98035e-07
2753.39	-6.01797e-07
2762.07	-6.48021e-07
2770.75	-5.8675e-07
2779.43	-5.96515e-07
2788.11	-6.18124e-07
2796.78	-4.59728e-07
2805.46	-5.78718e-07
2814.14	-5.48399e-07
2822.82	-5.08738e-07
2831.5	-5.89726e-07
2840.17	-5.90228e-07
2848.85	-5.77277e-07
2857.53	-4.28922e-07
2866.21	-6.42564e-07
2874.89	-6.80413e-07
2883.57	-5.28099e-07
2892.24	-6.57167e-07
2900.92	-6.63337e-07
2909.6	-5.83273e-07
2918.28	-7.29373e-07
2926.96	-7.15527e-07
2935.63	-7.36379e-07
2944.31	-7.77372e-07
2952.99	-6.48785e-07
2961.67	6.98341e-08
2970.35	-6.88962e-07
2979.03	-6.25174e-07
2987.7	-5.26506e-07
2996.38	-6.38497e-07
3005.06	-5.79613e-07
3013.74	-6.0339e-07
3022.42	-6.02008e-07
3031.09	-6.32101e-07
3039.77	-7.25102e-07
3048.45	-5.50829e-07
3057.13	-7.2094e-07
3065.81	-6.52743e-07
3074.49	-4.74061e-07
3083.16	-4.00982e-07
3091.84	-4.17702e-07
3100.52	-3.66822e-07
3109.2	-4.5729e-08
3117.88	-1.37515e-09
3126.55	1.70911e-08
3135.23	1.32247e-07
3143.91	7.42651e-08
3152.59	1.96107e-07
3161.27	2.86125e-07
3169.95	4.17899e-07
3178.62	3.52903e-07
3187.3	3.93357e-07
3195.98	4.10761e-07
3204.66	5.21042e-07
3213.34	5.15243e-07
3222.01	4.19376e-07
3230.69	3.48785e-07
3239.37	5.75938e-07
3248.05	4.94223e-07
3256.73	4.34924e-07
3265.4	4.71507e-07
3274.08	2.92884e-07
3282.76	7.13184e-08
3291.44	1.20445e-07
3300.12	2.10594e-07
3308.8	-1.63904e-07
3317.47	-7.73137e-08
3326.15	-1.69019e-08
3334.83	-1.95343e-07
3343.51	-2.93684e-07
3352.19	-1.33804e-07
3360.86	-3.3213e-07
3369.54	-1.85485e-07
3378.22	-1.61329e-07
3386.9	-1.8026e-07
3395.58	-4.32851e-07
3404.26	-3.83935e-07
3412.93	-3.60928e-07
3421.61	-4.40847e-07
3430.29	-3.47592e-07
3438.97	-4.53121e-07
3447.65	-4.24934e-07
3456.32	-3.7046e-07
3465	-6.4423e-07
3473.68	-6.34022e-07
3482.36	-6.58898e-07
3491.04	-6.60637e-07
3499.72	-6.96296e-07
3508.39	-7.37696e-07
3517.07	-5.52066e-07
3525.75	-9.11816e-07
3534.43	-6.16916e-07
3543.11	-8.35557e-07
3551.78	-9.08047e-07
3560.46	-9.2369e-07
3569.14	-8.23879e-07
3577.82	-7.672e-07
3586.5	-1.32205e-06
3595.18	-1.06903e-06
3603.85	-8.2879e-07
3612.53	-1.48793e-06
3621.21	-1.1107e-06
3629.89	-1.55109e-06
3638.57	-7.8718e-07
3647.24	-1.50878e-06
3655.92	-1.21866e-06
3664.6	-1.03992e-06
3673.28	-1.14045e-06
3681.96	-1.063e-06
3690.64	-1.26964e-06
3699.31	-1.1064e-06
3707.99	-1.16983e-06
3716.67	-9.98981e-07
3725.35	-1.23805e-06
3734.03	-1.32507e-06
3742.7	-1.21212e-06
3751.38	-1.36914e-06
3760.06	-1.7226e-06
3768.74	-1.15081e-06
3777.42	-1.12915e-06
3786.1	-1.2697e-06
3794.77	-1.22003e-06
3803.45	-1.21104e-06
3812.13	-1.27189e-06
3820.81	-2.29097e-06
3829.49	-1.07584e-06
3838.16	-2.56588e-06
3846.84	-1.23922e-06
3855.52	-1.43708e-06
3864.2	-1.33067e-06
3872.88	-1.2712e-06
3881.56	-1.48013e-06
3890.23	-1.23858e-06
3898.91	-1.70491e-06
3907.59	-1.31711e-06
3916.27	-1.59551e-06
3924.95	-1.4701e-06
3933.62	-1.30244e-06
3942.3	-1.30576e-06
3950.98	-1.29756e-06
3959.66	-1.40478e-06
3968.34	-1.46394e-06
