Infrared Spectrum: Carbon tetrachloride
Formula: C Cl4
CAS: 56-23-5
State: gas
Melting point: -22.99 C
Boiling point: 76.54 C
Class: IUPAC A
Instrument: IFS66V (Bruker)
Instrument parameters: KBr Beam Splitter; MCT Detector; Multipass cell
Sampling: 1 L/min Flow
Resolution: 0.9640
Temperature: 23 C
Pressure: 101.3 Pa
Origin: NIST, Analytical Chemistry Division, 301-975-3108
cm-1	(micromol/mol)-1m-1 (base 10)
575.17	-9.7353e-07
583.848	1.92498e-07
592.526	-2.48341e-07
601.205	1.10026e-07
609.883	-3.72446e-07
618.561	7.2035e-07
627.239	1.43266e-06
635.917	2.86649e-07
644.595	-9.50378e-08
653.274	-1.21275e-07
661.952	-2.87733e-07
670.63	-2.59459e-08
679.308	1.34757e-07
687.986	-6.9172e-08
696.664	3.7476e-07
705.343	2.69499e-07
714.021	3.42819e-07
722.699	9.63882e-07
731.377	4.08714e-06
740.055	2.09876e-05
748.734	0.000102783
757.412	0.000303774
766.09	0.000510264
774.768	0.000646584
783.446	0.000620642
792.124	0.00378717
800.803	0.00176655
809.481	0.000111854
818.159	1.66561e-05
826.837	3.87835e-06
835.515	1.16119e-06
844.194	6.93793e-07
852.872	7.21988e-07
861.55	6.60695e-07
870.228	8.65781e-07
878.906	8.88125e-07
887.584	7.29474e-07
896.263	5.9276e-07
904.941	4.12049e-07
913.619	3.39639e-07
922.297	8.76237e-08
930.975	1.29169e-07
939.653	1.50226e-07
948.332	2.72497e-07
957.01	3.96886e-07
965.688	9.81402e-07
974.366	2.14824e-06
983.044	2.43273e-06
991.723	2.31043e-06
1000.4	4.2548e-06
1009.08	5.36547e-06
1017.76	4.71556e-06
1026.44	1.80346e-06
1035.11	1.65068e-07
1043.79	6.06155e-08
1052.47	2.23545e-07
1061.15	4.1346e-07
1069.83	5.55704e-07
1078.5	6.67513e-07
1087.18	1.56868e-07
1095.86	1.29475e-07
1104.54	4.7321e-07
1113.22	5.50655e-07
1121.9	3.54933e-07
1130.57	3.42695e-08
1139.25	-1.73254e-07
1147.93	-2.14181e-07
1156.61	-6.12413e-08
1165.29	-8.82276e-08
1173.96	7.19004e-08
1182.64	7.16603e-08
1191.32	3.55399e-07
1200	5.4284e-07
1208.68	1.3038e-06
1217.36	2.11986e-06
1226.03	2.75838e-06
1234.71	1.85729e-06
1243.39	2.29434e-06
1252.07	5.50608e-06
1260.75	5.19596e-06
1269.42	1.75135e-06
1278.1	1.14266e-06
1286.78	5.50815e-07
1295.46	1.15352e-07
1304.14	-7.56912e-08
1312.82	-1.42535e-07
1321.49	-2.23836e-07
1330.17	-3.26419e-07
1338.85	-3.65054e-07
1347.53	-3.22184e-07
1356.21	3.44725e-07
1364.88	3.80675e-08
1373.56	-1.56308e-07
1382.24	2.86743e-08
1390.92	6.97759e-08
1399.6	-3.87245e-07
1408.28	-1.72468e-07
1416.95	-2.67375e-07
1425.63	-2.13548e-07
1434.31	-2.34546e-07
1442.99	-1.17244e-07
1451.67	-2.05406e-07
1460.34	-9.60564e-08
1469.02	-6.72802e-08
1477.7	-8.91807e-08
1486.38	-8.26688e-08
1495.06	-2.74884e-08
1503.73	3.04198e-07
1512.41	3.68648e-07
1521.09	-2.08207e-07
1529.77	1.77616e-06
1538.45	2.45017e-06
1547.13	5.42028e-06
1555.8	8.16873e-06
1564.48	9.74427e-06
1573.16	8.96842e-06
1581.84	8.33904e-06
1590.52	7.67956e-06
1599.19	6.64333e-06
1607.87	3.80749e-06
1616.55	-3.57967e-07
1625.23	1.55435e-07
1633.91	-1.76673e-07
1642.59	-9.62383e-08
1651.26	-2.94594e-07
1659.94	-2.31235e-07
1668.62	-5.18e-07
1677.3	-3.12376e-07
1685.98	-3.85368e-07
1694.65	-3.98828e-07
1703.33	-3.7767e-07
1712.01	-3.17498e-07
1720.69	-3.19223e-07
1729.37	-3.44019e-07
1738.05	-3.78674e-07
1746.72	-3.6971e-07
1755.4	-2.86438e-07
1764.08	-1.7452e-07
1772.76	-1.12526e-06
1781.44	7.84779e-08
1790.11	8.22904e-09
1798.79	1.59022e-07
1807.47	-2.02197e-08
1816.15	-2.15469e-07
1824.83	-5.16436e-07
1833.51	-2.64042e-07
1842.18	-3.23137e-07
1850.86	-2.51004e-07
1859.54	-2.86489e-07
1868.22	-3.39923e-07
1876.9	-2.38184e-07
1885.57	-3.7703e-07
1894.25	-3.22737e-07
1902.93	-3.12209e-07
1911.61	-2.13489e-07
1920.29	-2.80937e-07
1928.97	-3.36008e-07
1937.64	-3.54838e-07
1946.32	-3.22926e-07
1955	-2.27699e-07
1963.68	-3.48101e-07
1972.36	-3.25051e-07
1981.03	-2.23494e-07
1989.71	-2.73719e-07
1998.39	-1.70038e-07
2007.07	-2.80857e-07
2015.75	-1.89268e-07
2024.43	-1.70824e-07
2033.1	-2.65127e-07
2041.78	-2.62595e-07
2050.46	-3.06119e-07
2059.14	-2.88613e-07
2067.82	-3.63147e-07
2076.49	-3.04089e-07
2085.17	-3.53812e-07
2093.85	-3.39792e-07
2102.53	-3.63278e-07
2111.21	-8.57319e-08
2119.89	1.26237e-08
2128.56	-2.61481e-07
2137.24	-2.26382e-07
2145.92	-2.63926e-07
2154.6	-7.22497e-08
2163.28	-2.79205e-07
2171.95	-2.01011e-07
2180.63	-1.6776e-07
2189.31	4.54671e-08
2197.99	2.75706e-07
2206.67	6.73268e-07
2215.35	7.06817e-07
2224.02	-1.2337e-07
2232.7	9.30224e-07
2241.38	8.94805e-07
2250.06	5.93568e-08
2258.74	-3.1111e-07
2267.41	-3.9885e-07
2276.09	-3.30188e-07
2284.77	-2.83025e-07
2293.45	-2.98545e-07
2302.13	-2.21726e-07
2310.81	-3.52663e-08
2319.48	1.35914e-08
2328.16	7.75611e-08
2336.84	1.08586e-07
2345.52	4.6573e-08
2354.2	-2.6373e-07
2362.87	-4.06766e-07
2371.55	-2.65054e-07
2380.23	-2.61758e-07
2388.91	-2.60637e-07
2397.59	-3.26448e-07
2406.27	-3.27263e-07
2414.94	-3.5748e-07
2423.62	-3.59684e-07
2432.3	-3.67135e-07
2440.98	-3.88839e-07
2449.66	-4.08687e-07
2458.33	-4.33687e-07
2467.01	-3.93313e-07
2475.69	-4.39937e-07
2484.37	-3.01746e-07
2493.05	-4.52867e-07
2501.73	-4.2297e-07
2510.4	-4.9132e-07
2519.08	-5.01644e-07
2527.76	-4.86816e-07
2536.44	-5.15723e-07
2545.12	-5.15803e-07
2553.79	-5.72162e-07
2562.47	-5.34015e-07
2571.15	-5.04758e-07
2579.83	-5.18823e-07
2588.51	-5.71289e-07
2597.19	-5.58018e-07
2605.86	-5.21871e-07
2614.54	-4.97046e-07
2623.22	-5.4268e-07
2631.9	-4.71202e-07
2640.58	-5.88882e-07
2649.25	-5.93452e-07
2657.93	-5.34699e-07
2666.61	-5.4514e-07
2675.29	-4.98436e-07
2683.97	-5.93612e-07
2692.65	-5.89777e-07
2701.32	-5.7385e-07
2710	-6.41189e-07
2718.68	-6.26928e-07
2727.36	-5.41989e-07
2736.04	-5.84335e-07
2744.71	-6.34924e-07
2753.39	-5.82727e-07
2762.07	-5.65512e-07
2770.75	-5.63999e-07
2779.43	-5.9885e-07
2788.11	-5.79962e-07
2796.78	-4.77656e-07
2805.46	-6.17695e-07
2814.14	-5.41152e-07
2822.82	-5.0179e-07
2831.5	-6.01193e-07
2840.17	-5.93306e-07
2848.85	-5.85448e-07
2857.53	-4.45016e-07
2866.21	-6.3058e-07
2874.89	-6.42571e-07
2883.57	-5.46944e-07
2892.24	-6.2158e-07
2900.92	-6.65599e-07
2909.6	-5.9172e-07
2918.28	-7.29431e-07
2926.96	-7.05639e-07
2935.63	-6.61081e-07
2944.31	-6.69637e-07
2952.99	-6.88009e-07
2961.67	-5.21755e-08
2970.35	-6.87289e-07
2979.03	-5.87594e-07
2987.7	-5.35637e-07
2996.38	-6.46202e-07
3005.06	-5.52634e-07
3013.74	-6.20911e-07
3022.42	-6.10426e-07
3031.09	-5.80086e-07
3039.77	-6.91938e-07
3048.45	-5.73014e-07
3057.13	-6.48894e-07
3065.81	-6.28652e-07
3074.49	-4.65374e-07
3083.16	-4.12202e-07
3091.84	-4.26077e-07
3100.52	-3.72679e-07
3109.2	-1.54344e-07
3117.88	-5.1346e-08
3126.55	2.40323e-08
3135.23	1.31192e-07
3143.91	8.91152e-08
3152.59	2.02386e-07
3161.27	2.94296e-07
3169.95	3.34786e-07
3178.62	3.32458e-07
3187.3	4.45241e-07
3195.98	4.10121e-07
3204.66	4.94005e-07
3213.34	4.45976e-07
3222.01	3.97322e-07
3230.69	4.19368e-07
3239.37	5.09342e-07
3248.05	4.97562e-07
3256.73	4.37202e-07
3265.41	4.50385e-07
3274.08	2.72111e-07
3282.76	1.16313e-07
3291.44	1.00538e-07
3300.12	2.23909e-07
3308.8	-1.36154e-07
3317.47	-1.20998e-07
3326.15	-2.8507e-08
3334.83	-1.74098e-07
3343.51	-2.71493e-07
3352.19	-1.44441e-07
3360.86	-3.23108e-07
3369.54	-2.53711e-07
3378.22	-2.54576e-07
3386.9	-2.79606e-07
3395.58	-3.56839e-07
3404.26	-3.96748e-07
3412.93	-4.4928e-07
3421.61	-4.45874e-07
3430.29	-4.55842e-07
3438.97	-4.88322e-07
3447.65	-4.84531e-07
3456.32	-4.47395e-07
3465	-6.08367e-07
3473.68	-6.10848e-07
3482.36	-6.41705e-07
3491.04	-6.60885e-07
3499.72	-6.54926e-07
3508.39	-7.39515e-07
3517.07	-6.82901e-07
3525.75	-8.65185e-07
3534.43	-7.27146e-07
3543.11	-8.8659e-07
3551.78	-9.52204e-07
3560.46	-9.12005e-07
3569.14	-8.35637e-07
3577.82	-7.33447e-07
3586.5	-1.1333e-06
3595.18	-9.40948e-07
3603.85	-7.90454e-07
3612.53	-1.38044e-06
3621.21	-9.60171e-07
3629.89	-1.59886e-06
3638.57	-8.70787e-07
3647.24	-1.42272e-06
3655.92	-1.4363e-06
3664.6	-1.04467e-06
3673.28	-1.12346e-06
3681.96	-1.04455e-06
3690.64	-1.41411e-06
3699.31	-1.08491e-06
3707.99	-1.1627e-06
3716.67	-1.0513e-06
3725.35	-1.24559e-06
3734.03	-1.35369e-06
3742.7	-1.21804e-06
3751.38	-1.48615e-06
3760.06	-1.59774e-06
3768.74	-1.19765e-06
3777.42	-1.19542e-06
3786.1	-1.19025e-06
3794.77	-1.19589e-06
3803.45	-1.27475e-06
3812.13	-1.27708e-06
3820.81	-1.95204e-06
3829.49	-1.17203e-06
3838.16	-2.60779e-06
3846.84	-1.27336e-06
3855.52	-1.44826e-06
3864.2	-1.38729e-06
3872.88	-1.31361e-06
3881.56	-1.56413e-06
3890.23	-1.41617e-06
3898.91	-1.81055e-06
3907.59	-1.39478e-06
3916.27	-1.5519e-06
3924.95	-1.56556e-06
3933.62	-1.37601e-06
3942.3	-1.48361e-06
3950.98	-1.33417e-06
3959.66	-1.38498e-06
3968.34	-1.49298e-06
