Infrared Spectrum: Carbon tetrachloride
Formula: C Cl4
CAS: 56-23-5
State: gas
Melting point: -22.99 C
Boiling point: 76.54 C
Class: IUPAC A
Instrument: IFS66V (Bruker)
Instrument parameters: KBr Beam Splitter; MCT Detector; Multipass cell
Sampling: 1 L/min Flow
Resolution: 0.1250
Temperature: 23 C
Pressure: 101.3 Pa
Origin: NIST, Analytical Chemistry Division, 301-975-3108
cm-1	(micromol/mol)-1m-1 (base 10)
575.05	-1.71089e-06
583.608	8.02081e-07
592.165	4.79838e-07
600.723	-8.22155e-07
609.281	-2.42477e-07
617.838	-2.43481e-07
626.396	1.42626e-06
634.954	-5.46507e-07
643.511	2.37893e-07
652.069	1.85696e-07
660.626	1.25335e-07
669.184	-2.57523e-07
677.742	-1.07785e-07
686.299	-6.27139e-07
694.857	1.66393e-07
703.415	-6.07378e-07
711.972	9.42695e-07
720.53	8.03005e-07
729.088	3.2643e-06
737.645	1.34614e-05
746.203	6.53411e-05
754.761	0.000234286
763.318	0.000449508
771.876	0.000558292
780.434	0.00078186
788.991	0.00127374
797.549	0.00486975
806.106	0.00032252
814.664	3.10702e-05
823.222	6.93279e-06
831.779	1.55479e-06
840.337	6.60717e-07
848.895	6.98668e-07
857.452	8.79816e-07
866.01	4.18066e-07
874.568	1.03158e-06
883.125	8.13155e-07
891.683	5.8408e-07
900.241	4.29824e-07
908.798	3.79271e-07
917.356	-2.92273e-08
925.914	8.42767e-08
934.471	2.36256e-07
943.029	1.39792e-07
951.586	1.3312e-07
960.144	1.07094e-07
968.702	1.50032e-06
977.259	2.20467e-06
985.817	2.61464e-06
994.375	2.95474e-06
1002.93	4.52307e-06
1011.49	5.4113e-06
1020.05	4.09138e-06
1028.61	1.12509e-06
1037.16	-1.8173e-07
1045.72	8.15192e-08
1054.28	-1.92739e-08
1062.84	6.15075e-07
1071.39	5.37973e-07
1079.95	9.36117e-08
1088.51	-1.72352e-07
1097.07	4.46522e-08
1105.62	2.63417e-07
1114.18	5.77183e-07
1122.74	-4.62238e-08
1131.3	-1.30006e-07
1139.85	-3.30872e-07
1148.41	-1.89399e-07
1156.97	-9.28696e-08
1165.53	2.18153e-07
1174.09	-4.96653e-08
1182.64	7.79394e-08
1191.2	1.73086e-07
1199.76	4.14166e-07
1208.32	1.26727e-06
1216.87	1.85958e-06
1225.43	2.69862e-06
1233.99	1.53983e-06
1242.55	2.00917e-06
1251.1	5.21353e-06
1259.66	5.84589e-06
1268.22	1.99395e-06
1276.78	1.30703e-06
1285.33	5.67418e-07
1293.89	3.98668e-07
1302.45	2.22082e-07
1311.01	-7.82814e-08
1319.57	-4.86408e-07
1328.12	-1.18088e-07
1336.68	-3.68925e-07
1345.24	-2.17142e-07
1353.8	-1.18808e-07
1362.35	-1.22635e-07
1370.91	2.39486e-07
1379.47	-1.44456e-07
1388.03	2.42215e-07
1396.58	-4.52706e-08
1405.14	-5.55493e-07
1413.7	-1.44747e-07
1422.26	-1.48836e-07
1430.81	-1.97985e-07
1439.37	-2.0307e-07
1447.93	-1.01916e-06
1456.49	-2.18196e-06
1465.05	-1.06125e-06
1473.6	-1.44383e-06
1482.16	-7.35666e-08
1490.72	-7.08818e-07
1499.28	5.05311e-08
1507.83	3.48363e-07
1516.39	7.85804e-07
1524.95	1.32832e-06
1533.51	1.63494e-06
1542.06	1.76725e-06
1550.62	6.36658e-06
1559.18	8.62809e-06
1567.74	9.70653e-06
1576.29	6.03104e-06
1584.85	8.01232e-06
1593.41	7.26513e-06
1601.97	5.79912e-06
1610.53	2.80143e-06
1619.08	7.2313e-07
1627.64	-4.27852e-07
1636.2	-4.85725e-07
1644.76	-1.17833e-07
1653.31	-5.19691e-06
1661.87	-2.63067e-07
1670.43	-3.39232e-07
1678.99	-3.66291e-07
1687.54	-4.07581e-07
1696.1	-2.27069e-06
1704.66	-5.94659e-07
1713.22	-4.62776e-07
1721.77	-5.05086e-07
1730.33	-4.69652e-07
1738.89	-3.84204e-07
1747.45	-3.07203e-07
1756.01	-3.59655e-07
1764.56	-2.16487e-07
1773.12	-3.38067e-07
1781.68	8.67287e-08
1790.24	8.21449e-08
1798.79	1.22082e-07
1807.35	4.19601e-08
1815.91	-3.69819e-07
1824.47	-3.25313e-07
1833.02	-1.80559e-07
1841.58	-3.28783e-07
1850.14	-1.5625e-07
1858.7	-3.01404e-07
1867.25	-2.52918e-07
1875.81	-2.11372e-07
1884.37	-2.12747e-07
1892.93	-2.99949e-07
1901.49	-3.49811e-07
1910.04	-4.1314e-07
1918.6	-4.20402e-07
1927.16	-4.38635e-07
1935.72	-3.46078e-07
1944.27	-4.43452e-07
1952.83	-3.07283e-07
1961.39	-2.54766e-07
1969.95	-1.94128e-07
1978.5	-2.67906e-07
1987.06	-3.08913e-07
1995.62	-1.90825e-07
2004.18	-1.9268e-07
2012.73	-2.03019e-07
2021.29	-1.4602e-07
2029.85	-2.61001e-07
2038.41	-2.75495e-07
2046.97	-2.94121e-07
2055.52	-2.38118e-07
2064.08	-4.14108e-07
2072.64	-3.97402e-07
2081.2	-2.96551e-07
2089.75	-4.00793e-07
2098.31	-1.97519e-07
2106.87	-3.78529e-07
2115.43	-2.65097e-07
2123.98	-1.09735e-07
2132.54	-3.13569e-07
2141.1	-3.61198e-07
2149.66	-3.08687e-07
2158.21	4.3165e-07
2166.77	-1.34e-07
2175.33	-1.58331e-07
2183.89	8.57829e-08
2192.45	1.03009e-06
2201	1.61467e-07
2209.56	2.50084e-06
2218.12	-1.24854e-07
2226.68	-2.03943e-08
2235.23	5.04882e-07
2243.79	1.60583e-06
2252.35	-1.86576e-07
2260.91	-3.25938e-07
2269.46	-3.26491e-07
2278.02	-3.13075e-07
2286.58	-3.85012e-07
2295.14	-1.20285e-07
2303.69	-1.13111e-07
2312.25	-1.60048e-07
2320.81	3.03696e-08
2329.37	1.85615e-07
2337.93	-1.92375e-08
2346.48	-1.01783e-07
2355.04	-2.3464e-07
2363.6	-2.81264e-07
2372.16	-1.71107e-07
2380.71	-2.74811e-07
2389.27	-2.55049e-07
2397.83	-1.75371e-07
2406.39	-4.88882e-07
2414.94	-2.50546e-07
2423.5	-4.01222e-07
2432.06	-3.63053e-07
2440.62	-4.42942e-07
2449.17	-4.1704e-07
2457.73	-1.39181e-07
2466.29	-4.04395e-07
2474.85	-5.78521e-07
2483.41	-4.95809e-07
2491.96	-4.26906e-07
2500.52	-4.35303e-07
2509.08	-6.44143e-07
2517.64	-6.5964e-07
2526.19	-4.68204e-07
2534.75	-5.48828e-07
2543.31	-6.39995e-07
2551.87	-6.38737e-07
2560.42	-4.0131e-07
2568.98	-4.93124e-07
2577.54	-5.22162e-07
2586.1	-5.95249e-07
2594.65	-4.52881e-07
2603.21	-3.9933e-07
2611.77	-5.37573e-07
2620.33	-5.40636e-07
2628.89	-4.51557e-07
2637.44	-5.24418e-07
2646	-6.38788e-07
2654.56	-5.82705e-07
2663.12	-4.7612e-07
2671.67	-5.23494e-07
2680.23	-7.34342e-07
2688.79	-6.08236e-07
2697.35	-6.61619e-07
2705.9	-6.83658e-07
2714.46	-7.32698e-07
2723.02	-9.14901e-07
2731.58	-7.39093e-07
2740.13	-4.8424e-07
2748.69	-6.39304e-07
2757.25	-4.92127e-07
2765.81	-6.24243e-07
2774.37	-7.3336e-07
2782.92	-7.36365e-07
2791.48	-7.33374e-07
2800.04	-4.77408e-07
2808.6	-5.37362e-07
2817.15	-5.33433e-07
2825.71	-3.08294e-07
2834.27	-6.52386e-07
2842.83	-8.95219e-07
2851.38	-6.42862e-07
2859.94	-5.99403e-07
2868.5	-6.26884e-07
2877.06	-4.28281e-07
2885.61	-4.99272e-07
2894.17	-4.31956e-07
2902.73	-3.70845e-07
2911.29	-6.00029e-07
2919.85	-8.11787e-07
2928.4	-6.74578e-07
2936.96	-5.97133e-07
2945.52	-5.77532e-07
2954.08	-5.51702e-07
2962.63	-1.16494e-06
2971.19	-5.59437e-07
2979.75	-5.68146e-07
2988.31	-4.70423e-07
2996.86	-5.80835e-07
3005.42	-5.77968e-07
3013.98	-5.47795e-07
3022.54	-4.65061e-07
3031.09	-7.78252e-07
3039.65	-8.09997e-07
3048.21	-5.68102e-07
3056.77	-6.76484e-07
3065.33	-5.06854e-07
3073.88	-7.6776e-07
3082.44	-5.57974e-07
3091	-1.08709e-07
3099.56	9.02794e-08
3108.11	-3.30893e-07
3116.67	-1.1803e-07
3125.23	-4.77808e-08
3133.79	1.94536e-07
3142.34	1.86321e-07
3150.9	4.46762e-07
3159.46	3.93983e-07
3168.02	1.80973e-07
3176.57	3.4057e-07
3185.13	2.62391e-07
3193.69	5.55144e-07
3202.25	2.59808e-07
3210.81	5.51535e-07
3219.36	5.56905e-07
3227.92	4.92156e-07
3236.48	3.53878e-07
3245.04	6.53136e-07
3253.59	4.47395e-07
3262.15	6.52925e-07
3270.71	4.0008e-07
3279.27	2.34742e-07
3287.82	1.03725e-07
3296.38	-6.11176e-09
3304.94	8.68742e-09
3313.5	-8.55282e-08
3322.05	1.77023e-08
3330.61	-2.02707e-08
3339.17	-2.18794e-07
3347.73	-3.7297e-07
3356.29	-1.44528e-07
3364.84	-6.39726e-07
3373.4	-2.58149e-08
3381.96	-1.15061e-07
3390.52	-4.35521e-07
3399.07	-4.40738e-07
3407.63	-3.60062e-07
3416.19	-3.54962e-07
3424.75	-5.85936e-07
3433.3	-5.67062e-07
3441.86	-4.32334e-07
3450.42	-1.58251e-07
3458.98	-6.44426e-07
3467.53	-6.55522e-07
3476.09	-5.90592e-07
3484.65	-8.38744e-07
3493.21	-5.48043e-07
3501.77	-9.31111e-07
3510.32	-7.81432e-07
3518.88	-1.13319e-06
3527.44	-8.60339e-07
3536	-6.40927e-07
3544.55	-8.94907e-07
3553.11	-7.57101e-07
3561.67	-1.00434e-06
3570.23	-7.38504e-07
3578.78	-6.28885e-07
3587.34	-7.99294e-07
3595.9	-1.01064e-06
3604.46	-6.67877e-07
3613.01	-1.5373e-06
3621.57	-7.90294e-07
3630.13	-8.20525e-07
3638.69	-9.0916e-07
3647.25	-1.42328e-06
3655.8	-1.0887e-06
3664.36	-7.50385e-07
3672.92	-9.11154e-07
3681.48	-1.0371e-06
3690.03	-9.7922e-07
3698.59	-1.11299e-06
3707.15	-1.16248e-06
3715.71	-1.28896e-06
3724.26	-1.44365e-06
3732.82	-1.40754e-06
3741.38	-1.58399e-06
3749.94	-1.56885e-06
3758.49	-1.23792e-06
3767.05	-1.49028e-06
3775.61	-1.17292e-06
3784.17	-1.50837e-06
3792.73	-9.46245e-07
3801.28	-3.47128e-06
3809.84	-1.27822e-06
3818.4	-1.45878e-06
3826.96	-1.21825e-06
3835.51	-1.28047e-06
3844.07	-1.32987e-06
3852.63	-1.49504e-06
3861.19	-1.48047e-06
3869.74	-1.7585e-06
3878.3	-1.26761e-06
3886.86	-1.54641e-06
3895.42	-1.57791e-06
3903.97	-1.9561e-06
3912.53	-1.32788e-06
3921.09	-1.3928e-06
3929.65	-1.12869e-06
3938.21	-1.55509e-06
3946.76	-1.64932e-06
3955.32	-1.41274e-06
3963.88	-1.53273e-06
3972.44	-1.56693e-06
