Infrared Spectrum: Carbon tetrachloride
Formula: C Cl4
CAS: 56-23-5
State: gas
Melting point: -22.99 C
Boiling point: 76.54 C
Class: IUPAC A
Instrument: IFS66V (Bruker)
Instrument parameters: KBr Beam Splitter; MCT Detector; Multipass cell
Sampling: 1 L/min Flow
Resolution: 0.9640
Temperature: 23 C
Pressure: 101.3 Pa
Origin: NIST, Analytical Chemistry Division, 301-975-3108
cm-1	(micromol/mol)-1m-1 (base 10)
575.17	-7.03521e-07
583.848	2.79693e-07
592.526	-7.93873e-08
601.205	2.74687e-07
609.883	-1.38962e-07
618.561	8.94426e-07
627.239	1.59027e-06
635.917	5.36729e-07
644.595	1.95205e-07
653.274	1.91611e-07
661.952	6.67564e-08
670.63	3.41545e-07
679.308	5.51833e-07
687.986	4.39806e-07
696.664	9.35266e-07
705.343	9.76549e-07
714.021	1.22375e-06
722.699	2.12872e-06
731.377	5.76884e-06
740.055	2.35729e-05
748.734	0.000105702
757.412	0.000306494
766.09	0.000516881
774.768	0.000665178
783.446	0.000638746
792.124	0.00372652
800.803	0.00177784
809.481	0.00012786
818.159	2.2204e-05
826.837	6.62187e-06
835.515	2.77587e-06
844.194	1.73155e-06
852.872	1.43332e-06
861.55	1.1691e-06
870.228	1.24698e-06
878.906	1.18661e-06
887.584	9.71413e-07
896.263	7.84189e-07
904.941	5.67957e-07
913.619	4.64202e-07
922.297	2.00182e-07
930.975	2.28179e-07
939.653	2.26812e-07
948.332	3.34357e-07
957.01	4.57523e-07
965.688	1.02523e-06
974.366	2.16029e-06
983.044	2.46039e-06
991.723	2.3714e-06
1000.4	4.24336e-06
1009.08	5.33655e-06
1017.76	4.6687e-06
1026.44	1.82467e-06
1035.11	1.91669e-07
1043.79	6.86554e-08
1052.47	2.10019e-07
1061.15	4.18066e-07
1069.83	5.5355e-07
1078.5	6.43983e-07
1087.18	1.53201e-07
1095.86	1.24804e-07
1104.54	4.54264e-07
1113.22	5.35848e-07
1121.9	3.42106e-07
1130.57	1.29366e-08
1139.25	-1.85521e-07
1147.93	-2.23632e-07
1156.61	-8.13809e-08
1165.29	-9.41647e-08
1173.96	6.06883e-08
1182.64	7.08745e-08
1191.32	3.43975e-07
1200	5.3603e-07
1208.68	1.27906e-06
1217.36	2.08304e-06
1226.03	2.69696e-06
1234.71	1.86956e-06
1243.39	2.31985e-06
1252.07	5.44141e-06
1260.75	5.17958e-06
1269.42	1.75825e-06
1278.1	1.13368e-06
1286.78	5.56977e-07
1295.46	1.1362e-07
1304.14	-8.05515e-08
1312.82	-1.52517e-07
1321.49	-2.28216e-07
1330.17	-3.21115e-07
1338.85	-3.5673e-07
1347.53	-3.13206e-07
1356.21	3.08076e-07
1364.88	1.67709e-08
1373.56	-1.46951e-07
1382.24	2.60332e-08
1390.92	4.58163e-08
1399.6	-3.68073e-07
1408.28	-1.80224e-07
1416.95	-2.79351e-07
1425.63	-2.21726e-07
1434.31	-2.49294e-07
1442.99	-1.32632e-07
1451.67	-2.20729e-07
1460.34	-1.32218e-07
1469.02	-9.11525e-08
1477.7	-1.18044e-07
1486.38	-9.93961e-08
1495.06	-6.42607e-08
1503.73	2.70707e-07
1512.41	3.70794e-07
1521.09	-1.33753e-07
1529.77	1.74782e-06
1538.45	2.48539e-06
1547.13	5.37657e-06
1555.8	8.02786e-06
1564.48	9.68737e-06
1573.16	8.93893e-06
1581.84	8.29807e-06
1590.52	7.64828e-06
1599.19	6.59602e-06
1607.87	3.79574e-06
1616.55	-2.15585e-07
1625.23	1.41283e-07
1633.91	-2.03551e-07
1642.59	-1.13155e-07
1651.26	-3.46216e-07
1659.94	-2.54154e-07
1668.62	-4.9757e-07
1677.3	-3.30777e-07
1685.98	-4.42673e-07
1694.65	-4.6987e-07
1703.33	-4.1298e-07
1712.01	-3.38693e-07
1720.69	-3.40112e-07
1729.37	-3.46668e-07
1738.05	-4.04169e-07
1746.72	-3.76193e-07
1755.4	-3.07145e-07
1764.08	-1.85281e-07
1772.76	-1.06719e-06
1781.44	6.9252e-08
1790.11	-6.14814e-09
1798.79	1.49927e-07
1807.47	-2.01106e-08
1816.15	-2.18859e-07
1824.83	-4.99622e-07
1833.51	-2.74141e-07
1842.18	-3.33178e-07
1850.86	-2.62413e-07
1859.54	-2.85259e-07
1868.22	-3.44165e-07
1876.9	-2.44987e-07
1885.57	-3.75022e-07
1894.25	-3.31679e-07
1902.93	-3.22468e-07
1911.61	-2.31032e-07
1920.29	-2.92753e-07
1928.97	-3.43633e-07
1937.64	-3.59102e-07
1946.32	-3.30471e-07
1955	-2.45678e-07
1963.68	-3.47133e-07
1972.36	-3.32007e-07
1981.03	-2.33054e-07
1989.71	-2.72723e-07
1998.39	-1.82414e-07
2007.07	-2.80893e-07
2015.75	-2.00087e-07
2024.43	-1.81686e-07
2033.1	-2.69579e-07
2041.78	-2.61772e-07
2050.46	-3.09873e-07
2059.14	-2.93364e-07
2067.82	-3.61234e-07
2076.49	-3.05231e-07
2085.17	-3.48923e-07
2093.85	-3.3758e-07
2102.53	-3.63766e-07
2111.21	-1.03783e-07
2119.89	-9.6624e-09
2128.56	-2.69441e-07
2137.24	-2.24774e-07
2145.92	-2.64835e-07
2154.6	-8.61685e-08
2163.28	-2.63577e-07
2171.95	-2.03354e-07
2180.63	-1.61583e-07
2189.31	4.69005e-08
2197.99	2.94186e-07
2206.67	6.41603e-07
2215.35	6.77444e-07
2224.02	-9.70387e-08
2232.7	9.0796e-07
2241.38	8.81635e-07
2250.06	6.70183e-08
2258.74	-3.09982e-07
2267.41	-3.92091e-07
2276.09	-3.35361e-07
2284.77	-2.87049e-07
2293.45	-2.95984e-07
2302.13	-2.25618e-07
2310.81	-4.77517e-08
2319.48	5.4933e-09
2328.16	7.02925e-08
2336.84	1.0115e-07
2345.52	4.06796e-08
2354.2	-2.62405e-07
2362.87	-4.07785e-07
2371.55	-2.69121e-07
2380.23	-2.64566e-07
2388.91	-2.64217e-07
2397.59	-3.27234e-07
2406.27	-3.31286e-07
2414.94	-3.60492e-07
2423.62	-3.65701e-07
2432.3	-3.72279e-07
2440.98	-3.96013e-07
2449.66	-4.06985e-07
2458.33	-4.33011e-07
2467.01	-3.9503e-07
2475.69	-4.39042e-07
2484.37	-3.13759e-07
2493.05	-4.52561e-07
2501.73	-4.23763e-07
2510.4	-4.9303e-07
2519.08	-5.03565e-07
2527.76	-4.89253e-07
2536.44	-5.18262e-07
2545.12	-5.12929e-07
2553.79	-5.66378e-07
2562.47	-5.32771e-07
2571.15	-5.05238e-07
2579.83	-5.1517e-07
2588.51	-5.64741e-07
2597.19	-5.51972e-07
2605.86	-5.21951e-07
2614.54	-5.00422e-07
2623.22	-5.41349e-07
2631.9	-4.71216e-07
2640.58	-5.83542e-07
2649.25	-5.871e-07
2657.93	-5.36023e-07
2666.61	-5.50356e-07
2675.29	-5.02597e-07
2683.97	-5.95009e-07
2692.65	-5.81446e-07
2701.32	-5.74571e-07
2710	-6.3392e-07
2718.68	-6.21631e-07
2727.36	-5.41414e-07
2736.04	-5.79089e-07
2744.71	-6.30086e-07
2753.39	-5.80471e-07
2762.07	-5.68801e-07
2770.75	-5.68713e-07
2779.43	-6.02379e-07
2788.11	-5.78907e-07
2796.78	-4.85048e-07
2805.46	-6.12842e-07
2814.14	-5.44637e-07
2822.82	-5.05289e-07
2831.5	-5.97213e-07
2840.17	-5.86139e-07
2848.85	-5.77386e-07
2857.53	-4.55239e-07
2866.21	-6.16392e-07
2874.89	-6.29816e-07
2883.57	-5.45125e-07
2892.24	-6.168e-07
2900.92	-6.51317e-07
2909.6	-5.89428e-07
2918.28	-7.18466e-07
2926.96	-6.98938e-07
2935.63	-6.56897e-07
2944.31	-6.6744e-07
2952.99	-6.81388e-07
2961.67	-1.03863e-07
2970.35	-6.79671e-07
2979.03	-5.79911e-07
2987.7	-5.28696e-07
2996.38	-6.30238e-07
3005.06	-5.50451e-07
3013.74	-6.18182e-07
3022.42	-6.00109e-07
3031.09	-5.73494e-07
3039.77	-6.7433e-07
3048.45	-5.65643e-07
3057.13	-6.32429e-07
3065.81	-6.12151e-07
3074.49	-4.56534e-07
3083.16	-4.12449e-07
3091.84	-4.12856e-07
3100.52	-3.59735e-07
3109.2	-1.50618e-07
3117.88	-5.25393e-08
3126.55	2.83906e-08
3135.23	1.37842e-07
3143.91	1.01768e-07
3152.59	2.16094e-07
3161.27	2.9885e-07
3169.95	3.38489e-07
3178.62	3.44929e-07
3187.3	4.44965e-07
3195.98	4.11641e-07
3204.66	4.91407e-07
3213.34	4.56585e-07
3222.01	4.09844e-07
3230.69	4.27743e-07
3239.37	5.11401e-07
3248.05	4.94376e-07
3256.73	4.3766e-07
3265.41	4.53529e-07
3274.08	2.82443e-07
3282.76	1.30006e-07
3291.44	1.1373e-07
3300.12	2.23574e-07
3308.8	-1.12318e-07
3317.47	-1.07159e-07
3326.15	-2.08818e-08
3334.83	-1.61379e-07
3343.51	-2.40832e-07
3352.19	-1.40636e-07
3360.86	-3.06308e-07
3369.54	-2.44601e-07
3378.22	-2.51433e-07
3386.9	-2.80311e-07
3395.58	-3.5812e-07
3404.26	-3.90854e-07
3412.93	-4.43735e-07
3421.61	-4.39654e-07
3430.29	-4.45401e-07
3438.97	-4.79795e-07
3447.65	-4.76826e-07
3456.32	-4.43502e-07
3465	-6.01309e-07
3473.68	-6.04031e-07
3482.36	-6.35041e-07
3491.04	-6.54787e-07
3499.72	-6.53478e-07
3508.39	-7.35288e-07
3517.07	-6.77801e-07
3525.75	-8.53223e-07
3534.43	-7.22642e-07
3543.11	-8.72068e-07
3551.78	-9.3699e-07
3560.46	-8.94979e-07
3569.14	-8.32872e-07
3577.82	-7.24127e-07
3586.5	-1.10455e-06
3595.18	-9.29387e-07
3603.85	-7.86663e-07
3612.53	-1.32712e-06
3621.21	-9.75836e-07
3629.89	-1.55009e-06
3638.57	-8.51615e-07
3647.24	-1.37154e-06
3655.92	-1.38421e-06
3664.6	-1.03659e-06
3673.28	-1.15712e-06
3681.96	-1.04114e-06
3690.64	-1.37883e-06
3699.31	-1.08004e-06
3707.99	-1.1679e-06
3716.67	-1.0643e-06
3725.35	-1.24963e-06
3734.03	-1.35706e-06
3742.7	-1.25522e-06
3751.38	-1.4549e-06
3760.06	-1.55839e-06
3768.74	-1.20098e-06
3777.42	-1.18507e-06
3786.1	-1.18359e-06
3794.77	-1.19246e-06
3803.45	-1.27026e-06
3812.13	-1.25917e-06
3820.81	-1.88508e-06
3829.49	-1.176e-06
3838.16	-2.48699e-06
3846.84	-1.26232e-06
3855.52	-1.50848e-06
3864.2	-1.37058e-06
3872.88	-1.32204e-06
3881.56	-1.54656e-06
3890.23	-1.41096e-06
3898.91	-1.76049e-06
3907.59	-1.39422e-06
3916.27	-1.53045e-06
3924.95	-1.53505e-06
3933.62	-1.37228e-06
3942.3	-1.45508e-06
3950.98	-1.3201e-06
3959.66	-1.37381e-06
3968.34	-1.46529e-06
