Infrared Spectrum: Carbon tetrachloride
Formula: C Cl4
CAS: 56-23-5
State: gas
Melting point: -22.99 C
Boiling point: 76.54 C
Class: IUPAC A
Instrument: IFS66V (Bruker)
Instrument parameters: KBr Beam Splitter; MCT Detector; Multipass cell
Sampling: 1 L/min Flow
Resolution: 0.2410
Temperature: 23 C
Pressure: 101.3 Pa
Origin: NIST, Analytical Chemistry Division, 301-975-3108
cm-1	(micromol/mol)-1m-1 (base 10)
575.05	-1.54934e-06
583.608	8.93553e-07
592.165	5.45431e-07
600.723	-1.79293e-07
609.281	-5.10528e-07
617.838	-3.49847e-07
626.396	1.0966e-06
634.954	9.51979e-08
643.511	5.84982e-09
652.069	3.81599e-07
660.626	3.555e-07
669.184	-8.58702e-08
677.742	-3.19863e-07
686.299	-6.25968e-07
694.857	-6.672e-09
703.415	-7.86743e-08
711.972	9.28267e-07
720.53	9.05464e-07
729.088	3.34539e-06
737.645	1.36308e-05
746.203	6.55645e-05
754.761	0.000234815
763.318	0.000450669
771.876	0.000563108
780.434	0.000782055
788.991	0.0012784
797.549	0.00480981
806.106	0.000325869
814.664	3.22472e-05
823.222	7.42858e-06
831.779	1.85274e-06
840.337	9.55551e-07
848.895	8.70612e-07
857.452	8.33753e-07
866.01	5.15847e-07
874.568	8.4479e-07
883.125	8.67928e-07
891.683	4.88737e-07
900.241	4.18997e-07
908.798	3.51506e-07
917.356	-9.22584e-09
925.914	-2.66298e-09
934.471	2.51833e-07
943.029	1.65832e-07
951.586	1.15338e-07
960.144	2.45758e-07
968.702	1.47557e-06
977.259	2.31951e-06
985.817	2.63084e-06
994.375	2.99227e-06
1002.93	4.51625e-06
1011.49	5.42999e-06
1020.05	4.12462e-06
1028.61	1.26753e-06
1037.16	-7.79831e-08
1045.72	3.29089e-08
1054.28	-5.36379e-08
1062.84	5.39537e-07
1071.39	5.0697e-07
1079.95	2.2134e-07
1088.51	-1.32676e-07
1097.07	6.73094e-08
1105.62	2.99498e-07
1114.18	5.58658e-07
1122.74	8.14319e-08
1131.3	-1.18524e-08
1139.85	-2.79889e-07
1148.41	-2.68146e-07
1156.97	-1.04569e-07
1165.53	2.45489e-08
1174.09	-2.90599e-08
1182.64	4.57145e-08
1191.2	2.34313e-07
1199.76	3.98945e-07
1208.32	1.25799e-06
1216.87	1.91334e-06
1225.43	2.73406e-06
1233.99	1.6256e-06
1242.55	2.09969e-06
1251.1	5.07263e-06
1259.66	5.91748e-06
1268.22	1.9872e-06
1276.78	1.30595e-06
1285.33	6.2548e-07
1293.89	3.22519e-07
1302.45	1.06956e-07
1311.01	-6.84153e-08
1319.57	-3.00677e-07
1328.12	-1.14734e-07
1336.68	-2.9869e-07
1345.24	-1.69936e-07
1353.8	-5.69776e-08
1362.35	-6.80442e-08
1370.91	1.83345e-07
1379.47	-1.27357e-07
1388.03	1.23567e-07
1396.58	-5.14115e-08
1405.14	-6.12936e-07
1413.7	-1.90432e-07
1422.26	-2.24032e-07
1430.81	-2.49309e-07
1439.37	-1.81366e-07
1447.93	-9.30777e-07
1456.49	-1.78239e-06
1465.05	-1.02959e-06
1473.6	-1.48775e-06
1482.16	-7.21842e-08
1490.72	-7.30202e-07
1499.28	-1.45009e-08
1507.83	3.00102e-07
1516.39	7.61685e-07
1524.95	1.30396e-06
1533.51	1.65098e-06
1542.06	1.8313e-06
1550.62	6.34675e-06
1559.18	8.60572e-06
1567.74	9.7628e-06
1576.29	6.00952e-06
1584.85	8.03072e-06
1593.41	7.25201e-06
1601.97	5.83642e-06
1610.53	2.77949e-06
1619.08	7.42687e-07
1627.64	-4.70467e-07
1636.2	-5.59422e-07
1644.76	-1.62602e-07
1653.31	-4.5624e-06
1661.87	-3.37369e-07
1670.43	-3.51782e-07
1678.99	-3.37507e-07
1687.54	-3.53863e-07
1696.1	-2.5068e-06
1704.66	-5.99119e-07
1713.22	-3.89719e-07
1721.77	-4.22555e-07
1730.33	-4.52379e-07
1738.89	-3.54911e-07
1747.45	-3.33578e-07
1756.01	-3.56636e-07
1764.56	-2.22082e-07
1773.12	-3.03158e-07
1781.68	7.0358e-08
1790.24	1.85826e-08
1798.79	1.22817e-07
1807.35	-4.80937e-09
1815.91	-2.9498e-07
1824.47	-2.89486e-07
1833.02	-2.35077e-07
1841.58	-3.24614e-07
1850.14	-1.70001e-07
1858.7	-2.51128e-07
1867.25	-2.39952e-07
1875.81	-2.15825e-07
1884.37	-2.56068e-07
1892.93	-2.80799e-07
1901.49	-3.66509e-07
1910.04	-4.65847e-07
1918.6	-3.55806e-07
1927.16	-4.15439e-07
1935.72	-3.78754e-07
1944.27	-4.55879e-07
1952.83	-3.55319e-07
1961.39	-3.1736e-07
1969.95	-2.29475e-07
1978.5	-2.78456e-07
1987.06	-2.77794e-07
1995.62	-2.63911e-07
2004.18	-2.33287e-07
2012.73	-2.18102e-07
2021.29	-1.49607e-07
2029.85	-2.81403e-07
2038.41	-2.70103e-07
2046.97	-2.91567e-07
2055.52	-2.62798e-07
2064.08	-3.28682e-07
2072.64	-3.6127e-07
2081.2	-3.48778e-07
2089.75	-3.6405e-07
2098.31	-2.45212e-07
2106.87	-3.3766e-07
2115.43	-1.57596e-07
2123.98	-1.72082e-07
2132.54	-3.01964e-07
2141.1	-3.58789e-07
2149.66	-3.14341e-07
2158.21	4.34509e-07
2166.77	-1.6987e-07
2175.33	-2.18197e-07
2183.89	6.29875e-08
2192.45	7.86125e-07
2201	2.48072e-07
2209.56	2.04001e-06
2218.12	-6.45372e-09
2226.68	2.34211e-08
2235.23	5.52903e-07
2243.79	1.33e-06
2252.35	-1.45314e-07
2260.91	-3.14202e-07
2269.46	-3.14603e-07
2278.02	-2.96093e-07
2286.58	-3.6624e-07
2295.14	-1.56134e-07
2303.69	-1.34066e-07
2312.25	-1.66436e-07
2320.81	-7.04307e-09
2329.37	8.63504e-08
2337.93	3.6867e-08
2346.48	-7.62151e-08
2355.04	-3.09866e-07
2363.6	-3.05246e-07
2372.16	-1.72352e-07
2380.71	-2.17906e-07
2389.27	-2.75371e-07
2397.83	-2.16793e-07
2406.39	-4.21347e-07
2414.94	-3.14821e-07
2423.5	-3.92964e-07
2432.06	-3.7102e-07
2440.62	-4.47031e-07
2449.17	-4.3587e-07
2457.73	-2.26193e-07
2466.29	-3.81083e-07
2474.85	-5.33142e-07
2483.41	-4.66283e-07
2491.96	-4.4968e-07
2500.52	-3.90287e-07
2509.08	-6.44579e-07
2517.64	-5.85732e-07
2526.19	-5.00429e-07
2534.75	-5.52634e-07
2543.31	-6.27168e-07
2551.87	-6.40759e-07
2560.42	-4.64224e-07
2568.98	-5.0486e-07
2577.54	-4.5374e-07
2586.1	-5.51884e-07
2594.65	-4.91625e-07
2603.21	-3.86147e-07
2611.77	-5.57385e-07
2620.33	-5.58702e-07
2628.89	-4.81155e-07
2637.44	-5.6031e-07
2646	-5.7297e-07
2654.56	-5.6023e-07
2663.12	-5.79627e-07
2671.67	-5.51433e-07
2680.23	-6.69776e-07
2688.79	-6.6127e-07
2697.35	-6.50262e-07
2705.9	-6.14151e-07
2714.46	-6.48348e-07
2723.02	-8.3563e-07
2731.58	-7.14748e-07
2740.13	-5.21842e-07
2748.69	-5.97955e-07
2757.25	-5.70634e-07
2765.81	-6.16101e-07
2774.37	-7.01746e-07
2782.92	-6.66756e-07
2791.48	-6.4319e-07
2800.04	-5.61998e-07
2808.6	-6.01499e-07
2817.15	-6.0211e-07
2825.71	-4.48392e-07
2834.27	-6.01862e-07
2842.83	-7.57014e-07
2851.38	-6.17426e-07
2859.94	-5.44383e-07
2868.5	-5.65301e-07
2877.06	-4.78296e-07
2885.61	-4.6851e-07
2894.17	-4.97395e-07
2902.73	-4.63715e-07
2911.29	-6.0999e-07
2919.85	-7.64275e-07
2928.4	-7.0999e-07
2936.96	-5.36088e-07
2945.52	-5.59524e-07
2954.08	-6.31039e-07
2962.63	-1.26748e-06
2971.19	-5.72097e-07
2979.75	-6.64268e-07
2988.31	-4.83032e-07
2996.86	-6.34888e-07
3005.42	-5.74811e-07
3013.98	-5.49345e-07
3022.54	-4.98254e-07
3031.09	-7.24498e-07
3039.65	-8.39843e-07
3048.21	-5.52103e-07
3056.77	-6.56854e-07
3065.33	-5.08593e-07
3073.88	-6.71937e-07
3082.44	-4.66414e-07
3091	-2.26448e-07
3099.56	-1.51171e-07
3108.11	-3.19492e-07
3116.67	-1.59757e-07
3125.23	-1.39843e-08
3133.79	1.0422e-07
3142.34	2.61198e-07
3150.9	3.38533e-07
3159.46	4.08709e-07
3168.02	2.37354e-07
3176.57	3.59851e-07
3185.13	3.11147e-07
3193.69	4.50793e-07
3202.25	3.41342e-07
3210.81	6.00415e-07
3219.36	4.37369e-07
3227.92	4.79715e-07
3236.48	4.1362e-07
3245.04	5.9308e-07
3253.59	3.94878e-07
3262.15	5.85324e-07
3270.71	4.09793e-07
3279.27	2.4701e-07
3287.82	8.47351e-08
3296.38	-9.23312e-09
3304.94	1.91356e-09
3313.5	-4.19383e-08
3322.05	2.10128e-08
3330.61	-3.9741e-08
3339.17	-2.75356e-07
3347.73	-2.89843e-07
3356.29	-1.79053e-07
3364.84	-4.02517e-07
3373.4	-1.5251e-07
3381.96	-2.25196e-07
3390.52	-3.35659e-07
3399.07	-4.19376e-07
3407.63	-3.01913e-07
3416.19	-4.93524e-07
3424.75	-5.33447e-07
3433.3	-5.94798e-07
3441.86	-4.60434e-07
3450.42	-1.90767e-07
3458.98	-5.27415e-07
3467.53	-5.50284e-07
3476.09	-5.33651e-07
3484.65	-6.85644e-07
3493.21	-6.45263e-07
3501.77	-9.20925e-07
3510.32	-7.61372e-07
3518.88	-1.03158e-06
3527.44	-8.1899e-07
3536	-7.34247e-07
3544.55	-8.70401e-07
3553.11	-8.45336e-07
3561.67	-1.0206e-06
3570.23	-8.89144e-07
3578.78	-6.60404e-07
3587.34	-8.93139e-07
3595.9	-8.29671e-07
3604.46	-6.9749e-07
3613.01	-1.39079e-06
3621.57	-8.44164e-07
3630.13	-9.00807e-07
3638.69	-8.29678e-07
3647.25	-1.44576e-06
3655.8	-1.05498e-06
3664.36	-9.38504e-07
3672.92	-9.49425e-07
3681.48	-1.08433e-06
3690.03	-1.11131e-06
3698.59	-9.58935e-07
3707.15	-1.20952e-06
3715.71	-1.25563e-06
3724.26	-1.42258e-06
3732.82	-1.37949e-06
3741.38	-1.48878e-06
3749.94	-1.54318e-06
3758.49	-1.31893e-06
3767.05	-1.36697e-06
3775.61	-1.24163e-06
3784.17	-1.41911e-06
3792.73	-1.07004e-06
3801.28	-3.38215e-06
3809.84	-1.16234e-06
3818.4	-1.39621e-06
3826.96	-1.22269e-06
3835.51	-1.40728e-06
3844.07	-1.31615e-06
3852.63	-1.57285e-06
3861.19	-1.48224e-06
3869.74	-1.78435e-06
3878.3	-1.36492e-06
3886.86	-1.5627e-06
3895.42	-1.51871e-06
3903.97	-1.99029e-06
3912.53	-1.36267e-06
3921.09	-1.4163e-06
3929.65	-1.26944e-06
3938.21	-1.52613e-06
3946.76	-1.62105e-06
3955.32	-1.44069e-06
3963.88	-1.57274e-06
3972.44	-1.66095e-06
