Infrared Spectrum: Carbon tetrachloride
Formula: C Cl4
CAS: 56-23-5
State: gas
Melting point: -22.99 C
Boiling point: 76.54 C
Class: IUPAC A
Instrument: IFS66V (Bruker)
Instrument parameters: KBr Beam Splitter; MCT Detector; Multipass cell
Sampling: 1 L/min Flow
Resolution: 0.4820
Temperature: 23 C
Pressure: 101.3 Pa
Origin: NIST, Analytical Chemistry Division, 301-975-3108
cm-1	(micromol/mol)-1m-1 (base 10)
575.17	-4.60681e-07
583.848	3.69907e-07
592.526	-2.75218e-07
601.205	4.56701e-07
609.883	-1.55035e-07
618.561	1.05012e-06
627.239	1.46866e-06
635.917	5.35004e-07
644.595	1.28587e-07
653.274	4.89304e-08
661.952	-1.2516e-07
670.63	2.34058e-07
679.308	4.91138e-07
687.986	6.98996e-08
696.664	8.66982e-07
705.343	6.8464e-07
714.021	8.59204e-07
722.699	1.71692e-06
731.377	5.04072e-06
740.055	2.24139e-05
748.734	0.000104403
757.412	0.000304679
766.09	0.000509769
774.768	0.00065527
783.446	0.00062971
792.124	0.00376688
800.803	0.00175357
809.481	0.000118829
818.159	1.90631e-05
826.837	4.87559e-06
835.515	1.88086e-06
844.193	9.95729e-07
852.872	1.02425e-06
861.55	8.1819e-07
870.228	1.05957e-06
878.906	9.75938e-07
887.584	7.48952e-07
896.263	7.00109e-07
904.941	5.27605e-07
913.619	3.54875e-07
922.297	9.33643e-08
930.975	1.7994e-07
939.653	1.26506e-07
948.332	2.48974e-07
957.01	4.35965e-07
965.688	9.9081e-07
974.366	2.12856e-06
983.044	2.36546e-06
991.723	2.25043e-06
1000.4	4.22397e-06
1009.08	5.28966e-06
1017.76	4.66937e-06
1026.44	1.7549e-06
1035.11	9.15017e-08
1043.79	7.13184e-08
1052.47	2.12289e-07
1061.15	4.00953e-07
1069.83	5.72788e-07
1078.5	6.79918e-07
1087.18	1.21879e-07
1095.86	5.17899e-08
1104.54	4.56148e-07
1113.22	5.11197e-07
1121.9	2.64406e-07
1130.57	3.48152e-08
1139.25	-1.56315e-07
1147.93	-2.27139e-07
1156.61	-3.34182e-08
1165.29	-1.38533e-07
1173.96	3.82931e-08
1182.64	3.60739e-08
1191.32	3.87347e-07
1200	5.23254e-07
1208.68	1.24609e-06
1217.36	2.0633e-06
1226.03	2.77558e-06
1234.71	1.84131e-06
1243.39	2.29612e-06
1252.07	5.50675e-06
1260.75	4.99974e-06
1269.42	1.76088e-06
1278.1	1.02752e-06
1286.78	5.1477e-07
1295.46	2.03703e-07
1304.14	-1.02037e-07
1312.82	-1.875e-07
1321.49	-2.10885e-07
1330.17	-3.35179e-07
1338.85	-3.25706e-07
1347.53	-3.44841e-07
1356.21	2.46566e-07
1364.88	5.74796e-10
1373.56	-1.67586e-07
1382.24	1.10666e-08
1390.92	8.22031e-08
1399.6	-2.81243e-07
1408.28	-2.54766e-07
1416.95	-2.41342e-07
1425.63	-2.15148e-07
1434.31	-2.71769e-07
1442.99	-1.79722e-07
1451.67	-1.75968e-07
1460.34	-9.84138e-08
1469.02	-5.08804e-08
1477.7	-9.24912e-08
1486.38	-6.6589e-08
1495.06	-1.17346e-07
1503.73	2.7703e-07
1512.41	2.07741e-07
1521.09	-5.47599e-07
1529.77	1.77255e-06
1538.45	2.75956e-06
1547.13	5.41813e-06
1555.8	8.0593e-06
1564.48	9.71421e-06
1573.16	8.95872e-06
1581.84	8.32639e-06
1590.52	7.58604e-06
1599.19	6.64876e-06
1607.87	3.82304e-06
1616.55	-7.51309e-07
1625.23	1.80333e-07
1633.91	-2.08535e-07
1642.59	-9.38227e-08
1651.26	-3.27168e-07
1659.94	-2.41174e-07
1668.62	-4.2249e-07
1677.3	-3.61081e-07
1685.98	-4.3499e-07
1694.65	-4.08695e-07
1703.33	-4.18372e-07
1712.01	-3.27306e-07
1720.69	-3.18204e-07
1729.37	-3.18393e-07
1738.05	-4.44521e-07
1746.72	-3.15367e-07
1755.4	-2.95169e-07
1764.08	-1.40701e-07
1772.76	-1.73753e-06
1781.44	7.51819e-08
1790.11	2.22934e-08
1798.79	1.43983e-07
1807.47	-5.65701e-08
1816.15	-2.36896e-07
1824.83	-4.86234e-07
1833.51	-2.7639e-07
1842.18	-3.78165e-07
1850.86	-2.43044e-07
1859.54	-2.92782e-07
1868.22	-3.41596e-07
1876.9	-2.418e-07
1885.57	-3.91705e-07
1894.25	-3.37624e-07
1902.93	-3.01411e-07
1911.61	-2.53303e-07
1920.29	-2.51142e-07
1928.97	-3.36256e-07
1937.64	-3.34851e-07
1946.32	-3.04445e-07
1955	-2.08134e-07
1963.68	-3.40709e-07
1972.36	-3.37922e-07
1981.03	-2.47992e-07
1989.71	-2.77772e-07
1998.39	-1.62354e-07
2007.07	-2.75873e-07
2015.75	-2.17513e-07
2024.43	-1.40781e-07
2033.1	-2.32501e-07
2041.78	-2.42426e-07
2050.46	-3.34684e-07
2059.14	-2.6728e-07
2067.82	-3.56948e-07
2076.49	-3.07239e-07
2085.17	-3.88206e-07
2093.85	-3.21602e-07
2102.53	-3.55668e-07
2111.21	-1.89785e-07
2119.89	5.42346e-08
2128.56	-2.58993e-07
2137.24	-1.91327e-07
2145.92	-2.71951e-07
2154.6	8.26251e-08
2163.28	-2.4455e-07
2171.95	-1.92884e-07
2180.63	-1.42389e-07
2189.31	1.89042e-07
2197.99	2.95736e-07
2206.67	1.07434e-06
2215.35	5.20598e-07
2224.02	-1.17833e-07
2232.7	9.13446e-07
2241.38	6.59844e-07
2250.06	7.76702e-08
2258.74	-3.23217e-07
2267.41	-4.0243e-07
2276.09	-3.72337e-07
2284.77	-2.95067e-07
2293.45	-3.17731e-07
2302.13	-2.50975e-07
2310.81	-7.6979e-09
2319.48	1.40352e-08
2328.16	1.21216e-07
2336.84	1.06534e-07
2345.52	6.11903e-08
2354.2	-3.06315e-07
2362.87	-4.89166e-07
2371.55	-3.2166e-07
2380.23	-2.86627e-07
2388.91	-2.67266e-07
2397.59	-3.57269e-07
2406.27	-3.53842e-07
2414.94	-3.48356e-07
2423.62	-3.51601e-07
2432.3	-3.57254e-07
2440.98	-4.0641e-07
2449.66	-4.03616e-07
2458.33	-4.39712e-07
2467.01	-4.16109e-07
2475.69	-4.32094e-07
2484.37	-3.40061e-07
2493.05	-5.00968e-07
2501.73	-3.85703e-07
2510.4	-4.719e-07
2519.08	-5.12296e-07
2527.76	-5.07581e-07
2536.44	-5.09058e-07
2545.12	-4.96682e-07
2553.79	-5.50444e-07
2562.47	-5.54969e-07
2571.15	-4.91334e-07
2579.83	-4.93961e-07
2588.51	-5.95729e-07
2597.19	-5.44921e-07
2605.86	-5.50247e-07
2614.54	-5.33673e-07
2623.22	-5.47773e-07
2631.9	-4.23974e-07
2640.58	-5.90134e-07
2649.25	-6.24549e-07
2657.93	-5.19849e-07
2666.61	-6.02445e-07
2675.29	-4.69216e-07
2683.97	-5.8237e-07
2692.65	-5.04504e-07
2701.32	-5.63438e-07
2710	-5.83498e-07
2718.68	-6.69281e-07
2727.36	-5.3953e-07
2736.04	-6.16909e-07
2744.71	-6.83353e-07
2753.39	-6.06897e-07
2762.07	-6.49483e-07
2770.75	-5.8694e-07
2779.43	-5.93604e-07
2788.11	-6.14806e-07
2796.78	-4.75436e-07
2805.46	-5.6843e-07
2814.14	-5.50429e-07
2822.82	-5.17084e-07
2831.5	-5.85084e-07
2840.17	-5.95241e-07
2848.85	-5.64675e-07
2857.53	-4.33374e-07
2866.21	-6.39151e-07
2874.89	-6.75415e-07
2883.57	-5.32632e-07
2892.24	-6.47082e-07
2900.92	-6.59677e-07
2909.6	-5.90185e-07
2918.28	-7.21878e-07
2926.96	-7.22519e-07
2935.63	-7.33243e-07
2944.31	-7.75887e-07
2952.99	-6.46034e-07
2961.67	-1.54031e-08
2970.35	-6.86867e-07
2979.03	-6.21275e-07
2987.7	-5.32385e-07
2996.38	-6.29547e-07
3005.06	-5.78914e-07
3013.74	-5.97279e-07
3022.42	-5.95452e-07
3031.09	-6.27612e-07
3039.77	-7.13278e-07
3048.45	-5.52481e-07
3057.13	-7.11292e-07
3065.81	-6.42578e-07
3074.49	-4.79802e-07
3083.16	-4.09597e-07
3091.84	-4.14232e-07
3100.52	-3.55733e-07
3109.2	-6.27546e-08
3117.88	-5.45692e-09
3126.55	1.75859e-08
3135.23	1.28136e-07
3143.91	8.76382e-08
3152.59	2.09502e-07
3161.27	2.90272e-07
3169.95	4.22031e-07
3178.62	3.5729e-07
3187.3	3.86991e-07
3195.98	4.04125e-07
3204.66	5.09917e-07
3213.34	5.10121e-07
3222.01	4.11001e-07
3230.69	3.56083e-07
3239.37	5.52961e-07
3248.05	5.01339e-07
3256.73	4.31497e-07
3265.4	4.63213e-07
3274.08	2.97883e-07
3282.76	8.42913e-08
3291.44	1.20358e-07
3300.12	1.99985e-07
3308.8	-1.422e-07
3317.47	-7.91982e-08
3326.15	-1.34386e-08
3334.83	-1.88686e-07
3343.51	-2.89428e-07
3352.19	-1.40949e-07
3360.86	-3.24003e-07
3369.54	-1.94056e-07
3378.22	-1.72512e-07
3386.9	-1.91029e-07
3395.58	-4.29373e-07
3404.26	-3.96311e-07
3412.93	-3.48865e-07
3421.61	-4.39246e-07
3430.29	-3.55784e-07
3438.97	-4.54293e-07
3447.65	-4.31155e-07
3456.32	-3.78456e-07
3465	-6.37573e-07
3473.68	-6.42484e-07
3482.36	-6.5374e-07
3491.04	-6.6939e-07
3499.72	-6.96282e-07
3508.39	-7.41785e-07
3517.07	-5.64966e-07
3525.75	-9.02372e-07
3534.43	-6.3058e-07
3543.11	-8.42229e-07
3551.78	-9.0243e-07
3560.46	-9.11408e-07
3569.14	-8.29991e-07
3577.82	-7.72366e-07
3586.5	-1.29605e-06
3595.18	-1.05669e-06
3603.85	-8.30246e-07
3612.53	-1.44374e-06
3621.21	-1.09963e-06
3629.89	-1.49137e-06
3638.57	-7.90701e-07
3647.24	-1.46825e-06
3655.92	-1.19559e-06
3664.6	-1.03619e-06
3673.28	-1.14718e-06
3681.96	-1.05656e-06
3690.64	-1.27886e-06
3699.31	-1.10869e-06
3707.99	-1.17167e-06
3716.67	-1.01642e-06
3725.35	-1.24677e-06
3734.03	-1.34641e-06
3742.7	-1.24996e-06
3751.38	-1.4436e-06
3760.06	-1.68258e-06
3768.74	-1.16608e-06
3777.42	-1.14179e-06
3786.1	-1.26793e-06
3794.77	-1.21915e-06
3803.45	-1.22395e-06
3812.13	-1.25917e-06
3820.81	-2.22915e-06
3829.49	-1.09552e-06
3838.16	-2.44547e-06
3846.84	-1.25324e-06
3855.52	-1.45436e-06
3864.2	-1.33984e-06
3872.88	-1.29133e-06
3881.56	-1.48704e-06
3890.23	-1.26088e-06
3898.91	-1.6991e-06
3907.59	-1.34037e-06
3916.27	-1.59157e-06
3924.95	-1.47306e-06
3933.62	-1.31959e-06
3942.3	-1.31491e-06
3950.98	-1.2983e-06
3959.66	-1.41313e-06
3968.34	-1.47093e-06
