Infrared Spectrum: Carbon tetrachloride
Formula: C Cl4
CAS: 56-23-5
State: gas
Melting point: -22.99 C
Boiling point: 76.54 C
Class: IUPAC A
Instrument: IFS66V (Bruker)
Instrument parameters: KBr Beam Splitter; MCT Detector; Multipass cell
Sampling: 1 L/min Flow
Resolution: 0.1250
Temperature: 23 C
Pressure: 101.3 Pa
Origin: NIST, Analytical Chemistry Division, 301-975-3108
cm-1	(micromol/mol)-1m-1 (base 10)
575.05	-1.83657e-06
583.608	8.84313e-07
592.165	6.03005e-07
600.723	-9.23566e-07
609.281	-2.06839e-07
617.838	-2.75393e-07
626.396	1.40303e-06
634.954	-5.96878e-07
643.511	2.02998e-07
652.069	1.44317e-07
660.626	7.90017e-08
669.184	-3.26273e-07
677.742	-1.67375e-07
686.299	-7.25436e-07
694.857	1.29518e-07
703.415	-7.39559e-07
711.972	9.20263e-07
720.53	6.85237e-07
729.088	3.11287e-06
737.645	1.31333e-05
746.203	6.49242e-05
754.761	0.000233953
763.318	0.000448628
771.876	0.000553784
780.434	0.000781736
788.991	0.00126777
797.549	0.0049234
806.106	0.000319032
814.664	2.98359e-05
823.222	6.42631e-06
831.779	1.20744e-06
840.337	5.20678e-07
848.895	5.60317e-07
857.452	7.87696e-07
866.01	3.22373e-07
874.568	1.00718e-06
883.125	7.47475e-07
891.683	5.55457e-07
900.241	3.90803e-07
908.798	3.67484e-07
917.356	-8.67578e-08
925.914	4.4725e-08
934.471	2.34073e-07
943.029	1.12034e-07
951.586	9.82392e-08
960.144	6.60361e-08
968.702	1.49645e-06
977.259	2.18652e-06
985.817	2.59678e-06
994.375	2.93661e-06
1002.93	4.50576e-06
1011.49	5.42946e-06
1020.05	4.11191e-06
1028.61	1.12604e-06
1037.16	-2.02241e-07
1045.72	8.74563e-08
1054.28	-1.74476e-08
1062.84	6.1792e-07
1071.39	5.543e-07
1079.95	7.25262e-08
1088.51	-2.00647e-07
1097.07	3.75436e-09
1105.62	2.62464e-07
1114.18	5.66451e-07
1122.74	-7.59895e-08
1131.3	-1.31112e-07
1139.85	-3.35601e-07
1148.41	-1.95605e-07
1156.97	-9.80573e-08
1165.53	2.36394e-07
1174.09	-6.80951e-08
1182.64	8.03114e-08
1191.2	1.54082e-07
1199.76	3.89559e-07
1208.32	1.27942e-06
1216.87	1.83697e-06
1225.43	2.69716e-06
1233.99	1.52194e-06
1242.55	1.99743e-06
1251.1	5.23347e-06
1259.66	5.83174e-06
1268.22	1.99106e-06
1276.78	1.34523e-06
1285.33	5.60477e-07
1293.89	4.20809e-07
1302.45	2.46449e-07
1311.01	-7.07727e-08
1319.57	-5.02452e-07
1328.12	-1.11387e-07
1336.68	-3.9108e-07
1345.24	-2.33236e-07
1353.8	-1.33556e-07
1362.35	-1.15207e-07
1370.91	2.74862e-07
1379.47	-1.63315e-07
1388.03	2.87638e-07
1396.58	-3.87078e-08
1405.14	-5.81665e-07
1413.7	-1.32996e-07
1422.26	-1.40207e-07
1430.81	-1.94347e-07
1439.37	-1.89188e-07
1447.93	-1.0897e-06
1456.49	-2.28814e-06
1465.05	-1.09088e-06
1473.6	-1.52446e-06
1482.16	-6.46609e-08
1490.72	-7.54336e-07
1499.28	5.64755e-08
1507.83	3.73137e-07
1516.39	7.97511e-07
1524.95	1.34521e-06
1533.51	1.65501e-06
1542.06	1.64225e-06
1550.62	6.37778e-06
1559.18	8.68814e-06
1567.74	9.70309e-06
1576.29	5.87349e-06
1584.85	8.02494e-06
1593.41	7.27439e-06
1601.97	5.80161e-06
1610.53	2.79686e-06
1619.08	7.27255e-07
1627.64	-4.41473e-07
1636.2	-4.69892e-07
1644.76	-9.68131e-08
1653.31	-5.56443e-06
1661.87	-2.51055e-07
1670.43	-3.36125e-07
1678.99	-3.62704e-07
1687.54	-4.08243e-07
1696.1	-2.23962e-06
1704.66	-5.86307e-07
1713.22	-4.73545e-07
1721.77	-5.25385e-07
1730.33	-4.55828e-07
1738.89	-3.83134e-07
1747.45	-2.92899e-07
1756.01	-3.66487e-07
1764.56	-2.04707e-07
1773.12	-3.21609e-07
1781.68	7.56548e-08
1790.24	9.6573e-08
1798.79	1.19252e-07
1807.35	4.14581e-08
1815.91	-3.84851e-07
1824.47	-3.21733e-07
1833.02	-1.75589e-07
1841.58	-3.37369e-07
1850.14	-1.44834e-07
1858.7	-3.01419e-07
1867.25	-2.461e-07
1875.81	-2.12405e-07
1884.37	-2.07319e-07
1892.93	-2.9292e-07
1901.49	-3.41873e-07
1910.04	-4.27648e-07
1918.6	-4.26149e-07
1927.16	-4.50022e-07
1935.72	-3.49461e-07
1944.27	-4.38009e-07
1952.83	-3.0342e-07
1961.39	-2.48057e-07
1969.95	-1.83818e-07
1978.5	-2.60892e-07
1987.06	-3.13111e-07
1995.62	-1.86256e-07
2004.18	-1.99229e-07
2012.73	-2.02125e-07
2021.29	-1.38664e-07
2029.85	-2.6154e-07
2038.41	-2.77488e-07
2046.97	-2.9773e-07
2055.52	-2.34088e-07
2064.08	-4.28732e-07
2072.64	-3.95336e-07
2081.2	-2.9089e-07
2089.75	-4.13904e-07
2098.31	-1.85274e-07
2106.87	-3.90505e-07
2115.43	-3.09357e-07
2123.98	-1.13846e-07
2132.54	-3.13206e-07
2141.1	-3.59051e-07
2149.66	-3.17804e-07
2158.21	4.85339e-07
2166.77	-1.19434e-07
2175.33	-1.60506e-07
2183.89	1.06265e-07
2192.45	1.13613e-06
2201	1.12973e-07
2209.56	2.71935e-06
2218.12	-1.88271e-07
2226.68	-6.03027e-08
2235.23	4.31039e-07
2243.79	1.72251e-06
2252.35	-2.15432e-07
2260.91	-3.32101e-07
2269.46	-3.22606e-07
2278.02	-3.19725e-07
2286.58	-3.99338e-07
2295.14	-9.78827e-08
2303.69	-9.38227e-08
2312.25	-1.6079e-07
2320.81	3.82785e-08
2329.37	1.84415e-07
2337.93	-1.64945e-08
2346.48	-1.17207e-07
2355.04	-2.28769e-07
2363.6	-2.67069e-07
2372.16	-1.69136e-07
2380.71	-2.75138e-07
2389.27	-2.57414e-07
2397.83	-1.44521e-07
2406.39	-5.06665e-07
2414.94	-2.39916e-07
2423.5	-3.98603e-07
2432.06	-3.54467e-07
2440.62	-4.61459e-07
2449.17	-4.10615e-07
2457.73	-1.20758e-07
2466.29	-3.93277e-07
2474.85	-5.8611e-07
2483.41	-4.99083e-07
2491.96	-4.30093e-07
2500.52	-4.24694e-07
2509.08	-6.54846e-07
2517.64	-6.73712e-07
2526.19	-4.67484e-07
2534.75	-5.51564e-07
2543.31	-6.52197e-07
2551.87	-6.43975e-07
2560.42	-4.01608e-07
2568.98	-4.86954e-07
2577.54	-5.26695e-07
2586.1	-6.03092e-07
2594.65	-4.42193e-07
2603.21	-3.60419e-07
2611.77	-5.42738e-07
2620.33	-5.33993e-07
2628.89	-4.42768e-07
2637.44	-5.20853e-07
2646	-6.43641e-07
2654.56	-5.79205e-07
2663.12	-4.75356e-07
2671.67	-5.27852e-07
2680.23	-7.39806e-07
2688.79	-6.12063e-07
2697.35	-6.54977e-07
2705.9	-6.97119e-07
2714.46	-7.47228e-07
2723.02	-9.46864e-07
2731.58	-7.52197e-07
2740.13	-4.76462e-07
2748.69	-6.54387e-07
2757.25	-4.86059e-07
2765.81	-6.19252e-07
2774.37	-7.51644e-07
2782.92	-7.35863e-07
2791.48	-7.31825e-07
2800.04	-4.46333e-07
2808.6	-5.27372e-07
2817.15	-5.19223e-07
2825.71	-2.72686e-07
2834.27	-6.55326e-07
2842.83	-9.21864e-07
2851.38	-6.5585e-07
2859.94	-6.12842e-07
2868.5	-6.31468e-07
2877.06	-4.30275e-07
2885.61	-4.99411e-07
2894.17	-4.25007e-07
2902.73	-3.50567e-07
2911.29	-5.93073e-07
2919.85	-8.3197e-07
2928.4	-6.63395e-07
2936.96	-5.78485e-07
2945.52	-5.65869e-07
2954.08	-5.52561e-07
2962.63	-1.17002e-06
2971.19	-5.33942e-07
2979.75	-5.52881e-07
2988.31	-4.42462e-07
2996.86	-5.6808e-07
3005.42	-5.76273e-07
3013.98	-5.32589e-07
3022.54	-4.5526e-07
3031.09	-8.18379e-07
3039.65	-8.39348e-07
3048.21	-5.77284e-07
3056.77	-6.85484e-07
3065.33	-4.88337e-07
3073.88	-7.90643e-07
3082.44	-5.68881e-07
3091	-8.88606e-08
3099.56	9.93379e-08
3108.11	-3.33265e-07
3116.67	-1.06526e-07
3125.23	-5.25247e-08
3133.79	1.9893e-07
3142.34	1.90701e-07
3150.9	4.72621e-07
3159.46	4.12231e-07
3168.02	1.83753e-07
3176.57	3.22221e-07
3185.13	2.42637e-07
3193.69	5.56199e-07
3202.25	2.51419e-07
3210.81	5.67273e-07
3219.36	5.72839e-07
3227.92	4.88504e-07
3236.48	3.45583e-07
3245.04	6.80384e-07
3253.59	4.44274e-07
3262.15	6.73261e-07
3270.71	4.20773e-07
3279.27	2.21871e-07
3287.82	9.28987e-08
3296.38	-3.24432e-08
3304.94	4.56927e-09
3313.5	-8.67215e-08
3322.05	2.82378e-08
3330.61	-1.8539e-08
3339.17	-2.26302e-07
3347.73	-3.77801e-07
3356.29	-1.30231e-07
3364.84	-6.7476e-07
3373.4	-2.29555e-08
3381.96	-7.02634e-08
3390.52	-4.43823e-07
3399.07	-4.37958e-07
3407.63	-3.56366e-07
3416.19	-3.5331e-07
3424.75	-5.86445e-07
3433.3	-5.75953e-07
3441.86	-4.33738e-07
3450.42	-1.32472e-07
3458.98	-6.5358e-07
3467.53	-6.49942e-07
3476.09	-5.92593e-07
3484.65	-8.69645e-07
3493.21	-5.6127e-07
3501.77	-9.58236e-07
3510.32	-7.89683e-07
3518.88	-1.16601e-06
3527.44	-8.74687e-07
3536	-6.21515e-07
3544.55	-8.9316e-07
3553.11	-7.38096e-07
3561.67	-1.03009e-06
3570.23	-7.25022e-07
3578.78	-6.29678e-07
3587.34	-7.78296e-07
3595.9	-1.01677e-06
3604.46	-6.45562e-07
3613.01	-1.58102e-06
3621.57	-7.82407e-07
3630.13	-7.89981e-07
3638.69	-9.10353e-07
3647.25	-1.41685e-06
3655.8	-1.06425e-06
3664.36	-7.34589e-07
3672.92	-8.84233e-07
3681.48	-1.04368e-06
3690.03	-9.61306e-07
3698.59	-1.10738e-06
3707.15	-1.16704e-06
3715.71	-1.2916e-06
3724.26	-1.45266e-06
3732.82	-1.41409e-06
3741.38	-1.61262e-06
3749.94	-1.53001e-06
3758.49	-1.22302e-06
3767.05	-1.50866e-06
3775.61	-1.15977e-06
3784.17	-1.53846e-06
3792.73	-9.1207e-07
3801.28	-3.55924e-06
3809.84	-1.28906e-06
3818.4	-1.47082e-06
3826.96	-1.17752e-06
3835.51	-1.27658e-06
3844.07	-1.30701e-06
3852.63	-1.46337e-06
3861.19	-1.48887e-06
3869.74	-1.72903e-06
3878.3	-1.27104e-06
3886.86	-1.55794e-06
3895.42	-1.56833e-06
3903.97	-1.94447e-06
3912.53	-1.30463e-06
3921.09	-1.37665e-06
3929.65	-1.09536e-06
3938.21	-1.55979e-06
3946.76	-1.6636e-06
3955.32	-1.40381e-06
3963.88	-1.55104e-06
3972.44	-1.58249e-06
