Infrared Spectrum: Carbon tetrachloride
Formula: C Cl4
CAS: 56-23-5
State: gas
Melting point: -22.99 C
Boiling point: 76.54 C
Class: IUPAC A
Instrument: IFS66V (Bruker)
Instrument parameters: KBr Beam Splitter; MCT Detector; Multipass cell
Sampling: 1 L/min Flow
Resolution: 1.9290
Temperature: 23 C
Pressure: 101.3 Pa
Origin: NIST, Analytical Chemistry Division, 301-975-3108
cm-1	(micromol/mol)-1m-1 (base 10)
575.652	5.828e-09
584.33	2.44667e-07
593.008	-9.52706e-08
601.687	-3.25597e-08
610.365	-6.65963e-08
619.043	5.4156e-07
627.721	1.20485e-06
636.399	3.33258e-07
645.077	-3.85113e-08
653.756	-3.94208e-08
662.434	-6.4319e-08
671.112	1.58178e-08
679.79	5.32232e-08
688.468	1.8026e-07
697.146	3.42644e-07
705.825	3.10936e-07
714.503	3.64079e-07
723.181	1.13406e-06
731.859	4.58677e-06
740.537	2.35715e-05
749.216	0.00011006
757.894	0.000327073
766.572	0.000533048
775.25	0.00068594
783.928	0.000588824
792.606	0.00427774
801.285	0.00152808
809.963	9.92165e-05
818.641	1.4545e-05
827.319	3.1439e-06
835.997	8.96042e-07
844.676	5.04125e-07
853.354	4.84386e-07
862.032	4.3157e-07
870.71	6.39901e-07
879.388	7.43575e-07
888.066	6.1266e-07
896.745	4.40454e-07
905.423	3.08244e-07
914.101	1.84648e-07
922.779	9.98181e-08
931.457	8.22904e-08
940.135	9.21929e-08
948.814	2.15519e-07
957.492	3.37907e-07
966.17	9.58316e-07
974.848	2.10242e-06
983.526	2.46386e-06
992.205	2.41419e-06
1000.88	4.20105e-06
1009.56	5.31742e-06
1018.24	4.47247e-06
1026.92	1.62271e-06
1035.6	8.60739e-08
1044.27	-7.60404e-08
1052.95	8.45241e-08
1061.63	3.05792e-07
1070.31	4.84961e-07
1078.99	4.67935e-07
1087.66	7.84342e-08
1096.34	1.44034e-07
1105.02	3.3491e-07
1113.7	5.27306e-07
1122.38	2.70096e-07
1131.06	-1.22039e-07
1139.73	-2.99032e-07
1148.41	-2.53936e-07
1157.09	-1.44754e-07
1165.77	-7.03798e-08
1174.45	4.28114e-08
1183.12	9.50378e-08
1191.8	3.10892e-07
1200.48	5.91749e-07
1209.16	1.29352e-06
1217.84	2.07031e-06
1226.52	2.36766e-06
1235.19	1.84459e-06
1243.87	2.44983e-06
1252.55	5.6902e-06
1261.23	5.38702e-06
1269.91	1.58639e-06
1278.58	1.13383e-06
1287.26	5.35972e-07
1295.94	6.56141e-08
1304.62	-8.4495e-08
1313.3	-1.7834e-07
1321.98	-2.20161e-07
1330.65	-2.56075e-07
1339.33	-2.89079e-07
1348.01	-2.9172e-07
1356.69	2.40105e-07
1365.37	-5.39144e-09
1374.04	-6.49301e-08
1382.72	4.8181e-08
1391.4	5.05675e-09
1400.08	-2.28289e-07
1408.76	-1.88606e-07
1417.44	-3.48748e-07
1426.11	-2.16378e-07
1434.79	-3.05246e-07
1443.47	-1.63373e-07
1452.15	-2.75269e-07
1460.83	-2.16975e-07
1469.5	-1.70242e-07
1478.18	-1.5732e-07
1486.86	-2.79373e-07
1495.54	-4.03143e-07
1504.22	2.50291e-08
1512.9	5.44739e-07
1521.57	3.57443e-07
1530.25	1.776e-06
1538.93	2.09662e-06
1547.61	5.4949e-06
1556.29	7.94005e-06
1564.96	9.95938e-06
1573.64	8.85609e-06
1582.32	8.23113e-06
1591	7.72215e-06
1599.68	6.50284e-06
1608.36	3.61246e-06
1617.03	4.25516e-07
1625.71	5.89348e-08
1634.39	-5.98683e-07
1643.07	-1.29082e-07
1651.75	-1.11222e-06
1660.42	-2.77008e-07
1669.1	-6.90497e-07
1677.78	-3.30886e-07
1686.46	-5.68793e-07
1695.14	-1.11448e-06
1703.82	-4.87318e-07
1712.49	-3.55188e-07
1721.17	-3.32101e-07
1729.85	-4.1875e-07
1738.53	-4.65054e-07
1747.21	-4.1218e-07
1755.88	-3.60142e-07
1764.56	-1.97068e-07
1773.24	-4.40388e-07
1781.92	7.77284e-08
1790.6	-1.34211e-07
1799.28	5.20736e-08
1807.95	1.38606e-08
1816.63	-2.34182e-07
1825.31	-4.22686e-07
1833.99	-3.08258e-07
1842.67	-4.12485e-07
1851.34	-2.65956e-07
1860.02	-2.65068e-07
1868.7	-4.15403e-07
1877.38	-2.63802e-07
1886.06	-3.68837e-07
1894.74	-3.83338e-07
1903.41	-3.69696e-07
1912.09	-2.39574e-07
1920.77	-3.59546e-07
1929.45	-3.4495e-07
1938.13	-3.50087e-07
1946.8	-3.32872e-07
1955.48	-3.10434e-07
1964.16	-3.36998e-07
1972.84	-3.83869e-07
1981.52	-2.47075e-07
1990.19	-2.78638e-07
1998.87	-2.00524e-07
2007.55	-2.58054e-07
2016.23	-1.97242e-07
2024.91	-2.26579e-07
2033.59	-2.8045e-07
2042.26	-2.83091e-07
2050.94	-2.71733e-07
2059.62	-2.92237e-07
2068.3	-3.26812e-07
2076.98	-3.06235e-07
2085.65	-2.9789e-07
2094.33	-2.57494e-07
2103.01	-2.56301e-07
2111.69	-1.5414e-07
2120.37	-1.78085e-07
2129.05	-2.4503e-07
2137.72	-2.31221e-07
2146.4	-2.3619e-07
2155.08	-2.05726e-07
2163.76	-2.48516e-07
2172.44	-9.0454e-08
2181.11	-1.23276e-07
2189.79	8.46551e-08
2198.47	3.47773e-07
2207.15	6.51411e-07
2215.83	6.36321e-07
2224.51	-5.20736e-08
2233.18	9.66501e-07
2241.86	8.55151e-07
2250.54	6.68e-08
2259.22	-3.19208e-07
2267.9	-3.59095e-07
2276.57	-3.35848e-07
2285.25	-2.99694e-07
2293.93	-3.06628e-07
2302.61	-2.21653e-07
2311.29	-1.00371e-07
2319.97	-3.39057e-09
2328.64	7.95401e-08
2337.32	4.35099e-08
2346	1.76732e-08
2354.68	-2.699e-07
2363.36	-3.65949e-07
2372.03	-2.53601e-07
2380.71	-2.51302e-07
2389.39	-2.73836e-07
2398.07	-3.37784e-07
2406.75	-3.42659e-07
2415.43	-3.50851e-07
2424.1	-3.85288e-07
2432.78	-3.92797e-07
2441.46	-3.87827e-07
2450.14	-4.13533e-07
2458.82	-4.22686e-07
2467.49	-4.27226e-07
2476.17	-4.21668e-07
2484.85	-3.55442e-07
2493.53	-4.30741e-07
2502.21	-4.57581e-07
2510.89	-4.8937e-07
2519.56	-4.85921e-07
2528.24	-4.93175e-07
2536.92	-4.95394e-07
2545.6	-5.15752e-07
2554.28	-5.25407e-07
2562.95	-5.14923e-07
2571.63	-4.98152e-07
2580.31	-5.01673e-07
2588.99	-5.25364e-07
2597.67	-5.4124e-07
2606.35	-5.14013e-07
2615.02	-4.97592e-07
2623.7	-5.20307e-07
2632.38	-5.04133e-07
2641.06	-5.52335e-07
2649.74	-5.53609e-07
2658.41	-5.42135e-07
2667.09	-5.7436e-07
2675.77	-5.36117e-07
2684.45	-6.01011e-07
2693.13	-5.93597e-07
2701.81	-5.53885e-07
2710.48	-6.19921e-07
2719.16	-6.02495e-07
2727.84	-5.60761e-07
2736.52	-5.78318e-07
2745.2	-5.92979e-07
2753.87	-5.85404e-07
2762.55	-5.64515e-07
2771.23	-5.6314e-07
2779.91	-6.00349e-07
2788.59	-5.79678e-07
2797.27	-5.31439e-07
2805.94	-5.74913e-07
2814.62	-5.66261e-07
2823.3	-5.27386e-07
2831.98	-5.92913e-07
2840.66	-6.15803e-07
2849.33	-5.32407e-07
2858.01	-4.92105e-07
2866.69	-6.06825e-07
2875.37	-5.9562e-07
2884.05	-5.58462e-07
2892.73	-5.91087e-07
2901.4	-6.50029e-07
2910.08	-6.14515e-07
2918.76	-6.82785e-07
2927.44	-7.61692e-07
2936.12	-6.52976e-07
2944.79	-6.37143e-07
2953.47	-6.72977e-07
2962.15	-5.92484e-07
2970.83	-6.85732e-07
2979.51	-6.00342e-07
2988.19	-5.52248e-07
2996.86	-6.06883e-07
3005.54	-5.78412e-07
3014.22	-6.051e-07
3022.9	-5.94507e-07
3031.58	-5.43139e-07
3040.25	-6.06075e-07
3048.93	-5.80828e-07
3057.61	-5.38489e-07
3066.29	-5.36023e-07
3074.97	-4.51149e-07
3083.65	-4.47752e-07
3092.32	-3.73923e-07
3101	-3.37078e-07
3109.68	-1.72584e-07
3118.36	-7.12092e-08
3127.04	1.86918e-08
3135.71	1.5542e-07
3144.39	1.56992e-07
3153.07	3.11954e-07
3161.75	3.08571e-07
3170.43	3.48945e-07
3179.11	3.57167e-07
3187.78	4.09168e-07
3196.46	3.79897e-07
3205.14	4.41589e-07
3213.82	4.13722e-07
3222.5	3.88846e-07
3231.17	4.18648e-07
3239.85	4.2086e-07
3248.53	4.94434e-07
3257.21	4.3587e-07
3265.89	4.42287e-07
3274.57	3.14021e-07
3283.24	1.75393e-07
3291.92	1.12209e-07
3300.6	1.5999e-07
3309.28	-1.43481e-08
3317.96	-1.15388e-07
3326.63	-2.62005e-08
3335.31	-1.32181e-07
3343.99	-2.18401e-07
3352.67	-1.73203e-07
3361.35	-3.01361e-07
3370.03	-2.57923e-07
3378.7	-3.23152e-07
3387.38	-3.22752e-07
3396.06	-3.53369e-07
3404.74	-4.37573e-07
3413.42	-4.20882e-07
3422.09	-4.64071e-07
3430.77	-5.12762e-07
3439.45	-5.17782e-07
3448.13	-5.11336e-07
3456.81	-4.5908e-07
3465.49	-5.60426e-07
3474.16	-6.26753e-07
3482.84	-6.58505e-07
3491.52	-7.1947e-07
3500.2	-6.88766e-07
3508.88	-7.56992e-07
3517.55	-7.47126e-07
3526.23	-8.39508e-07
3534.91	-7.88889e-07
3543.59	-8.98545e-07
3552.27	-9.48392e-07
3560.95	-8.64661e-07
3569.62	-8.42978e-07
3578.3	-7.41414e-07
3586.98	-1.04573e-06
3595.66	-8.64617e-07
3604.34	-8.06468e-07
3613.01	-1.12224e-06
3621.69	-8.76666e-07
3630.37	-1.21334e-06
3639.05	-8.38817e-07
3647.73	-1.29101e-06
3656.41	-1.34954e-06
3665.08	-1.04106e-06
3673.76	-1.30058e-06
3682.44	-9.65097e-07
3691.12	-1.37352e-06
3699.8	-1.10645e-06
3708.47	-1.27033e-06
3717.15	-1.12993e-06
3725.83	-1.29763e-06
3734.51	-1.49902e-06
3743.19	-1.70111e-06
3751.87	-1.96394e-06
3760.54	-1.33396e-06
3769.22	-1.38752e-06
3777.9	-1.27364e-06
3786.58	-1.22611e-06
3795.26	-1.24481e-06
3803.93	-1.28292e-06
3812.61	-1.24849e-06
3821.29	-1.76256e-06
3829.97	-1.27362e-06
3838.65	-1.88889e-06
3847.33	-1.25588e-06
3856	-1.61625e-06
3864.68	-1.58205e-06
3873.36	-1.44707e-06
3882.04	-1.50356e-06
3890.72	-1.63957e-06
3899.39	-1.71203e-06
3908.07	-1.47408e-06
3916.75	-1.62837e-06
3925.43	-1.50596e-06
3934.11	-1.46649e-06
3942.79	-1.5318e-06
3951.46	-1.30238e-06
3960.14	-1.41284e-06
3968.82	-1.50978e-06
