Infrared Spectrum: Carbon tetrachloride
Formula: C Cl4
CAS: 56-23-5
State: gas
Melting point: -22.99 C
Boiling point: 76.54 C
Class: IUPAC A
Instrument: IFS66V (Bruker)
Instrument parameters: KBr Beam Splitter; MCT Detector; Multipass cell
Sampling: 1 L/min Flow
Resolution: 0.9640
Temperature: 23 C
Pressure: 101.3 Pa
Origin: NIST, Analytical Chemistry Division, 301-975-3108
cm-1	(micromol/mol)-1m-1 (base 10)
575.17	-8.30289e-07
583.848	3.79882e-07
592.526	-1.89006e-07
601.205	1.27459e-07
609.883	-2.96042e-07
618.561	6.54707e-07
627.239	1.45209e-06
635.917	3.51913e-07
644.595	-1.89828e-08
653.274	-2.47599e-08
661.952	-1.67775e-07
670.63	4.86976e-08
679.308	1.87791e-07
687.986	6.40643e-08
696.664	4.46209e-07
705.343	3.70045e-07
714.021	4.81083e-07
722.699	1.12415e-06
731.377	4.24373e-06
740.055	2.12546e-05
748.734	0.000102939
757.412	0.000305056
766.09	0.000513618
774.768	0.000649965
783.446	0.000621373
792.124	0.00379664
800.803	0.00176472
809.481	0.000111317
818.159	1.606e-05
826.837	3.48538e-06
835.515	8.52321e-07
844.194	4.6437e-07
852.872	4.66429e-07
861.55	4.65978e-07
870.228	6.6186e-07
878.906	7.2361e-07
887.584	5.94899e-07
896.263	4.44346e-07
904.941	3.03587e-07
913.619	2.07589e-07
922.297	1.1525e-08
930.975	2.67317e-08
939.653	6.22089e-08
948.332	1.91203e-07
957.01	3.10186e-07
965.688	9.12049e-07
974.366	2.07621e-06
983.044	2.38951e-06
991.723	2.31083e-06
1000.4	4.18201e-06
1009.08	5.3248e-06
1017.76	4.64348e-06
1026.44	1.76368e-06
1035.11	1.29686e-07
1043.79	-1.61598e-08
1052.47	1.67469e-07
1061.15	3.31766e-07
1069.83	5.17098e-07
1078.5	5.88766e-07
1087.18	1.26717e-07
1095.86	1.12398e-07
1104.54	4.07028e-07
1113.22	5.21864e-07
1121.9	3.23625e-07
1130.57	-1.41225e-08
1139.25	-2.30457e-07
1147.93	-2.44965e-07
1156.61	-1.03165e-07
1165.29	-1.11008e-07
1173.96	4.40192e-08
1182.64	4.59546e-08
1191.32	3.18131e-07
1200	5.29816e-07
1208.68	1.26703e-06
1217.36	2.07775e-06
1226.03	2.67385e-06
1234.71	1.82235e-06
1243.39	2.2783e-06
1252.07	5.46918e-06
1260.75	5.25121e-06
1269.42	1.72341e-06
1278.1	1.13952e-06
1286.78	5.23472e-07
1295.46	8.67287e-08
1304.14	-9.49359e-08
1312.82	-1.67855e-07
1321.49	-2.49549e-07
1330.17	-3.39406e-07
1338.85	-3.63438e-07
1347.53	-3.35252e-07
1356.21	3.18153e-07
1364.88	1.15032e-08
1373.56	-1.54111e-07
1382.24	2.36903e-08
1390.92	3.69834e-08
1399.6	-3.79475e-07
1408.28	-1.7719e-07
1416.95	-2.92804e-07
1425.63	-2.24127e-07
1434.31	-2.47468e-07
1442.99	-1.26586e-07
1451.67	-2.32429e-07
1460.34	-1.35696e-07
1469.02	-9.56272e-08
1477.7	-1.09437e-07
1486.38	-1.25517e-07
1495.06	-6.68437e-08
1503.73	2.84262e-07
1512.41	4.16407e-07
1521.09	-5.23865e-08
1529.77	1.75125e-06
1538.45	2.3222e-06
1547.13	5.39465e-06
1555.8	8.12761e-06
1564.48	9.75326e-06
1573.16	8.98123e-06
1581.84	8.32348e-06
1590.52	7.66948e-06
1599.19	6.63e-06
1607.87	3.78882e-06
1616.55	-1.08942e-07
1625.23	1.25989e-07
1633.91	-2.2417e-07
1642.59	-1.12143e-07
1651.26	-3.6437e-07
1659.94	-2.53063e-07
1668.62	-5.996e-07
1677.3	-3.20241e-07
1685.98	-4.71849e-07
1694.65	-4.71398e-07
1703.33	-4.0569e-07
1712.01	-3.31941e-07
1720.69	-3.30049e-07
1729.37	-3.74105e-07
1738.05	-3.84684e-07
1746.72	-3.85972e-07
1755.4	-2.88802e-07
1764.08	-1.94056e-07
1772.76	-9.25916e-07
1781.44	5.54205e-08
1790.11	-3.20285e-08
1798.79	1.25153e-07
1807.47	-1.33877e-08
1816.15	-2.22126e-07
1824.83	-4.98901e-07
1833.51	-2.80231e-07
1842.18	-3.22308e-07
1850.86	-2.53922e-07
1859.54	-2.83447e-07
1868.22	-3.52197e-07
1876.9	-2.48407e-07
1885.57	-3.82538e-07
1894.25	-3.35783e-07
1902.93	-3.33927e-07
1911.61	-2.20707e-07
1920.29	-3.00647e-07
1928.97	-3.39253e-07
1937.64	-3.62092e-07
1946.32	-3.33564e-07
1955	-2.53449e-07
1963.68	-3.48785e-07
1972.36	-3.27044e-07
1981.03	-2.3352e-07
1989.71	-2.82087e-07
1998.39	-1.77372e-07
2007.07	-2.8344e-07
2015.75	-1.90025e-07
2024.43	-1.93757e-07
2033.1	-2.754e-07
2041.78	-2.85681e-07
2050.46	-3.02503e-07
2059.14	-3.02568e-07
2067.82	-3.61023e-07
2076.49	-3.14501e-07
2085.17	-3.5259e-07
2093.85	-3.3523e-07
2102.53	-3.33556e-07
2111.21	-1.06155e-07
2119.89	-3.87151e-08
2128.56	-2.41684e-07
2137.24	-2.38002e-07
2145.92	-2.63046e-07
2154.6	-1.16822e-07
2163.28	-2.8245e-07
2171.95	-1.72308e-07
2180.63	-1.387e-07
2189.31	4.13999e-08
2197.99	2.95867e-07
2206.67	6.36765e-07
2215.35	6.85317e-07
2224.02	-1.31723e-07
2232.7	9.29969e-07
2241.38	8.85957e-07
2250.06	5.45474e-08
2258.74	-3.09851e-07
2267.41	-3.95402e-07
2276.09	-3.29395e-07
2284.77	-2.90505e-07
2293.45	-3.01142e-07
2302.13	-2.23938e-07
2310.81	-5.30049e-08
2319.48	8.78929e-09
2328.16	7.30937e-08
2336.84	7.90818e-08
2345.52	3.84313e-08
2354.2	-2.59044e-07
2362.87	-3.8643e-07
2371.55	-2.61852e-07
2380.23	-2.59488e-07
2388.91	-2.62253e-07
2397.59	-3.3539e-07
2406.27	-3.26768e-07
2414.94	-3.56868e-07
2423.62	-3.68022e-07
2432.3	-3.742e-07
2440.98	-3.80842e-07
2449.66	-4.1907e-07
2458.33	-4.25655e-07
2467.01	-3.98035e-07
2475.69	-4.41567e-07
2484.37	-3.14792e-07
2493.05	-4.44005e-07
2501.73	-4.38016e-07
2510.4	-4.94012e-07
2519.08	-4.96806e-07
2527.76	-4.92055e-07
2536.44	-5.12944e-07
2545.12	-5.25022e-07
2553.79	-5.69245e-07
2562.47	-5.3296e-07
2571.15	-5.08833e-07
2579.83	-5.24265e-07
2588.51	-5.6632e-07
2597.19	-5.58003e-07
2605.86	-5.15148e-07
2614.54	-4.91945e-07
2623.22	-5.35652e-07
2631.9	-4.93452e-07
2640.58	-5.80966e-07
2649.25	-5.84706e-07
2657.93	-5.40585e-07
2666.61	-5.52896e-07
2675.29	-5.13599e-07
2683.97	-5.90439e-07
2692.65	-6.05813e-07
2701.32	-5.7719e-07
2710	-6.49672e-07
2718.68	-6.1851e-07
2727.36	-5.50982e-07
2736.04	-5.8432e-07
2744.71	-6.13759e-07
2753.39	-5.84604e-07
2762.07	-5.52779e-07
2770.75	-5.61423e-07
2779.43	-5.94783e-07
2788.11	-5.78907e-07
2796.78	-4.95758e-07
2805.46	-6.133e-07
2814.14	-5.4065e-07
2822.82	-5.07516e-07
2831.5	-6.02059e-07
2840.17	-6.02779e-07
2848.85	-5.71675e-07
2857.53	-4.49054e-07
2866.21	-6.37274e-07
2874.89	-6.38271e-07
2883.57	-5.60092e-07
2892.24	-6.04904e-07
2900.92	-6.65388e-07
2909.6	-5.97315e-07
2918.28	-7.26018e-07
2926.96	-7.18888e-07
2935.63	-6.53922e-07
2944.31	-6.57763e-07
2952.99	-6.84058e-07
2961.67	-1.72126e-07
2970.35	-6.79198e-07
2979.03	-5.86023e-07
2987.7	-5.4602e-07
2996.38	-6.32509e-07
3005.06	-5.49556e-07
3013.74	-6.1453e-07
3022.42	-6.08112e-07
3031.09	-5.70831e-07
3039.77	-6.75866e-07
3048.45	-5.77816e-07
3057.13	-6.24374e-07
3065.81	-6.03783e-07
3074.49	-4.77081e-07
3083.16	-4.16654e-07
3091.84	-4.17753e-07
3100.52	-3.61758e-07
3109.2	-1.7655e-07
3117.88	-5.83745e-08
3126.55	2.75393e-08
3135.23	1.2759e-07
3143.91	1.11278e-07
3152.59	2.23712e-07
3161.27	3.04962e-07
3169.95	3.38271e-07
3178.62	3.33171e-07
3187.3	4.50647e-07
3195.98	4.13286e-07
3204.66	4.81497e-07
3213.34	4.40003e-07
3222.01	3.87609e-07
3230.69	4.36052e-07
3239.37	4.78325e-07
3248.05	5.12311e-07
3256.73	4.40607e-07
3265.41	4.42098e-07
3274.08	2.85215e-07
3282.76	1.41269e-07
3291.44	1.00509e-07
3300.12	2.19892e-07
3308.8	-9.43611e-08
3317.47	-1.21013e-07
3326.15	-2.04526e-08
3334.83	-1.58622e-07
3343.51	-2.69121e-07
3352.19	-1.44609e-07
3360.86	-3.20518e-07
3369.54	-2.63235e-07
3378.22	-2.72832e-07
3386.9	-2.94005e-07
3395.58	-3.34037e-07
3404.26	-4.11911e-07
3412.93	-4.29933e-07
3421.61	-4.42906e-07
3430.29	-4.69456e-07
3438.97	-4.91472e-07
3447.65	-4.9586e-07
3456.32	-4.62733e-07
3465	-5.86219e-07
3473.68	-6.11663e-07
3482.36	-6.27816e-07
3491.04	-6.73836e-07
3499.72	-6.426e-07
3508.39	-7.29809e-07
3517.07	-7.08076e-07
3525.75	-8.50007e-07
3534.43	-7.4666e-07
3543.11	-8.86656e-07
3551.78	-9.46806e-07
3560.46	-8.85754e-07
3569.14	-8.35921e-07
3577.82	-7.26113e-07
3586.5	-1.07438e-06
3595.18	-9.05828e-07
3603.85	-7.88904e-07
3612.53	-1.31108e-06
3621.21	-9.1624e-07
3629.89	-1.52381e-06
3638.57	-8.70423e-07
3647.24	-1.35315e-06
3655.92	-1.4274e-06
3664.6	-1.03469e-06
3673.28	-1.12692e-06
3681.96	-1.02434e-06
3690.64	-1.4188e-06
3699.31	-1.06705e-06
3707.99	-1.15009e-06
3716.67	-1.06404e-06
3725.35	-1.24066e-06
3734.03	-1.37362e-06
3742.7	-1.2246e-06
3751.38	-1.60885e-06
3760.06	-1.52793e-06
3768.74	-1.21103e-06
3777.42	-1.20554e-06
3786.1	-1.17781e-06
3794.77	-1.18435e-06
3803.45	-1.27819e-06
3812.13	-1.24997e-06
3820.81	-1.88056e-06
3829.49	-1.18708e-06
3838.16	-2.44357e-06
3846.84	-1.26001e-06
3855.52	-1.48989e-06
3864.2	-1.41417e-06
3872.88	-1.33129e-06
3881.56	-1.56198e-06
3890.23	-1.46002e-06
3898.91	-1.79226e-06
3907.59	-1.40658e-06
3916.27	-1.54668e-06
3924.95	-1.56137e-06
3933.62	-1.3866e-06
3942.3	-1.50293e-06
3950.98	-1.31347e-06
3959.66	-1.38084e-06
3968.34	-1.49938e-06
