Infrared Spectrum: Carbon tetrachloride
Formula: C Cl4
CAS: 56-23-5
State: gas
Melting point: -22.99 C
Boiling point: 76.54 C
Class: IUPAC A
Instrument: IFS66V (Bruker)
Instrument parameters: KBr Beam Splitter; MCT Detector; Multipass cell
Sampling: 1 L/min Flow
Resolution: 0.9640
Temperature: 23 C
Pressure: 101.3 Pa
Origin: NIST, Analytical Chemistry Division, 301-975-3108
cm-1	(micromol/mol)-1m-1 (base 10)
575.17	-9.56963e-07
583.848	1.78711e-07
592.526	-2.60113e-07
601.205	9.25858e-08
609.883	-3.80704e-07
618.561	7.00713e-07
627.239	1.41086e-06
635.917	2.72599e-07
644.595	-1.12529e-07
653.274	-1.36452e-07
661.952	-3.00065e-07
670.63	-4.91778e-08
679.308	1.11052e-07
687.986	-8.96391e-08
696.664	3.49847e-07
705.343	2.45467e-07
714.021	3.117e-07
722.699	9.3101e-07
731.377	4.04977e-06
740.055	2.0952e-05
748.734	0.000102719
757.412	0.000303805
766.09	0.000510517
774.768	0.000647155
783.446	0.000620442
792.124	0.00378736
800.803	0.00176645
809.481	0.000112091
818.159	1.67599e-05
826.837	3.94998e-06
835.515	1.2206e-06
844.194	7.38489e-07
852.872	7.61074e-07
861.55	6.93379e-07
870.228	8.96093e-07
878.906	9.1501e-07
887.584	7.55428e-07
896.263	6.14974e-07
904.941	4.33622e-07
913.619	3.57174e-07
922.297	1.07647e-07
930.975	1.45802e-07
939.653	1.66684e-07
948.332	2.87573e-07
957.01	4.11605e-07
965.688	9.95256e-07
974.366	2.1615e-06
983.044	2.44598e-06
991.723	2.32644e-06
1000.4	4.26464e-06
1009.08	5.37719e-06
1017.76	4.72427e-06
1026.44	1.81435e-06
1035.11	1.7468e-07
1043.79	6.74403e-08
1052.47	2.30697e-07
1061.15	4.18801e-07
1069.83	5.65592e-07
1078.5	6.73035e-07
1087.18	1.63162e-07
1095.86	1.36678e-07
1104.54	4.78449e-07
1113.22	5.57443e-07
1121.9	3.61627e-07
1130.57	3.92317e-08
1139.25	-1.68997e-07
1147.93	-2.07349e-07
1156.61	-5.5406e-08
1165.29	-8.07916e-08
1173.96	7.75538e-08
1182.64	7.82814e-08
1191.32	3.60477e-07
1200	5.50284e-07
1208.68	1.30939e-06
1217.36	2.12388e-06
1226.03	2.75917e-06
1234.71	1.86199e-06
1243.39	2.2999e-06
1252.07	5.51192e-06
1260.75	5.20702e-06
1269.42	1.75437e-06
1278.1	1.14552e-06
1286.78	5.55471e-07
1295.46	1.19885e-07
1304.14	-7.19004e-08
1312.82	-1.39785e-07
1321.49	-2.19616e-07
1330.17	-3.20613e-07
1338.85	-3.58767e-07
1347.53	-3.17688e-07
1356.21	3.45736e-07
1364.88	4.15963e-08
1373.56	-1.49054e-07
1382.24	3.34982e-08
1390.92	7.33702e-08
1399.6	-3.79387e-07
1408.28	-1.69849e-07
1416.95	-2.63453e-07
1425.63	-2.09379e-07
1434.31	-2.31737e-07
1442.99	-1.14617e-07
1451.67	-2.02037e-07
1460.34	-9.58673e-08
1469.02	-6.55486e-08
1477.7	-8.77255e-08
1486.38	-8.29453e-08
1495.06	-3.43786e-08
1503.73	3.07698e-07
1512.41	3.7353e-07
1521.09	-1.95896e-07
1529.77	1.77744e-06
1538.45	2.45884e-06
1547.13	5.42152e-06
1555.8	8.17225e-06
1564.48	9.74669e-06
1573.16	8.97118e-06
1581.84	8.34099e-06
1590.52	7.68216e-06
1599.19	6.64616e-06
1607.87	3.80932e-06
1616.55	-3.40636e-07
1625.23	1.59299e-07
1633.91	-1.75597e-07
1642.59	-9.52052e-08
1651.26	-3.09117e-07
1659.94	-2.27787e-07
1668.62	-5.17229e-07
1677.3	-3.1071e-07
1685.98	-4.03609e-07
1694.65	-4.12434e-07
1703.33	-3.7759e-07
1712.01	-3.1493e-07
1720.69	-3.17906e-07
1729.37	-3.42069e-07
1738.05	-3.73952e-07
1746.72	-3.66807e-07
1755.4	-2.84771e-07
1764.08	-1.73836e-07
1772.76	-1.11385e-06
1781.44	8.02896e-08
1790.11	8.86205e-09
1798.79	1.58935e-07
1807.47	-1.7826e-08
1816.15	-2.14217e-07
1824.83	-5.11961e-07
1833.51	-2.63366e-07
1842.18	-3.22621e-07
1850.86	-2.49651e-07
1859.54	-2.84306e-07
1868.22	-3.40563e-07
1876.9	-2.36765e-07
1885.57	-3.75065e-07
1894.25	-3.21995e-07
1902.93	-3.12464e-07
1911.61	-2.12755e-07
1920.29	-2.80733e-07
1928.97	-3.34342e-07
1937.64	-3.52961e-07
1946.32	-3.21944e-07
1955	-2.2727e-07
1963.68	-3.46566e-07
1972.36	-3.24753e-07
1981.03	-2.23028e-07
1989.71	-2.72577e-07
1998.39	-1.68939e-07
2007.07	-2.78783e-07
2015.75	-1.88468e-07
2024.43	-1.70394e-07
2033.1	-2.63766e-07
2041.78	-2.62209e-07
2050.46	-3.05326e-07
2059.14	-2.87042e-07
2067.82	-3.61045e-07
2076.49	-3.02816e-07
2085.17	-3.51913e-07
2093.85	-3.3635e-07
2102.53	-3.61336e-07
2111.21	-8.71726e-08
2119.89	9.5387e-09
2128.56	-2.57436e-07
2137.24	-2.2556e-07
2145.92	-2.62667e-07
2154.6	-7.35448e-08
2163.28	-2.75575e-07
2171.95	-1.98763e-07
2180.63	-1.64872e-07
2189.31	4.83047e-08
2197.99	2.73166e-07
2206.67	6.80362e-07
2215.35	7.08716e-07
2224.02	-1.20962e-07
2232.7	9.30981e-07
2241.38	8.96602e-07
2250.06	6.11612e-08
2258.74	-3.10317e-07
2267.41	-3.96406e-07
2276.09	-3.29234e-07
2284.77	-2.82007e-07
2293.45	-2.9789e-07
2302.13	-2.21573e-07
2310.81	-3.5339e-08
2319.48	1.46609e-08
2328.16	7.93364e-08
2336.84	1.07538e-07
2345.52	4.74461e-08
2354.2	-2.63009e-07
2362.87	-4.06104e-07
2371.55	-2.64617e-07
2380.23	-2.60645e-07
2388.91	-2.60703e-07
2397.59	-3.25909e-07
2406.27	-3.27204e-07
2414.94	-3.56679e-07
2423.62	-3.59611e-07
2432.3	-3.67076e-07
2440.98	-3.88482e-07
2449.66	-4.08374e-07
2458.33	-4.33273e-07
2467.01	-3.93772e-07
2475.69	-4.39421e-07
2484.37	-3.02605e-07
2493.05	-4.52663e-07
2501.73	-4.23225e-07
2510.4	-4.91116e-07
2519.08	-5.0104e-07
2527.76	-4.86561e-07
2536.44	-5.14814e-07
2545.12	-5.15221e-07
2553.79	-5.71762e-07
2562.47	-5.34109e-07
2571.15	-5.04373e-07
2579.83	-5.17688e-07
2588.51	-5.69936e-07
2597.19	-5.57298e-07
2605.86	-5.21253e-07
2614.54	-4.96413e-07
2623.22	-5.41232e-07
2631.9	-4.71602e-07
2640.58	-5.87922e-07
2649.25	-5.92171e-07
2657.93	-5.34895e-07
2666.61	-5.46231e-07
2675.29	-4.99505e-07
2683.97	-5.93582e-07
2692.65	-5.89442e-07
2701.32	-5.73741e-07
2710	-6.39915e-07
2718.68	-6.26542e-07
2727.36	-5.4196e-07
2736.04	-5.83978e-07
2744.71	-6.34393e-07
2753.39	-5.82567e-07
2762.07	-5.65483e-07
2770.75	-5.63744e-07
2779.43	-5.98203e-07
2788.11	-5.80879e-07
2796.78	-4.78485e-07
2805.46	-6.16676e-07
2814.14	-5.41487e-07
2822.82	-5.01426e-07
2831.5	-6.01491e-07
2840.17	-5.93422e-07
2848.85	-5.84051e-07
2857.53	-4.44878e-07
2866.21	-6.31053e-07
2874.89	-6.42316e-07
2883.57	-5.47621e-07
2892.24	-6.20925e-07
2900.92	-6.6613e-07
2909.6	-5.92324e-07
2918.28	-7.29758e-07
2926.96	-7.06584e-07
2935.63	-6.61117e-07
2944.31	-6.69994e-07
2952.99	-6.87267e-07
2961.67	-6.1656e-08
2970.35	-6.87747e-07
2979.03	-5.87754e-07
2987.7	-5.37376e-07
2996.38	-6.4618e-07
3005.06	-5.54023e-07
3013.74	-6.21187e-07
3022.42	-6.10383e-07
3031.09	-5.8034e-07
3039.77	-6.91756e-07
3048.45	-5.7436e-07
3057.13	-6.47657e-07
3065.81	-6.27343e-07
3074.49	-4.66021e-07
3083.16	-4.12791e-07
3091.84	-4.24607e-07
3100.52	-3.72053e-07
3109.2	-1.55464e-07
3117.88	-5.22264e-08
3126.55	2.34939e-08
3135.23	1.30282e-07
3143.91	9.02794e-08
3152.59	2.03536e-07
3161.27	2.94339e-07
3169.95	3.35375e-07
3178.62	3.31585e-07
3187.3	4.43044e-07
3195.98	4.09124e-07
3204.66	4.91647e-07
3213.34	4.45234e-07
3222.01	3.95387e-07
3230.69	4.18161e-07
3239.37	5.06563e-07
3248.05	4.98516e-07
3256.73	4.35856e-07
3265.41	4.49716e-07
3274.08	2.72097e-07
3282.76	1.16458e-07
3291.44	1.01273e-07
3300.12	2.2158e-07
3308.8	-1.34946e-07
3317.47	-1.20955e-07
3326.15	-2.94819e-08
3334.83	-1.74185e-07
3343.51	-2.7166e-07
3352.19	-1.45809e-07
3360.86	-3.23035e-07
3369.54	-2.53121e-07
3378.22	-2.55355e-07
3386.9	-2.80093e-07
3395.58	-3.58251e-07
3404.26	-3.98879e-07
3412.93	-4.49316e-07
3421.61	-4.46668e-07
3430.29	-4.56977e-07
3438.97	-4.90352e-07
3447.65	-4.85848e-07
3456.32	-4.49549e-07
3465	-6.08549e-07
3473.68	-6.12143e-07
3482.36	-6.42971e-07
3491.04	-6.64421e-07
3499.72	-6.57647e-07
3508.39	-7.40978e-07
3517.07	-6.84626e-07
3525.75	-8.66247e-07
3534.43	-7.2978e-07
3543.11	-8.87754e-07
3551.78	-9.53972e-07
3560.46	-9.13002e-07
3569.14	-8.40854e-07
3577.82	-7.34393e-07
3586.5	-1.13449e-06
3595.18	-9.40628e-07
3603.85	-7.92476e-07
3612.53	-1.37808e-06
3621.21	-9.59393e-07
3629.89	-1.59283e-06
3638.57	-8.71507e-07
3647.24	-1.42101e-06
3655.92	-1.43361e-06
3664.6	-1.04657e-06
3673.28	-1.12178e-06
3681.96	-1.04475e-06
3690.64	-1.41541e-06
3699.31	-1.08815e-06
3707.99	-1.16777e-06
3716.67	-1.05456e-06
3725.35	-1.24991e-06
3734.03	-1.35441e-06
3742.7	-1.22205e-06
3751.38	-1.49843e-06
3760.06	-1.59648e-06
3768.74	-1.20453e-06
3777.42	-1.19852e-06
3786.1	-1.19403e-06
3794.77	-1.19759e-06
3803.45	-1.27587e-06
3812.13	-1.27974e-06
3820.81	-1.95338e-06
3829.49	-1.17541e-06
3838.16	-2.59611e-06
3846.84	-1.27657e-06
3855.52	-1.46247e-06
3864.2	-1.39461e-06
3872.88	-1.3163e-06
3881.56	-1.56563e-06
3890.23	-1.42363e-06
3898.91	-1.80896e-06
3907.59	-1.39756e-06
3916.27	-1.55677e-06
3924.95	-1.56749e-06
3933.62	-1.38076e-06
3942.3	-1.48794e-06
3950.98	-1.33471e-06
3959.66	-1.38786e-06
3968.34	-1.49657e-06
