Infrared Spectrum: Carbon tetrachloride
Formula: C Cl4
CAS: 56-23-5
State: gas
Melting point: -22.99 C
Boiling point: 76.54 C
Class: IUPAC A
Instrument: IFS66V (Bruker)
Instrument parameters: KBr Beam Splitter; MCT Detector; Multipass cell
Sampling: 1 L/min Flow
Resolution: 1.9290
Temperature: 23 C
Pressure: 101.3 Pa
Origin: NIST, Analytical Chemistry Division, 301-975-3108
cm-1	(micromol/mol)-1m-1 (base 10)
575.652	-8.31781e-08
584.33	2.7217e-07
593.008	-9.3328e-08
601.687	-7.62296e-08
610.365	-4.63839e-08
619.043	5.51317e-07
627.721	1.27195e-06
636.399	2.93925e-07
645.077	-2.93728e-08
653.756	-1.20496e-07
662.434	-2.6135e-08
671.112	5.39872e-09
679.79	9.26149e-08
688.468	1.23872e-07
697.146	4.78936e-07
705.825	2.5008e-07
714.503	4.50218e-07
723.181	1.04855e-06
731.859	4.72218e-06
740.537	2.32564e-05
749.216	0.000110446
757.894	0.000325574
766.572	0.000522824
775.25	0.000671274
783.928	0.000585881
792.606	0.00430369
801.285	0.00152529
809.963	9.79842e-05
818.641	1.43355e-05
827.319	3.27111e-06
835.997	7.94339e-07
844.676	6.11605e-07
853.354	4.3085e-07
862.032	5.1616e-07
870.71	6.07341e-07
879.388	8.10492e-07
888.066	5.59808e-07
896.745	4.80202e-07
905.423	2.59517e-07
914.101	2.27103e-07
922.779	8.0355e-08
931.457	1.15505e-07
940.135	5.73705e-08
948.814	2.4391e-07
957.492	3.03099e-07
966.17	9.79271e-07
974.848	2.08481e-06
983.526	2.47241e-06
992.205	2.32374e-06
1000.88	4.22247e-06
1009.56	5.27933e-06
1018.24	4.50874e-06
1026.92	1.585e-06
1035.6	9.98253e-08
1044.27	-8.76746e-08
1052.95	1.25778e-07
1061.63	2.92418e-07
1070.31	4.8702e-07
1078.99	4.70845e-07
1087.66	9.13853e-08
1096.34	1.36423e-07
1105.02	3.61292e-07
1113.7	5.14821e-07
1122.38	2.82108e-07
1131.06	-1.08156e-07
1139.73	-2.72257e-07
1148.41	-2.49418e-07
1157.09	-1.16836e-07
1165.77	-5.54787e-08
1174.45	5.8149e-08
1183.12	9.98326e-08
1191.8	3.32618e-07
1200.48	5.96056e-07
1209.16	1.32864e-06
1217.84	2.10116e-06
1226.52	2.38626e-06
1235.19	1.84942e-06
1243.87	2.45199e-06
1252.55	5.69581e-06
1261.23	5.33124e-06
1269.91	1.58242e-06
1278.58	1.15632e-06
1287.26	5.20271e-07
1295.94	6.93248e-08
1304.62	-8.47497e-08
1313.3	-1.64777e-07
1321.98	-2.19608e-07
1330.65	-2.64188e-07
1339.33	-3.1234e-07
1348.01	-3.0975e-07
1356.69	2.33607e-07
1365.37	4.36554e-09
1374.04	-9.25131e-08
1382.72	2.97875e-08
1391.4	2.56112e-09
1400.08	-2.38773e-07
1408.76	-2.04773e-07
1417.44	-3.39035e-07
1426.11	-2.21755e-07
1434.79	-2.78165e-07
1443.47	-1.60637e-07
1452.15	-2.86489e-07
1460.83	-2.08003e-07
1469.5	-1.63868e-07
1478.18	-1.54635e-07
1486.86	-3.01972e-07
1495.54	-4.38104e-07
1504.22	1.0721e-07
1512.9	5.42717e-07
1521.57	2.77437e-07
1530.25	1.80926e-06
1538.93	1.99606e-06
1547.61	5.52592e-06
1556.29	8.05461e-06
1564.96	9.95559e-06
1573.64	8.82566e-06
1582.32	8.22906e-06
1591	7.74002e-06
1599.68	6.51968e-06
1608.36	3.62742e-06
1617.03	2.80159e-07
1625.71	9.24039e-08
1634.39	-5.5016e-07
1643.07	-1.0836e-07
1651.75	-1.06135e-06
1660.42	-2.58636e-07
1669.1	-7.66829e-07
1677.78	-3.1421e-07
1686.46	-4.41705e-07
1695.14	-1.16342e-06
1703.82	-5.02939e-07
1712.49	-3.43168e-07
1721.17	-3.24549e-07
1729.85	-4.3993e-07
1738.53	-4.301e-07
1747.21	-4.13984e-07
1755.88	-3.6178e-07
1764.56	-2.02845e-07
1773.24	-4.85855e-07
1781.92	8.90134e-08
1790.6	-1.35659e-07
1799.28	2.32974e-08
1807.95	1.07683e-08
1816.63	-2.3913e-07
1825.31	-4.57196e-07
1833.99	-3.1159e-07
1842.67	-3.66982e-07
1851.34	-2.62333e-07
1860.02	-2.6346e-07
1868.7	-4.28194e-07
1877.38	-2.63213e-07
1886.06	-3.81825e-07
1894.74	-3.89443e-07
1903.41	-3.61736e-07
1912.09	-2.24476e-07
1920.77	-3.52379e-07
1929.45	-3.38264e-07
1938.13	-3.44092e-07
1946.8	-3.18488e-07
1955.48	-2.98952e-07
1964.16	-3.39668e-07
1972.84	-3.68161e-07
1981.52	-2.43459e-07
1990.19	-2.76622e-07
1998.87	-1.91203e-07
2007.55	-2.59815e-07
2016.23	-1.89181e-07
2024.91	-2.2532e-07
2033.59	-2.76535e-07
2042.26	-2.87653e-07
2050.94	-2.62202e-07
2059.62	-2.82669e-07
2068.3	-3.19186e-07
2076.98	-3.03521e-07
2085.65	-2.8101e-07
2094.33	-2.42549e-07
2103.01	-2.30792e-07
2111.69	-1.15338e-07
2120.37	-1.74651e-07
2129.05	-2.65403e-07
2137.72	-2.33869e-07
2146.4	-2.26884e-07
2155.08	-1.83542e-07
2163.76	-2.8686e-07
2172.44	-4.61219e-08
2181.11	-1.61372e-07
2189.79	1.10616e-07
2198.47	3.13271e-07
2207.15	6.48224e-07
2215.83	6.40046e-07
2224.51	-6.79642e-08
2233.18	9.67673e-07
2241.86	8.54009e-07
2250.54	6.13868e-08
2259.22	-3.17113e-07
2267.9	-3.67644e-07
2276.57	-3.36489e-07
2285.25	-3.04191e-07
2293.93	-3.17106e-07
2302.61	-2.18779e-07
2311.29	-8.7791e-08
2319.97	-1.14886e-08
2328.64	7.90599e-08
2337.32	4.11307e-08
2346	2.1573e-08
2354.68	-2.84335e-07
2363.36	-3.68073e-07
2372.03	-2.54686e-07
2380.71	-2.39886e-07
2389.39	-2.72126e-07
2398.07	-3.32967e-07
2406.75	-3.44987e-07
2415.43	-3.41138e-07
2424.1	-3.83207e-07
2432.78	-3.80304e-07
2441.46	-3.84953e-07
2450.14	-4.04758e-07
2458.82	-4.37223e-07
2467.49	-4.23617e-07
2476.17	-4.15585e-07
2484.85	-3.422e-07
2493.53	-4.31759e-07
2502.21	-4.48363e-07
2510.89	-4.90403e-07
2519.56	-4.76848e-07
2528.24	-4.92935e-07
2536.92	-4.78681e-07
2545.6	-5.20511e-07
2554.28	-5.24578e-07
2562.95	-5.15199e-07
2571.63	-4.87529e-07
2580.31	-5.01542e-07
2588.99	-5.19485e-07
2597.67	-5.48967e-07
2606.35	-5.11241e-07
2615.02	-4.94274e-07
2623.7	-5.19055e-07
2632.38	-5.00931e-07
2641.06	-5.57392e-07
2649.74	-5.61248e-07
2658.41	-5.34415e-07
2667.09	-5.80158e-07
2675.77	-5.21973e-07
2684.45	-6.07399e-07
2693.13	-5.90308e-07
2701.81	-5.50815e-07
2710.48	-6.17644e-07
2719.16	-6.06315e-07
2727.84	-5.54751e-07
2736.52	-5.77932e-07
2745.2	-5.91363e-07
2753.87	-5.86758e-07
2762.55	-5.61379e-07
2771.23	-5.57188e-07
2779.91	-5.89195e-07
2788.59	-5.80828e-07
2797.27	-5.12049e-07
2805.94	-5.79162e-07
2814.62	-5.53994e-07
2823.3	-5.33273e-07
2831.98	-5.76957e-07
2840.66	-6.28536e-07
2849.33	-5.24141e-07
2858.01	-4.90803e-07
2866.69	-6.04205e-07
2875.37	-6.121e-07
2884.05	-5.47599e-07
2892.73	-6.13257e-07
2901.4	-6.58171e-07
2910.08	-6.17011e-07
2918.76	-6.75451e-07
2927.44	-7.74592e-07
2936.12	-6.50014e-07
2944.79	-6.38213e-07
2953.47	-6.72402e-07
2962.15	-5.68415e-07
2970.83	-6.8221e-07
2979.51	-6.12733e-07
2988.19	-5.50262e-07
2996.86	-6.21136e-07
3005.54	-5.69477e-07
3014.22	-6.16865e-07
3022.9	-5.91094e-07
3031.58	-5.47417e-07
3040.25	-5.99003e-07
3048.93	-5.94114e-07
3057.61	-5.26259e-07
3066.29	-5.41734e-07
3074.97	-4.3643e-07
3083.65	-4.5657e-07
3092.32	-3.78718e-07
3101	-3.57138e-07
3109.68	-1.55406e-07
3118.36	-7.49854e-08
3127.04	1.76295e-08
3135.71	1.57829e-07
3144.39	1.67709e-07
3153.07	3.04984e-07
3161.75	3.0951e-07
3170.43	3.52401e-07
3179.11	3.65629e-07
3187.78	4.00516e-07
3196.46	3.84015e-07
3205.14	4.35048e-07
3213.82	4.17717e-07
3222.5	3.71988e-07
3231.17	4.25029e-07
3239.85	4.1306e-07
3248.53	5.08127e-07
3257.21	4.42047e-07
3265.89	4.6389e-07
3274.57	3.12209e-07
3283.24	1.67353e-07
3291.92	8.88242e-08
3300.6	1.65949e-07
3309.28	-4.4303e-08
3317.96	-9.70314e-08
3326.63	-3.99374e-08
3335.31	-1.26775e-07
3343.99	-2.41021e-07
3352.67	-1.73872e-07
3361.35	-3.10055e-07
3370.03	-2.38802e-07
3378.7	-3.3456e-07
3387.38	-3.07792e-07
3396.06	-3.5812e-07
3404.74	-4.27794e-07
3413.42	-4.29918e-07
3422.09	-4.60324e-07
3430.77	-5.38206e-07
3439.45	-5.09939e-07
3448.13	-5.12922e-07
3456.81	-4.32923e-07
3465.49	-5.50422e-07
3474.16	-6.21456e-07
3482.84	-6.71718e-07
3491.52	-7.06766e-07
3500.2	-6.88096e-07
3508.88	-7.55784e-07
3517.55	-7.4108e-07
3526.23	-8.36605e-07
3534.91	-7.86452e-07
3543.59	-8.82778e-07
3552.27	-9.63693e-07
3560.95	-8.54875e-07
3569.62	-8.3448e-07
3578.3	-7.3277e-07
3586.98	-1.06692e-06
3595.66	-8.59146e-07
3604.34	-8.09153e-07
3613.01	-1.13842e-06
3621.69	-8.61248e-07
3630.37	-1.19131e-06
3639.05	-8.56679e-07
3647.73	-1.26934e-06
3656.41	-1.4297e-06
3665.08	-1.03784e-06
3673.76	-1.26539e-06
3682.44	-9.52568e-07
3691.12	-1.44609e-06
3699.8	-1.09048e-06
3708.47	-1.27015e-06
3717.15	-1.08976e-06
3725.83	-1.29627e-06
3734.51	-1.51615e-06
3743.19	-1.57932e-06
3751.87	-2.06863e-06
3760.54	-1.35597e-06
3769.22	-1.38675e-06
3777.9	-1.26709e-06
3786.58	-1.20913e-06
3795.26	-1.24272e-06
3803.93	-1.27572e-06
3812.61	-1.2564e-06
3821.29	-1.8275e-06
3829.97	-1.25029e-06
3838.65	-1.90745e-06
3847.33	-1.26509e-06
3856	-1.49902e-06
3864.68	-1.63173e-06
3873.36	-1.41663e-06
3882.04	-1.48731e-06
3890.72	-1.64189e-06
3899.39	-1.77835e-06
3908.07	-1.45737e-06
3916.75	-1.66299e-06
3925.43	-1.48893e-06
3934.11	-1.44691e-06
3942.79	-1.51733e-06
3951.46	-1.30172e-06
3960.14	-1.39579e-06
3968.82	-1.5265e-06
