Infrared Spectrum: Carbon tetrachloride
Formula: C Cl4
CAS: 56-23-5
State: gas
Melting point: -22.99 C
Boiling point: 76.54 C
Class: IUPAC A
Instrument: IFS66V (Bruker)
Instrument parameters: KBr Beam Splitter; MCT Detector; Multipass cell
Sampling: 1 L/min Flow
Resolution: 0.4820
Temperature: 23 C
Pressure: 101.3 Pa
Origin: NIST, Analytical Chemistry Division, 301-975-3108
cm-1	(micromol/mol)-1m-1 (base 10)
575.17	-5.02117e-07
583.848	6.62303e-07
592.526	-4.13897e-07
601.205	1.10557e-06
609.883	1.32189e-07
618.561	1.4191e-06
627.239	1.52852e-06
635.917	5.45634e-07
644.595	3.03616e-07
653.274	3.91807e-08
661.952	-1.04664e-07
670.63	4.55333e-07
679.308	7.42215e-07
687.986	-9.35753e-08
696.664	1.0594e-06
705.343	6.22628e-07
714.021	8.29802e-07
722.699	1.62954e-06
731.377	4.70783e-06
740.055	2.19119e-05
748.734	0.00010353
757.412	0.000303549
766.09	0.000501348
774.768	0.000643305
783.446	0.00062102
792.124	0.00380765
800.803	0.00172644
809.481	0.000107495
818.159	1.46398e-05
826.837	2.07931e-06
835.515	3.25917e-07
844.193	-2.08782e-07
852.872	-1.31985e-08
861.55	1.45707e-07
870.228	4.74483e-07
878.906	3.78463e-07
887.584	1.54809e-07
896.263	3.89304e-07
904.941	2.95452e-07
913.619	-1.49156e-08
922.297	-2.20052e-07
930.975	-7.43306e-08
939.653	-2.36976e-07
948.332	-1.32654e-07
957.01	2.68641e-07
965.688	8.01659e-07
974.366	1.85381e-06
983.044	2.17704e-06
991.723	2.09338e-06
1000.4	4.00683e-06
1009.08	5.00845e-06
1017.76	4.50384e-06
1026.44	1.56217e-06
1035.11	-1.42178e-07
1043.79	-2.55166e-08
1052.47	9.61001e-08
1061.15	8.25524e-08
1069.83	4.80115e-07
1078.5	5.84633e-07
1087.18	8.37747e-08
1095.86	-1.02125e-07
1104.54	2.72446e-07
1113.22	4.13111e-07
1121.9	9.13271e-08
1130.57	4.08978e-08
1139.25	-1.92964e-07
1147.93	-2.72875e-07
1156.61	-5.41691e-08
1165.29	-2.29365e-07
1173.96	-6.18451e-08
1182.64	-3.98647e-08
1191.32	4.19812e-07
1200	5.11874e-07
1208.68	1.0887e-06
1217.36	1.95188e-06
1226.03	2.7864e-06
1234.71	1.69159e-06
1243.39	2.22795e-06
1252.07	5.53831e-06
1260.75	4.72762e-06
1269.42	1.65057e-06
1278.1	8.24578e-07
1286.78	3.71631e-07
1295.46	2.98763e-07
1304.14	-8.61248e-08
1312.82	-2.74229e-07
1321.49	-2.46209e-07
1330.17	-4.30064e-07
1338.85	-2.18051e-07
1347.53	-4.86932e-07
1356.21	-4.6784e-09
1364.88	-2.84124e-08
1373.56	-2.11598e-07
1382.24	-1.04627e-08
1390.92	1.24192e-07
1399.6	-1.09561e-07
1408.28	-3.77132e-07
1416.95	-2.32167e-07
1425.63	-2.0975e-07
1434.31	-3.20547e-07
1442.99	-3.20009e-07
1451.67	-1.8798e-07
1460.34	-1.7492e-07
1469.02	-1.03289e-07
1477.7	1.53813e-08
1486.38	-1.86845e-08
1495.06	-2.21406e-07
1503.73	3.32305e-07
1512.41	-3.82494e-08
1521.09	-8.60121e-07
1529.77	1.82269e-06
1538.45	2.79677e-06
1547.13	5.48281e-06
1555.8	8.05572e-06
1564.48	9.69239e-06
1573.16	8.87415e-06
1581.84	8.36631e-06
1590.52	7.4433e-06
1599.19	6.65468e-06
1607.87	3.81304e-06
1616.55	-1.25097e-06
1625.23	1.97359e-07
1633.91	-2.29875e-07
1642.59	-1.28412e-07
1651.26	-4.50706e-07
1659.94	-1.77372e-07
1668.62	-3.00677e-07
1677.3	-4.15054e-07
1685.98	-5.46522e-07
1694.65	-2.26855e-07
1703.33	-6.10463e-07
1712.01	-4.00524e-07
1720.69	-2.24018e-07
1729.37	-3.7508e-07
1738.05	-4.50211e-07
1746.72	-2.60397e-07
1755.4	-3.08855e-07
1764.08	-1.01914e-07
1772.76	-2.82055e-06
1781.44	5.54715e-08
1790.11	7.61787e-08
1798.79	9.82319e-08
1807.47	-1.19492e-07
1816.15	-2.68015e-07
1824.83	-4.85754e-07
1833.51	-3.12798e-07
1842.18	-5.16669e-07
1850.86	-1.92106e-07
1859.54	-2.87085e-07
1868.22	-3.62587e-07
1876.9	-2.77634e-07
1885.57	-4.23727e-07
1894.25	-3.36358e-07
1902.93	-2.84459e-07
1911.61	-2.62842e-07
1920.29	-1.88715e-07
1928.97	-3.21275e-07
1937.64	-3.43633e-07
1946.32	-2.71755e-07
1955	-1.78078e-07
1963.68	-3.30588e-07
1972.36	-3.3125e-07
1981.03	-2.63184e-07
1989.71	-3.01491e-07
1998.39	-1.57494e-07
2007.07	-2.77714e-07
2015.75	-2.24971e-07
2024.43	-7.14057e-08
2033.1	-2.07058e-07
2041.78	-2.2548e-07
2050.46	-3.71908e-07
2059.14	-2.79817e-07
2067.82	-2.96922e-07
2076.49	-3.2604e-07
2085.17	-4.54707e-07
2093.85	-3.37522e-07
2102.53	-3.30646e-07
2111.21	-4.86932e-07
2119.89	-1.19761e-08
2128.56	-2.84721e-07
2137.24	-1.87915e-07
2145.92	-3.23872e-07
2154.6	3.8189e-07
2163.28	-2.7022e-07
2171.95	-3.03347e-07
2180.63	-2.1015e-07
2189.31	4.7166e-07
2197.99	-7.1413e-08
2206.67	1.63843e-06
2215.35	3.73108e-07
2224.02	-8.88169e-08
2232.7	9.77357e-07
2241.38	4.13489e-08
2250.06	5.06112e-08
2258.74	-3.01768e-07
2267.41	-3.75051e-07
2276.09	-4.6119e-07
2284.77	-3.48756e-07
2293.45	-3.71078e-07
2302.13	-2.87944e-07
2310.81	5.92258e-08
2319.48	6.24854e-08
2328.16	1.44507e-07
2336.84	1.77859e-07
2345.52	9.44048e-08
2354.2	-2.86845e-07
2362.87	-6.06526e-07
2371.55	-3.9594e-07
2380.23	-3.68663e-07
2388.91	-3.07792e-07
2397.59	-4.4204e-07
2406.27	-3.96005e-07
2414.94	-2.97075e-07
2423.62	-3.32916e-07
2432.3	-3.72708e-07
2440.98	-4.23094e-07
2449.66	-3.85419e-07
2458.33	-3.97846e-07
2467.01	-4.14101e-07
2475.69	-3.44558e-07
2484.37	-4.3675e-07
2493.05	-5.21078e-07
2501.73	-3.72766e-07
2510.4	-4.57865e-07
2519.08	-5.33498e-07
2527.76	-5.51462e-07
2536.44	-4.70547e-07
2545.12	-5.13024e-07
2553.79	-4.63111e-07
2562.47	-5.39792e-07
2571.15	-5.3563e-07
2579.83	-4.30573e-07
2588.51	-6.47919e-07
2597.19	-5.22461e-07
2605.86	-5.87376e-07
2614.54	-5.49112e-07
2623.22	-5.97184e-07
2631.9	-3.32058e-07
2640.58	-6.57494e-07
2649.25	-6.66283e-07
2657.93	-4.73356e-07
2666.61	-6.90956e-07
2675.29	-4.1007e-07
2683.97	-5.42782e-07
2692.65	-3.59204e-07
2701.32	-5.80442e-07
2710	-4.97482e-07
2718.68	-7.59997e-07
2727.36	-5.96355e-07
2736.04	-6.97963e-07
2744.71	-7.63649e-07
2753.39	-6.21791e-07
2762.07	-7.84837e-07
2770.75	-6.17127e-07
2779.43	-6.05217e-07
2788.11	-7.3066e-07
2796.78	-4.51833e-07
2805.46	-4.81919e-07
2814.14	-5.52932e-07
2822.82	-5.79809e-07
2831.5	-5.60041e-07
2840.17	-5.48057e-07
2848.85	-5.0852e-07
2857.53	-4.18612e-07
2866.21	-6.63591e-07
2874.89	-7.18088e-07
2883.57	-5.465e-07
2892.24	-7.17185e-07
2900.92	-6.40279e-07
2909.6	-5.9244e-07
2918.28	-6.82399e-07
2926.96	-7.70816e-07
2935.63	-8.50495e-07
2944.31	-9.17862e-07
2952.99	-5.97919e-07
2961.67	-2.99112e-08
2970.35	-7.05711e-07
2979.03	-7.7863e-07
2987.7	-5.1979e-07
2996.38	-6.06788e-07
3005.06	-5.67033e-07
3013.74	-5.19587e-07
3022.42	-6.66698e-07
3031.09	-7.30995e-07
3039.77	-7.60608e-07
3048.45	-5.46013e-07
3057.13	-8.16385e-07
3065.81	-6.21747e-07
3074.49	-5.90461e-07
3083.16	-3.73974e-07
3091.84	-4.03354e-07
3100.52	-4.33876e-07
3109.2	9.62529e-08
3117.88	4.21275e-08
3126.55	-5.24883e-08
3135.23	6.97031e-09
3143.91	7.95183e-08
3152.59	2.47737e-07
3161.27	2.28099e-07
3169.95	4.70765e-07
3178.62	3.19434e-07
3187.3	3.37915e-07
3195.98	4.28681e-07
3204.66	5.40614e-07
3213.34	5.75145e-07
3222.01	4.76782e-07
3230.69	2.60703e-07
3239.37	6.19215e-07
3248.05	5.26833e-07
3256.73	4.33309e-07
3265.4	4.73457e-07
3274.08	3.31221e-07
3282.76	4.89377e-08
3291.44	1.09946e-07
3300.12	1.85514e-07
3308.8	-3.90207e-08
3317.47	-2.3734e-08
3326.15	2.19223e-08
3334.83	-1.87893e-07
3343.51	-3.09269e-07
3352.19	-1.51943e-07
3360.86	-4.15985e-07
3369.54	-1.3531e-07
3378.22	-1.51033e-07
3386.9	-1.25655e-08
3395.58	-4.68037e-07
3404.26	-3.62427e-07
3412.93	-6.73967e-08
3421.61	-4.91851e-07
3430.29	-1.57996e-07
3438.97	-3.94448e-07
3447.65	-4.54584e-07
3456.32	-3.11459e-07
3465	-6.83876e-07
3473.68	-7.45249e-07
3482.36	-6.79183e-07
3491.04	-7.44798e-07
3499.72	-7.41924e-07
3508.39	-7.00982e-07
3517.07	-4.52517e-07
3525.75	-9.54533e-07
3534.43	-4.51564e-07
3543.11	-7.34015e-07
3551.78	-7.96318e-07
3560.46	-9.31242e-07
3569.14	-7.0406e-07
3577.82	-9.37769e-07
3586.5	-1.58339e-06
3595.18	-1.20656e-06
3603.85	-9.31039e-07
3612.53	-1.60407e-06
3621.21	-1.3069e-06
3629.89	-1.2309e-06
3638.57	-6.83694e-07
3647.24	-1.46516e-06
3655.92	-8.04962e-07
3664.6	-1.03987e-06
3673.28	-1.24466e-06
3681.96	-1.11067e-06
3690.64	-1.12557e-06
3699.31	-1.09876e-06
3707.99	-1.1307e-06
3716.67	-9.83214e-07
3725.35	-1.23135e-06
3734.03	-1.28858e-06
3742.7	-1.05567e-06
3751.38	-1.20197e-06
3760.06	-1.75986e-06
3768.74	-1.14456e-06
3777.42	-9.88053e-07
3786.1	-1.40612e-06
3794.77	-1.25377e-06
3803.45	-1.3195e-06
3812.13	-1.30455e-06
3820.81	-2.74795e-06
3829.49	-1.05455e-06
3838.16	-1.82797e-06
3846.84	-1.22816e-06
3855.52	-1.49483e-06
3864.2	-1.28539e-06
3872.88	-1.18626e-06
3881.56	-1.35297e-06
3890.23	-1.02781e-06
3898.91	-1.56465e-06
3907.59	-1.30202e-06
3916.27	-1.76783e-06
3924.95	-1.30671e-06
3933.62	-1.20087e-06
3942.3	-1.0655e-06
3950.98	-1.18341e-06
3959.66	-1.50713e-06
3968.34	-1.48965e-06
