Infrared Spectrum: Carbon tetrachloride
Formula: C Cl4
CAS: 56-23-5
State: gas
Melting point: -22.99 C
Boiling point: 76.54 C
Class: IUPAC A
Instrument: IFS66V (Bruker)
Instrument parameters: KBr Beam Splitter; MCT Detector; Multipass cell
Sampling: 1 L/min Flow
Resolution: 0.1250
Temperature: 23 C
Pressure: 101.3 Pa
Origin: NIST, Analytical Chemistry Division, 301-975-3108
cm-1	(micromol/mol)-1m-1 (base 10)
575.05	-1.62231e-06
583.608	9.14937e-07
592.165	-3.77634e-07
600.723	-2.23502e-06
609.281	-4.21471e-07
617.838	-1.05675e-07
626.396	2.02063e-06
634.954	-1.55163e-06
643.511	9.77015e-07
652.069	-6.89828e-08
660.626	-2.8352e-07
669.184	-3.27183e-07
677.742	2.80042e-07
686.299	-6.30944e-07
694.857	4.64712e-07
703.415	-1.31387e-06
711.972	6.66793e-07
720.53	9.81788e-07
729.088	3.49872e-06
737.645	1.33984e-05
746.203	6.50962e-05
754.761	0.000233491
763.318	0.000448444
771.876	0.000552319
780.434	0.00078161
788.991	0.00126903
797.549	0.00493647
806.106	0.000319052
814.664	2.96769e-05
823.222	6.29082e-06
831.779	1.35259e-06
840.337	1.79613e-07
848.895	2.49745e-07
857.452	1.12078e-06
866.01	4.05086e-07
874.568	1.3006e-06
883.125	6.18146e-07
891.683	9.19259e-07
900.241	4.44499e-07
908.798	3.45358e-07
917.356	1.19536e-07
925.914	1.69965e-07
934.471	2.91815e-07
943.029	1.25771e-07
951.586	1.11561e-07
960.144	-1.75167e-07
968.702	1.51615e-06
977.259	1.97178e-06
985.817	2.6284e-06
994.375	2.84196e-06
1002.93	4.49622e-06
1011.49	5.61611e-06
1020.05	4.12255e-06
1028.61	8.20511e-07
1037.16	-4.59051e-07
1045.72	1.86212e-07
1054.28	-8.03114e-08
1062.84	6.47417e-07
1071.39	6.37674e-07
1079.95	-9.81082e-08
1088.51	-2.31839e-07
1097.07	1.73945e-07
1105.62	3.20409e-07
1114.18	7.08738e-07
1122.74	-1.81112e-07
1131.3	-4.21427e-07
1139.85	-4.46427e-07
1148.41	-4.54016e-09
1156.97	-1.29802e-07
1165.53	6.46777e-07
1174.09	-3.14683e-08
1182.64	2.1704e-08
1191.2	-2.13038e-08
1199.76	4.76666e-07
1208.32	1.26458e-06
1216.87	1.7412e-06
1225.43	2.63539e-06
1233.99	1.41676e-06
1242.55	1.84945e-06
1251.1	5.39305e-06
1259.66	5.60814e-06
1268.22	1.89038e-06
1276.78	1.2637e-06
1285.33	5.31308e-07
1293.89	5.32974e-07
1302.45	4.46762e-07
1311.01	4.46449e-08
1319.57	-8.76142e-07
1328.12	-1.18248e-07
1336.68	-5.34953e-07
1345.24	-2.12944e-07
1353.8	-1.58797e-07
1362.35	-2.34771e-07
1370.91	4.35492e-07
1379.47	-2.96471e-07
1388.03	4.0534e-07
1396.58	-2.34284e-09
1405.14	-3.7508e-07
1413.7	-1.52605e-07
1422.26	1.61525e-09
1430.81	-2.43895e-07
1439.37	-1.95474e-07
1447.93	-1.20135e-06
1456.49	-2.66007e-06
1465.05	-1.07915e-06
1473.6	-1.40581e-06
1482.16	-1.57036e-07
1490.72	-6.55653e-07
1499.28	2.50276e-07
1507.83	4.46158e-07
1516.39	7.76382e-07
1524.95	1.31196e-06
1533.51	1.6886e-06
1542.06	1.7853e-06
1550.62	6.35089e-06
1559.18	8.60967e-06
1567.74	9.59848e-06
1576.29	6.09704e-06
1584.85	8.06246e-06
1593.41	7.25486e-06
1601.97	5.69296e-06
1610.53	2.81425e-06
1619.08	7.70962e-07
1627.64	-3.60776e-07
1636.2	-3.7874e-07
1644.76	-1.43313e-07
1653.31	-5.94624e-06
1661.87	-2.37682e-07
1670.43	-3.19361e-07
1678.99	-4.97417e-07
1687.54	-4.44812e-07
1696.1	-2.05153e-06
1704.66	-5.25276e-07
1713.22	-6.30937e-07
1721.77	-5.75254e-07
1730.33	-5.35055e-07
1738.89	-4.35252e-07
1747.45	-2.34757e-07
1756.01	-3.53376e-07
1764.56	-2.51324e-07
1773.12	-3.52314e-07
1781.68	1.36132e-07
1790.24	1.62223e-07
1798.79	1.26819e-07
1807.35	1.19943e-07
1815.91	-4.36117e-07
1824.47	-4.19798e-07
1833.02	-8.45751e-08
1841.58	-2.84721e-07
1850.14	-1.16815e-07
1858.7	-3.48588e-07
1867.25	-2.32618e-07
1875.81	-9.90614e-08
1884.37	-1.67295e-07
1892.93	-2.96173e-07
1901.49	-4.33454e-07
1910.04	-3.63111e-07
1918.6	-5.18335e-07
1927.16	-4.10834e-07
1935.72	-2.05413e-07
1944.27	-4.57392e-07
1952.83	-2.19274e-07
1961.39	-1.9287e-07
1969.95	-2.06083e-07
1978.5	-2.56992e-07
1987.06	-3.58054e-07
1995.62	-3.25451e-08
2004.18	-1.91174e-07
2012.73	-1.28623e-07
2021.29	-1.9674e-07
2029.85	-3.43932e-07
2038.41	-2.60281e-07
2046.97	-2.80224e-07
2055.52	-2.36794e-07
2064.08	-5.22526e-07
2072.64	-4.67491e-07
2081.2	-3.1792e-07
2089.75	-4.13548e-07
2098.31	-1.26812e-07
2106.87	-4.55944e-07
2115.43	-4.60957e-07
2123.98	-2.34575e-08
2132.54	-3.12907e-07
2141.1	-3.49818e-07
2149.66	-2.90701e-07
2158.21	4.15992e-07
2166.77	-7.16894e-08
2175.33	-8.75e-08
2183.89	4.66676e-08
2192.45	1.24766e-06
2201	5.11787e-08
2209.56	2.9699e-06
2218.12	-2.50131e-07
2226.68	-2.53565e-08
2235.23	4.95896e-07
2243.79	1.87872e-06
2252.35	-2.81446e-07
2260.91	-3.7775e-07
2269.46	-3.46828e-07
2278.02	-2.84117e-07
2286.58	-4.38293e-07
2295.14	-1.53776e-07
2303.69	-5.28303e-08
2312.25	-1.51899e-07
2320.81	3.25669e-08
2329.37	3.59313e-07
2337.93	-7.55384e-08
2346.48	-6.82261e-08
2355.04	-1.72264e-07
2363.6	-3.22912e-07
2372.16	-9.9527e-08
2380.71	-3.29889e-07
2389.27	-1.73639e-07
2397.83	-1.90578e-07
2406.39	-5.84175e-07
2414.94	-1.40279e-07
2423.5	-4.56592e-07
2432.06	-3.13409e-07
2440.62	-3.88984e-07
2449.17	-3.68066e-07
2457.73	-3.3571e-08
2466.29	-5.11496e-07
2474.85	-6.39479e-07
2483.41	-5.95925e-07
2491.96	-4.92156e-07
2500.52	-5.19594e-07
2509.08	-6.66676e-07
2517.64	-7.75669e-07
2526.19	-3.85055e-07
2534.75	-6.53972e-07
2543.31	-6.31854e-07
2551.87	-6.63307e-07
2560.42	-3.0689e-07
2568.98	-4.43153e-07
2577.54	-5.90665e-07
2586.1	-7.21675e-07
2594.65	-4.04933e-07
2603.21	-5.03201e-07
2611.77	-4.68713e-07
2620.33	-4.5764e-07
2628.89	-4.10142e-07
2637.44	-4.36336e-07
2646	-7.05966e-07
2654.56	-6.88831e-07
2663.12	-2.6234e-07
2671.67	-4.77175e-07
2680.23	-8.59902e-07
2688.79	-5.1851e-07
2697.35	-7.36365e-07
2705.9	-6.64719e-07
2714.46	-8.07836e-07
2723.02	-9.70307e-07
2731.58	-7.55428e-07
2740.13	-6.33862e-07
2748.69	-6.50225e-07
2757.25	-3.84604e-07
2765.81	-6.83578e-07
2774.37	-8.28318e-07
2782.92	-7.80369e-07
2791.48	-9.20983e-07
2800.04	-5.17316e-07
2808.6	-4.492e-07
2817.15	-3.82028e-07
2825.71	-1.21427e-07
2834.27	-6.87834e-07
2842.83	-1.06504e-06
2851.38	-6.49672e-07
2859.94	-7.35812e-07
2868.5	-6.86547e-07
2877.06	-2.93655e-07
2885.61	-5.285e-07
2894.17	-4.02372e-07
2902.73	-2.83367e-07
2911.29	-6.99607e-07
2919.85	-8.31184e-07
2928.4	-5.05348e-07
2936.96	-8.02896e-07
2945.52	-6.0032e-07
2954.08	-3.49483e-07
2962.63	-5.78565e-07
2971.19	-7.28754e-07
2979.75	-4.48683e-07
2988.31	-4.15869e-07
2996.86	-5.23879e-07
3005.42	-6.40214e-07
3013.98	-3.51499e-07
3022.54	-4.40709e-07
3031.09	-7.24731e-07
3039.65	-8.20314e-07
3048.21	-5.60252e-07
3056.77	-6.54242e-07
3065.33	-6.57327e-07
3073.88	-8.79838e-07
3082.44	-8.53303e-07
3091	-7.17986e-08
3099.56	4.6111e-07
3108.11	-3.69885e-07
3116.67	-6.09138e-08
3125.23	-2.57494e-08
3133.79	3.29991e-07
3142.34	9.70605e-08
3150.9	4.47723e-07
3159.46	2.61176e-07
3168.02	1.73217e-07
3176.57	7.50727e-08
3185.13	3.63082e-07
3193.69	6.89894e-07
3202.25	1.32189e-07
3210.81	4.42753e-07
3219.36	8.42564e-07
3227.92	6.22359e-07
3236.48	3.29678e-07
3245.04	7.1087e-07
3253.59	4.79453e-07
3262.15	8.86787e-07
3270.71	3.88831e-07
3279.27	1.57945e-07
3287.82	2.78558e-07
3296.38	-3.26033e-08
3304.94	7.5582e-08
3313.5	-2.53383e-07
3322.05	-1.32058e-08
3330.61	-2.1151e-08
3339.17	-4.16109e-08
3347.73	-6.45416e-07
3356.29	-1.08011e-07
3364.84	-8.48967e-07
3373.4	-4.3961e-08
3381.96	1.14013e-08
3390.52	-6.24541e-07
3399.07	-6.09277e-07
3407.63	-6.17353e-07
3416.19	-7.16967e-08
3424.75	-6.37216e-07
3433.3	-3.99883e-07
3441.86	-4.95649e-07
3450.42	-1.32072e-07
3458.98	-7.85557e-07
3467.53	-8.91989e-07
3476.09	-6.70503e-07
3484.65	-9.27815e-07
3493.21	-5.23741e-07
3501.77	-1.01547e-06
3510.32	-6.20176e-07
3518.88	-1.39993e-06
3527.44	-9.00065e-07
3536	-4.84786e-07
3544.55	-9.29242e-07
3553.11	-6.8058e-07
3561.67	-1.06294e-06
3570.23	-4.02292e-07
3578.78	-5.61867e-07
3587.34	-7.14472e-07
3595.9	-1.23926e-06
3604.46	-7.42768e-07
3613.01	-1.79811e-06
3621.57	-5.89879e-07
3630.13	-8.09458e-07
3638.69	-8.66931e-07
3647.25	-1.464e-06
3655.8	-1.21577e-06
3664.36	-3.9407e-07
3672.92	-7.55668e-07
3681.48	-9.80173e-07
3690.03	-6.96755e-07
3698.59	-1.29372e-06
3707.15	-9.93852e-07
3715.71	-1.45325e-06
3724.26	-1.61625e-06
3732.82	-1.4235e-06
3741.38	-1.78748e-06
3749.94	-1.70015e-06
3758.49	-1.1062e-06
3767.05	-1.40898e-06
3775.61	-8.94827e-07
3784.17	-1.51174e-06
3792.73	-6.90345e-07
3801.28	-3.68425e-06
3809.84	-1.36565e-06
3818.4	-1.67672e-06
3826.96	-1.15207e-06
3835.51	-9.78187e-07
3844.07	-1.38452e-06
3852.63	-1.36003e-06
3861.19	-1.49974e-06
3869.74	-1.70733e-06
3878.3	-1.09726e-06
3886.86	-1.41966e-06
3895.42	-1.64632e-06
3903.97	-1.99773e-06
3912.53	-1.29383e-06
3921.09	-1.51649e-06
3929.65	-8.61707e-07
3938.21	-1.6928e-06
3946.76	-1.90094e-06
3955.32	-1.40497e-06
3963.88	-1.21709e-06
3972.44	-1.32218e-06
