Infrared Spectrum: Carbon tetrachloride
Formula: C Cl4
CAS: 56-23-5
State: gas
Melting point: -22.99 C
Boiling point: 76.54 C
Class: IUPAC A
Instrument: IFS66V (Bruker)
Instrument parameters: KBr Beam Splitter; MCT Detector; Multipass cell
Sampling: 1 L/min Flow
Resolution: 1.9290
Temperature: 23 C
Pressure: 101.3 Pa
Origin: NIST, Analytical Chemistry Division, 301-975-3108
cm-1	(micromol/mol)-1m-1 (base 10)
575.652	-9.30224e-08
584.33	2.68648e-07
593.008	-9.586e-08
601.687	-7.33047e-08
610.365	-5.68248e-08
619.043	5.61059e-07
627.721	1.26946e-06
636.399	3.02852e-07
645.077	-3.86496e-08
653.756	-1.14981e-07
662.434	-3.84677e-08
671.112	1.58469e-08
679.79	8.40585e-08
688.468	1.37602e-07
697.146	4.71638e-07
705.825	2.64661e-07
714.503	4.35266e-07
723.181	1.06832e-06
731.859	4.69953e-06
740.537	2.32628e-05
749.216	0.000110411
757.894	0.000325602
766.572	0.00052155
775.25	0.000668366
783.928	0.000585537
792.606	0.00430743
801.285	0.00152475
809.963	9.77484e-05
818.641	1.43602e-05
827.319	3.24792e-06
835.997	8.14246e-07
844.676	5.97955e-07
853.354	4.44827e-07
862.032	5.07116e-07
870.71	6.17826e-07
879.388	8.03696e-07
888.066	5.67113e-07
896.745	4.72366e-07
905.423	2.66254e-07
914.101	2.21311e-07
922.779	8.64159e-08
931.457	1.09415e-07
940.135	6.18815e-08
948.814	2.38846e-07
957.492	3.06817e-07
966.17	9.73814e-07
974.848	2.08933e-06
983.526	2.467e-06
992.205	2.32103e-06
1000.88	4.21949e-06
1009.56	5.28222e-06
1018.24	4.50852e-06
1026.92	1.586e-06
1035.6	9.61801e-08
1044.27	-8.43277e-08
1052.95	1.25065e-07
1061.63	2.95016e-07
1070.31	4.84611e-07
1078.99	4.73421e-07
1087.66	8.91516e-08
1096.34	1.38926e-07
1105.02	3.60506e-07
1113.7	5.17207e-07
1122.38	2.81425e-07
1131.06	-1.05326e-07
1139.73	-2.72213e-07
1148.41	-2.46813e-07
1157.09	-1.17389e-07
1165.77	-5.26702e-08
1174.45	5.84837e-08
1183.12	1.0275e-07
1191.8	3.33549e-07
1200.48	5.98057e-07
1209.16	1.33068e-06
1217.84	2.10481e-06
1226.52	2.38851e-06
1235.19	1.85189e-06
1243.87	2.44942e-06
1252.55	5.6987e-06
1261.23	5.32637e-06
1269.91	1.58395e-06
1278.58	1.15671e-06
1287.26	5.21595e-07
1295.94	6.86918e-08
1304.62	-8.35201e-08
1313.3	-1.65287e-07
1321.98	-2.19186e-07
1330.65	-2.65636e-07
1339.33	-3.13424e-07
1348.01	-3.12776e-07
1356.69	2.34328e-07
1365.37	5.05675e-09
1374.04	-9.50233e-08
1382.72	2.69645e-08
1391.4	2.73574e-09
1400.08	-2.42295e-07
1408.76	-2.05886e-07
1417.44	-3.35281e-07
1426.11	-2.21675e-07
1434.79	-2.73385e-07
1443.47	-1.60761e-07
1452.15	-2.86605e-07
1460.83	-2.05602e-07
1469.5	-1.59961e-07
1478.18	-1.51368e-07
1486.86	-3.04344e-07
1495.54	-4.43393e-07
1504.22	1.09815e-07
1512.9	5.42768e-07
1521.57	2.70169e-07
1530.25	1.81115e-06
1538.93	1.98817e-06
1547.61	5.52979e-06
1556.29	8.07071e-06
1564.96	9.95727e-06
1573.64	8.82848e-06
1582.32	8.23019e-06
1591	7.74382e-06
1599.68	6.52189e-06
1608.36	3.62829e-06
1617.03	2.72446e-07
1625.71	9.81155e-08
1634.39	-5.52306e-07
1643.07	-1.07152e-07
1651.75	-1.0638e-06
1660.42	-2.55799e-07
1669.1	-7.68051e-07
1677.78	-3.09604e-07
1686.46	-4.34371e-07
1695.14	-1.17274e-06
1703.82	-5.03994e-07
1712.49	-3.40017e-07
1721.17	-3.22955e-07
1729.85	-4.41392e-07
1738.53	-4.31774e-07
1747.21	-4.13599e-07
1755.88	-3.6282e-07
1764.56	-2.02197e-07
1773.24	-4.8894e-07
1781.92	8.79947e-08
1790.6	-1.32283e-07
1799.28	2.30209e-08
1807.95	1.07247e-08
1816.63	-2.39232e-07
1825.31	-4.59248e-07
1833.99	-3.11634e-07
1842.67	-3.65483e-07
1851.34	-2.63308e-07
1860.02	-2.64064e-07
1868.7	-4.30231e-07
1877.38	-2.637e-07
1886.06	-3.82632e-07
1894.74	-3.9033e-07
1903.41	-3.61467e-07
1912.09	-2.23996e-07
1920.77	-3.50495e-07
1929.45	-3.3806e-07
1938.13	-3.43059e-07
1946.8	-3.17855e-07
1955.48	-2.9757e-07
1964.16	-3.39857e-07
1972.84	-3.68357e-07
1981.52	-2.42986e-07
1990.19	-2.76346e-07
1998.87	-1.91167e-07
2007.55	-2.59022e-07
2016.23	-1.88613e-07
2024.91	-2.24236e-07
2033.59	-2.76375e-07
2042.26	-2.87129e-07
2050.94	-2.617e-07
2059.62	-2.81323e-07
2068.3	-3.19332e-07
2076.98	-3.02139e-07
2085.65	-2.80224e-07
2094.33	-2.40359e-07
2103.01	-2.30508e-07
2111.69	-1.13875e-07
2120.37	-1.73145e-07
2129.05	-2.65403e-07
2137.72	-2.35783e-07
2146.4	-2.25189e-07
2155.08	-1.8328e-07
2163.76	-2.8921e-07
2172.44	-4.41793e-08
2181.11	-1.63278e-07
2189.79	1.10827e-07
2198.47	3.11896e-07
2207.15	6.47541e-07
2215.83	6.4148e-07
2224.51	-7.07945e-08
2233.18	9.68975e-07
2241.86	8.53128e-07
2250.54	6.17142e-08
2259.22	-3.18852e-07
2267.9	-3.67455e-07
2276.57	-3.371e-07
2285.25	-3.0339e-07
2293.93	-3.19245e-07
2302.61	-2.17368e-07
2311.29	-8.81548e-08
2319.97	-1.18161e-08
2328.64	7.8667e-08
2337.32	4.14726e-08
2346	2.07072e-08
2354.68	-2.84633e-07
2363.36	-3.68961e-07
2372.03	-2.54227e-07
2380.71	-2.40279e-07
2389.39	-2.71224e-07
2398.07	-3.33716e-07
2406.75	-3.44274e-07
2415.43	-3.41844e-07
2424.1	-3.82334e-07
2432.78	-3.79802e-07
2441.46	-3.84298e-07
2450.14	-4.05268e-07
2458.82	-4.36736e-07
2467.49	-4.25204e-07
2476.17	-4.14312e-07
2484.85	-3.41967e-07
2493.53	-4.31257e-07
2502.21	-4.49367e-07
2510.89	-4.89101e-07
2519.56	-4.7735e-07
2528.24	-4.91138e-07
2536.92	-4.79009e-07
2545.6	-5.19594e-07
2554.28	-5.24934e-07
2562.95	-5.13511e-07
2571.63	-4.88104e-07
2580.31	-5.00647e-07
2588.99	-5.20336e-07
2597.67	-5.48697e-07
2606.35	-5.12442e-07
2615.02	-4.93284e-07
2623.7	-5.20205e-07
2632.38	-4.99716e-07
2641.06	-5.58869e-07
2649.74	-5.60979e-07
2658.41	-5.35521e-07
2667.09	-5.79322e-07
2675.77	-5.22155e-07
2684.45	-6.06715e-07
2693.13	-5.90723e-07
2701.81	-5.49221e-07
2710.48	-6.19055e-07
2719.16	-6.05922e-07
2727.84	-5.56104e-07
2736.52	-5.7687e-07
2745.2	-5.93131e-07
2753.87	-5.86532e-07
2762.55	-5.62129e-07
2771.23	-5.5494e-07
2779.91	-5.8961e-07
2788.59	-5.79358e-07
2797.27	-5.11838e-07
2805.94	-5.78056e-07
2814.62	-5.54234e-07
2823.3	-5.31621e-07
2831.98	-5.78019e-07
2840.66	-6.27605e-07
2849.33	-5.25349e-07
2858.01	-4.89319e-07
2866.69	-6.05486e-07
2875.37	-6.11554e-07
2884.05	-5.48581e-07
2892.73	-6.133e-07
2901.4	-6.60797e-07
2910.08	-6.16203e-07
2918.76	-6.77197e-07
2927.44	-7.73857e-07
2936.12	-6.51644e-07
2944.79	-6.37041e-07
2953.47	-6.74716e-07
2962.15	-5.66349e-07
2970.83	-6.83265e-07
2979.51	-6.13155e-07
2988.19	-5.51128e-07
2996.86	-6.20314e-07
3005.54	-5.70954e-07
3014.22	-6.16094e-07
3022.9	-5.92316e-07
3031.58	-5.45009e-07
3040.25	-6.00895e-07
3048.93	-5.92324e-07
3057.61	-5.2647e-07
3066.29	-5.41392e-07
3074.97	-4.37849e-07
3083.65	-4.54977e-07
3092.32	-3.79664e-07
3101	-3.56315e-07
3109.68	-1.56716e-07
3118.36	-7.30573e-08
3127.04	1.58396e-08
3135.71	1.59189e-07
3144.39	1.66342e-07
3153.07	3.06184e-07
3161.75	3.07756e-07
3170.43	3.53514e-07
3179.11	3.63286e-07
3187.78	4.01419e-07
3196.46	3.81999e-07
3205.14	4.36408e-07
3213.82	4.15985e-07
3222.5	3.72701e-07
3231.17	4.23014e-07
3239.85	4.14282e-07
3248.53	5.07319e-07
3257.21	4.43626e-07
3265.89	4.6346e-07
3274.57	3.12864e-07
3283.24	1.65767e-07
3291.92	9.00102e-08
3300.6	1.65585e-07
3309.28	-4.29278e-08
3317.96	-9.86685e-08
3326.63	-3.89406e-08
3335.31	-1.28965e-07
3343.99	-2.41174e-07
3352.67	-1.75313e-07
3361.35	-3.09066e-07
3370.03	-2.39654e-07
3378.7	-3.33294e-07
3387.38	-3.08527e-07
3396.06	-3.56425e-07
3404.74	-4.28863e-07
3413.42	-4.2866e-07
3422.09	-4.61903e-07
3430.77	-5.36656e-07
3439.45	-5.12674e-07
3448.13	-5.1298e-07
3456.81	-4.33869e-07
3465.49	-5.48203e-07
3474.16	-6.23596e-07
3482.84	-6.71245e-07
3491.52	-7.09444e-07
3500.2	-6.86212e-07
3508.88	-7.57036e-07
3517.55	-7.387e-07
3526.23	-8.38686e-07
3534.91	-7.83738e-07
3543.59	-8.84138e-07
3552.27	-9.61816e-07
3560.95	-8.56926e-07
3569.62	-8.33025e-07
3578.3	-7.33833e-07
3586.98	-1.06614e-06
3595.66	-8.60673e-07
3604.34	-8.07479e-07
3613.01	-1.14258e-06
3621.69	-8.5379e-07
3630.37	-1.19334e-06
3639.05	-8.5518e-07
3647.73	-1.27229e-06
3656.41	-1.43305e-06
3665.08	-1.03988e-06
3673.76	-1.25992e-06
3682.44	-9.5179e-07
3691.12	-1.44338e-06
3699.8	-1.08936e-06
3708.47	-1.27225e-06
3717.15	-1.08963e-06
3725.83	-1.29575e-06
3734.51	-1.51007e-06
3743.19	-1.5743e-06
3751.87	-2.07143e-06
3760.54	-1.35482e-06
3769.22	-1.39109e-06
3777.9	-1.26401e-06
3786.58	-1.21149e-06
3795.26	-1.23949e-06
3803.93	-1.27216e-06
3812.61	-1.25822e-06
3821.29	-1.83623e-06
3829.97	-1.24645e-06
3838.65	-1.91558e-06
3847.33	-1.26238e-06
3856	-1.4912e-06
3864.68	-1.63243e-06
3873.36	-1.42003e-06
3882.04	-1.48499e-06
3890.72	-1.64563e-06
3899.39	-1.77595e-06
3908.07	-1.45781e-06
3916.75	-1.6635e-06
3925.43	-1.49034e-06
3934.11	-1.44333e-06
3942.79	-1.51879e-06
3951.46	-1.29819e-06
3960.14	-1.39649e-06
3968.82	-1.52411e-06
