Infrared Spectrum: Carbon tetrachloride
Formula: C Cl4
CAS: 56-23-5
State: gas
Melting point: -22.99 C
Boiling point: 76.54 C
Class: IUPAC A
Instrument: IFS66V (Bruker)
Instrument parameters: KBr Beam Splitter; MCT Detector; Multipass cell
Sampling: 1 L/min Flow
Resolution: 0.1250
Temperature: 23 C
Pressure: 101.3 Pa
Origin: NIST, Analytical Chemistry Division, 301-975-3108
cm-1	(micromol/mol)-1m-1 (base 10)
575.05	-1.81494e-06
583.608	9.15134e-07
592.165	6.8766e-07
600.723	-6.23043e-07
609.281	-2.92615e-07
617.838	-3.46195e-07
626.396	1.23335e-06
634.954	-3.13067e-07
643.511	6.38606e-08
652.069	2.33222e-07
660.626	1.7986e-07
669.184	-2.69892e-07
677.742	-2.87012e-07
686.299	-7.61154e-07
694.857	1.65745e-08
703.415	-5.38635e-07
711.972	9.02037e-07
720.53	6.6509e-07
729.088	3.06155e-06
737.645	1.30888e-05
746.203	6.48497e-05
754.761	0.000234079
763.318	0.000448836
771.876	0.00055424
780.434	0.000781804
788.991	0.00126728
797.549	0.00491384
806.106	0.000319097
814.664	2.98809e-05
823.222	6.43269e-06
831.779	1.20258e-06
840.337	5.72519e-07
848.895	5.98101e-07
857.452	7.17789e-07
866.01	3.23406e-07
874.568	8.92535e-07
883.125	7.55784e-07
891.683	4.77648e-07
900.241	3.67993e-07
908.798	3.51746e-07
917.356	-1.04722e-07
925.914	-7.72701e-09
934.471	2.26593e-07
943.029	1.16953e-07
951.586	8.17302e-08
960.144	1.26317e-07
968.702	1.48065e-06
977.259	2.2395e-06
985.817	2.59839e-06
994.375	2.95624e-06
1002.93	4.49963e-06
1011.49	5.42765e-06
1020.05	4.12538e-06
1028.61	1.19299e-06
1037.16	-1.51048e-07
1045.72	6.02954e-08
1054.28	-3.3651e-08
1062.84	5.92928e-07
1071.39	5.35674e-07
1079.95	1.2775e-07
1088.51	-1.87565e-07
1097.07	-1.56432e-09
1105.62	2.71573e-07
1114.18	5.49512e-07
1122.74	-2.17331e-08
1131.3	-6.74985e-08
1139.85	-3.1111e-07
1148.41	-2.39814e-07
1156.97	-1.04809e-07
1165.53	1.37493e-07
1174.09	-6.78769e-08
1182.64	6.9252e-08
1191.2	1.84742e-07
1199.76	3.76622e-07
1208.32	1.2776e-06
1216.87	1.86186e-06
1225.43	2.71604e-06
1233.99	1.55474e-06
1242.55	2.03817e-06
1251.1	5.17359e-06
1259.66	5.87164e-06
1268.22	1.99424e-06
1276.78	1.34775e-06
1285.33	5.82945e-07
1293.89	3.89071e-07
1302.45	1.91611e-07
1311.01	-7.39304e-08
1319.57	-4.10834e-07
1328.12	-1.09146e-07
1336.68	-3.60179e-07
1345.24	-2.19201e-07
1353.8	-1.08418e-07
1362.35	-8.46842e-08
1370.91	2.44747e-07
1379.47	-1.52372e-07
1388.03	2.39908e-07
1396.58	-4.11161e-08
1405.14	-6.23268e-07
1413.7	-1.49789e-07
1422.26	-1.78361e-07
1430.81	-2.13344e-07
1439.37	-1.79482e-07
1447.93	-1.061e-06
1456.49	-2.11575e-06
1465.05	-1.09467e-06
1473.6	-1.56995e-06
1482.16	-5.85273e-08
1490.72	-7.78187e-07
1499.28	2.32683e-08
1507.83	3.55486e-07
1516.39	7.92804e-07
1524.95	1.34246e-06
1533.51	1.66603e-06
1542.06	1.62865e-06
1550.62	6.37662e-06
1559.18	8.70292e-06
1567.74	9.7306e-06
1576.29	5.80408e-06
1584.85	8.02752e-06
1593.41	7.27161e-06
1601.97	5.82376e-06
1610.53	2.7853e-06
1619.08	7.3117e-07
1627.64	-4.70001e-07
1636.2	-4.97584e-07
1644.76	-1.09852e-07
1653.31	-5.35854e-06
1661.87	-2.81024e-07
1670.43	-3.40294e-07
1678.99	-3.4375e-07
1687.54	-3.84371e-07
1696.1	-2.37899e-06
1704.66	-5.94994e-07
1713.22	-4.35936e-07
1721.77	-4.91152e-07
1730.33	-4.45605e-07
1738.89	-3.67091e-07
1747.45	-3.04926e-07
1756.01	-3.65636e-07
1764.56	-2.04926e-07
1773.12	-2.93379e-07
1781.68	6.58833e-08
1790.24	6.8277e-08
1798.79	1.19783e-07
1807.35	2.03943e-08
1815.91	-3.53383e-07
1824.47	-3.01077e-07
1833.02	-2.00364e-07
1841.58	-3.37624e-07
1850.14	-1.50044e-07
1858.7	-2.79991e-07
1867.25	-2.40709e-07
1875.81	-2.19994e-07
1884.37	-2.23254e-07
1892.93	-2.83324e-07
1901.49	-3.41793e-07
1910.04	-4.55086e-07
1918.6	-3.93553e-07
1927.16	-4.43612e-07
1935.72	-3.6987e-07
1944.27	-4.42644e-07
1952.83	-3.2671e-07
1961.39	-2.74651e-07
1969.95	-1.95307e-07
1978.5	-2.64399e-07
1987.06	-3.00757e-07
1995.62	-2.24076e-07
2004.18	-2.16916e-07
2012.73	-2.10499e-07
2021.29	-1.34633e-07
2029.85	-2.65163e-07
2038.41	-2.76928e-07
2046.97	-2.9698e-07
2055.52	-2.4196e-07
2064.08	-3.90752e-07
2072.64	-3.77612e-07
2081.2	-3.12573e-07
2089.75	-3.99571e-07
2098.31	-2.06781e-07
2106.87	-3.73436e-07
2115.43	-2.55537e-07
2123.98	-1.47482e-07
2132.54	-3.09626e-07
2141.1	-3.59517e-07
2149.66	-3.21864e-07
2158.21	5.02568e-07
2166.77	-1.36532e-07
2175.33	-1.89021e-07
2183.89	1.0115e-07
2192.45	1.04787e-06
2201	1.46122e-07
2209.56	2.5565e-06
2218.12	-1.53529e-07
2226.68	-5.36961e-08
2235.23	4.38562e-07
2243.79	1.61995e-06
2252.35	-1.98705e-07
2260.91	-3.27001e-07
2269.46	-3.15752e-07
2278.02	-3.13548e-07
2286.58	-3.9156e-07
2295.14	-1.07392e-07
2303.69	-1.01732e-07
2312.25	-1.65221e-07
2320.81	2.3865e-08
2329.37	1.34095e-07
2337.93	7.53056e-09
2346.48	-1.1151e-07
2355.04	-2.62369e-07
2363.6	-2.72519e-07
2372.16	-1.72613e-07
2380.71	-2.49774e-07
2389.27	-2.69965e-07
2397.83	-1.56483e-07
2406.39	-4.77816e-07
2414.94	-2.69514e-07
2423.5	-3.91822e-07
2432.06	-3.5892e-07
2440.62	-4.6843e-07
2449.17	-4.20816e-07
2457.73	-1.5537e-07
2466.29	-3.79649e-07
2474.85	-5.68546e-07
2483.41	-4.83309e-07
2491.96	-4.35077e-07
2500.52	-4.00524e-07
2509.08	-6.59058e-07
2517.64	-6.42033e-07
2526.19	-4.83673e-07
2534.75	-5.4789e-07
2543.31	-6.48632e-07
2551.87	-6.44659e-07
2560.42	-4.29467e-07
2568.98	-4.9479e-07
2577.54	-4.95831e-07
2586.1	-5.82137e-07
2594.65	-4.59495e-07
2603.21	-3.47177e-07
2611.77	-5.56213e-07
2620.33	-5.48654e-07
2628.89	-4.54467e-07
2637.44	-5.40621e-07
2646	-6.14697e-07
2654.56	-5.64501e-07
2663.12	-5.25946e-07
2671.67	-5.37951e-07
2680.23	-7.10288e-07
2688.79	-6.39741e-07
2697.35	-6.45845e-07
2705.9	-6.74701e-07
2714.46	-7.12784e-07
2723.02	-9.18139e-07
2731.58	-7.45729e-07
2740.13	-4.82014e-07
2748.69	-6.3686e-07
2757.25	-5.21995e-07
2765.81	-6.14282e-07
2774.37	-7.3595e-07
2782.92	-7.06446e-07
2791.48	-6.85033e-07
2800.04	-4.73945e-07
2808.6	-5.56526e-07
2817.15	-5.54671e-07
2825.71	-3.35972e-07
2834.27	-6.3464e-07
2842.83	-8.59626e-07
2851.38	-6.45278e-07
2859.94	-5.83964e-07
2868.5	-6.05697e-07
2877.06	-4.56264e-07
2885.61	-4.82618e-07
2894.17	-4.50778e-07
2902.73	-3.87042e-07
2911.29	-5.88475e-07
2919.85	-8.15999e-07
2928.4	-6.84924e-07
2936.96	-5.40017e-07
2945.52	-5.55362e-07
2954.08	-5.88868e-07
2962.63	-1.25649e-06
2971.19	-5.29438e-07
2979.75	-5.99039e-07
2988.31	-4.46529e-07
2996.86	-5.94747e-07
3005.42	-5.69972e-07
3013.98	-5.43131e-07
3022.54	-4.71267e-07
3031.09	-8.0641e-07
3039.65	-8.57203e-07
3048.21	-5.71536e-07
3056.77	-6.79816e-07
3065.33	-4.7799e-07
3073.88	-7.54256e-07
3082.44	-5.18291e-07
3091	-1.32429e-07
3099.56	-1.03536e-08
3108.11	-3.27015e-07
3116.67	-1.27859e-07
3125.23	-4.23021e-08
3133.79	1.594e-07
3142.34	2.27074e-07
3150.9	4.33993e-07
3159.46	4.30573e-07
3168.02	2.02125e-07
3176.57	3.43364e-07
3185.13	2.53354e-07
3193.69	5.10353e-07
3202.25	2.86489e-07
3210.81	5.95045e-07
3219.36	5.11605e-07
3227.92	4.73414e-07
3236.48	3.67426e-07
3245.04	6.57741e-07
3253.59	4.19048e-07
3262.15	6.42091e-07
3270.71	4.27496e-07
3279.27	2.29315e-07
3287.82	7.21551e-08
3296.38	-3.69397e-08
3304.94	-4.89668e-09
3313.5	-6.33294e-08
3322.05	3.2516e-08
3330.61	-2.66734e-08
3339.17	-2.5999e-07
3347.73	-3.32872e-07
3356.29	-1.44528e-07
3364.84	-5.75946e-07
3373.4	-6.87718e-08
3381.96	-1.17753e-07
3390.52	-3.93102e-07
3399.07	-4.1995e-07
3407.63	-3.18874e-07
3416.19	-4.24833e-07
3424.75	-5.64108e-07
3433.3	-5.98428e-07
3441.86	-4.44274e-07
3450.42	-1.41494e-07
3458.98	-6.04191e-07
3467.53	-5.93808e-07
3476.09	-5.67018e-07
3484.65	-8.05268e-07
3493.21	-5.97577e-07
3501.77	-9.54707e-07
3510.32	-7.93415e-07
3518.88	-1.11575e-06
3527.44	-8.56104e-07
3536	-6.62842e-07
3544.55	-8.7978e-07
3553.11	-7.74163e-07
3561.67	-1.03814e-06
3570.23	-8.02444e-07
3578.78	-6.40781e-07
3587.34	-8.1597e-07
3595.9	-9.35542e-07
3604.46	-6.51491e-07
3613.01	-1.51838e-06
3621.57	-8.15083e-07
3630.13	-8.09349e-07
3638.69	-8.80595e-07
3647.25	-1.42724e-06
3655.8	-1.03797e-06
3664.36	-8.24127e-07
3672.92	-9.01739e-07
3681.48	-1.06605e-06
3690.03	-1.02202e-06
3698.59	-1.03503e-06
3707.15	-1.1955e-06
3715.71	-1.27015e-06
3724.26	-1.43722e-06
3732.82	-1.39655e-06
3741.38	-1.5701e-06
3749.94	-1.49405e-06
3758.49	-1.2643e-06
3767.05	-1.46653e-06
3775.61	-1.20684e-06
3784.17	-1.50982e-06
3792.73	-9.71551e-07
3801.28	-3.55379e-06
3809.84	-1.23783e-06
3818.4	-1.43756e-06
3826.96	-1.18146e-06
3835.51	-1.33962e-06
3844.07	-1.29288e-06
3852.63	-1.48591e-06
3861.19	-1.48587e-06
3869.74	-1.72822e-06
3878.3	-1.31433e-06
3886.86	-1.56967e-06
3895.42	-1.54211e-06
3903.97	-1.95856e-06
3912.53	-1.31884e-06
3921.09	-1.37568e-06
3929.65	-1.15936e-06
3938.21	-1.54005e-06
3946.76	-1.63996e-06
3955.32	-1.41617e-06
3963.88	-1.58809e-06
3972.44	-1.63767e-06
