Infrared Spectrum: Disiloxane, 1,1,3,3-tetramethyl-1,3-diphenyl-
Formula: C16 H22 O Si2
CAS: 56-33-7
State: SOLUTION (11% CCl4 FOR 3800-1300, 3% CS2 FOR 1300-650, AND 11% CCl4 FOR 650-250)
Boiling point: 292 C
Class: COBLENTZ II
Instrument: PERKIN-ELMER 521 (GRATING)
Instrument parameters: FILTERS AT 3150, 2500, 2000, 1150, 700, 410. GRATING CHANGES: 2000, 630
Path length: 0.010 CM, 0.011 CM, AND 0.010 CM
Resolution: 2
Origin: DOW CORNING CORP.
1/CM	TRANSMITTANCE
222	0.936
231	0.9121
240	0.8955
249	0.8877
258	0.8649
267	0.8503
276	0.8365
285	0.8208
294	0.8043
303	0.7879
312	0.7708
321	0.7462
330	0.7012
339	0.6746
348	0.7815
357	0.7974
366	0.7556
375	0.584
384	0.4053
393	0.2703
402	0.4271
411	0.6975
420	0.8212
429	0.8529
438	0.8603
447	0.8435
456	0.6968
465	0.3492
474	0.5622
483	0.8225
492	0.8559
501	0.8636
510	0.8638
519	0.8601
528	0.851
537	0.8286
546	0.8007
555	0.796
564	0.8324
573	0.865
582	0.8687
591	0.8684
600	0.8624
609	0.8637
618	0.857
627	0.8297
636	0.7781
645	0.5016
654	0.812
663	0.8044
672	0.778
681	0.7614
690	0.4794
699	0.365
708	0.6673
717	0.5442
726	0.5355
735	0.5819
744	0.7388
753	0.7931
762	0.7667
771	0.6612
780	0.2708
789	0.1837
798	0.4993
807	0.6419
816	0.4815
825	0.1823
834	0.4419
843	0.6372
852	0.7247
861	0.7795
870	0.8124
879	0.8324
888	0.8421
897	0.8472
906	0.8534
915	0.8614
924	0.8634
933	0.8627
942	0.8656
951	0.8635
960	0.8571
969	0.8488
978	0.8332
987	0.7733
996	0.7735
1005	0.7081
1014	0.6008
1023	0.4426
1032	0.3968
1041	0.304
1050	0.2452
1059	0.242
1068	0.2888
1077	0.4419
1086	0.5772
1095	0.6499
1104	0.5961
1113	0.1746
1122	0.6895
1131	0.823
1140	0.8403
1149	0.8389
1158	0.8508
1167	0.857
1176	0.8509
1185	0.8501
1194	0.865
1203	0.8676
1212	0.8613
1221	0.8395
1230	0.8009
1239	0.6098
1248	0.2783
1257	0.7014
1266	0.8372
1275	0.858
1284	0.8479
1293	0.8424
1302	0.7725
1311	0.7197
1320	0.7816
1329	0.7976
1338	0.8425
1347	0.8347
1356	0.8297
1365	0.7952
1374	0.8017
1383	0.7443
1392	0.6598
1401	0.5826
1410	0.6548
1419	0.4187
1428	0.6406
1437	0.7635
1446	0.8091
1455	0.8305
1464	0.8326
1473	0.8284
1482	0.6973
1491	0.8646
1500	0.8679
1509	0.8691
1518	0.8721
1527	0.8701
1536	0.8662
1545	0.8598
1554	0.8639
1563	0.852
1572	0.8267
1581	0.7628
1590	0.7604
1599	0.8015
1608	0.7902
1617	0.8233
1626	0.8408
1635	0.8387
1644	0.8524
1653	0.8603
1662	0.8649
1671	0.8661
1680	0.8677
1689	0.8652
1698	0.8584
1707	0.8276
1716	0.7821
1725	0.841
1734	0.864
1743	0.8636
1752	0.8525
1761	0.8518
1770	0.8639
1779	0.8821
1788	0.8759
1797	0.8706
1806	0.8455
1815	0.7981
1824	0.8584
1833	0.8673
1842	0.877
1851	0.8757
1860	0.8729
1869	0.8476
1878	0.7957
1887	0.8272
1896	0.8123
1905	0.8651
1914	0.8733
1923	0.8679
1932	0.8617
1941	0.8274
1950	0.7893
1959	0.8379
1968	0.8523
1977	0.8737
1986	0.8841
1995	0.8886
2004	0.8851
2013	0.8834
2022	0.8822
2031	0.8809
2040	0.8811
2049	0.8823
2058	0.8836
2067	0.8842
2076	0.8841
2085	0.8842
2094	0.8839
2103	0.8834
2112	0.8829
2121	0.8824
2130	0.882
2139	0.8814
2148	0.881
2157	0.8805
2166	0.88
2175	0.8795
2184	0.879
2193	0.8788
2202	0.8788
2211	0.8781
2220	0.8774
2229	0.8767
2238	0.8768
2247	0.8778
2256	0.8787
2265	0.8802
2274	0.8822
2283	0.8849
2292	0.8833
2301	0.8776
2310	0.8783
2319	0.8828
2328	0.8861
2337	0.884
2346	0.8814
2355	0.8802
2364	0.8796
2373	0.8791
2382	0.8788
2391	0.8784
2400	0.8782
2409	0.8782
2418	0.8781
2427	0.878
2436	0.8779
2445	0.8775
2454	0.8772
2463	0.8776
2472	0.8771
2481	0.8729
2490	0.8722
2499	0.8744
2508	0.8766
2517	0.8779
2526	0.8771
2535	0.8758
2544	0.8749
2553	0.8739
2562	0.8731
2571	0.8727
2580	0.8723
2589	0.8717
2598	0.8712
2607	0.8706
2616	0.8701
2625	0.8696
2634	0.8694
2643	0.8695
2652	0.8696
2661	0.8694
2670	0.8687
2679	0.8681
2688	0.8678
2697	0.8679
2706	0.8694
2715	0.873
2724	0.8752
2733	0.8739
2742	0.8717
2751	0.8689
2760	0.8654
2769	0.86
2778	0.8488
2787	0.8408
2796	0.8396
2805	0.8382
2814	0.8369
2823	0.8354
2832	0.8341
2841	0.8327
2850	0.8321
2859	0.8309
2868	0.8199
2877	0.804
2886	0.7613
2895	0.6936
2904	0.6917
2913	0.7515
2922	0.7539
2931	0.7281
2940	0.6834
2949	0.5373
2958	0.3107
2967	0.2317
2976	0.4636
2985	0.6878
2994	0.6934
3003	0.6186
3012	0.5448
3021	0.5391
3030	0.5671
3039	0.6574
3048	0.548
3057	0.4485
3066	0.4969
3075	0.3291
3084	0.6043
3093	0.6816
3102	0.7671
3111	0.8257
3120	0.8279
3129	0.8254
3138	0.7847
3147	0.8381
3156	0.8459
3165	0.8519
3174	0.8569
3183	0.861
3192	0.8648
3201	0.8681
3210	0.8712
3219	0.8734
3228	0.8748
3237	0.876
3246	0.8771
3255	0.878
3264	0.8789
3273	0.8798
3282	0.8807
3291	0.8816
3300	0.8819
3309	0.8821
3318	0.8823
3327	0.8825
3336	0.8827
3345	0.8828
3354	0.883
3363	0.8831
3372	0.8833
3381	0.8836
3390	0.8839
3399	0.8842
3408	0.8846
3417	0.8849
3426	0.8849
3435	0.8847
3444	0.8846
3453	0.8844
3462	0.8843
3471	0.8842
3480	0.8841
3489	0.884
3498	0.884
3507	0.8839
3516	0.8838
3525	0.8836
3534	0.8834
3543	0.8832
3552	0.883
3561	0.8828
3570	0.8828
3579	0.8827
3588	0.8825
3597	0.8759
3606	0.871
3615	0.8689
3624	0.8684
3633	0.8684
3642	0.8694
3651	0.8708
3660	0.8723
3669	0.8715
3678	0.867
3687	0.8548
3696	0.8441
3705	0.8557
3714	0.8646
3723	0.8693
3732	0.8691
3741	0.8692
3750	0.8696
3759	0.8701
3768	0.8715
3777	0.8744
3786	0.8769
3795	0.8783
3804	0.8793
3813	0.8803
