Infrared Spectrum: Imidazole-4,5-dicarboxylic acid
Formula: C5 H4 N2 O4
CAS: 570-22-9
State: SOLID (0.8 mg / 650 mg KBr DISC)
Class: COBLENTZ III
Instrument: PERKIN-ELMER 21 (GRATING)
Instrument parameters: FILTER AT ABOUT 10 MICRON
Sampling: TRANSMISSION
Resolution: 2
Origin: SOUTHERN RESEARCH INSTITUTE
1/CM	TRANSMITTANCE
622	0.4179
631	0.5411
640	0.7867
649	0.8201
658	0.8731
667	0.9203
676	0.9536
685	0.9781
694	0.9957
703	1.001
712	1.0073
721	0.9981
730	0.9763
739	0.9462
748	0.906
757	0.6614
766	0.5207
775	0.7593
784	0.7504
793	0.6987
802	0.6026
811	0.5465
820	0.4872
829	0.3311
838	0.2504
847	0.1937
856	0.1544
865	0.1039
874	0.1001
883	0.0998
892	0.0948
901	0.0942
910	0.1165
919	0.2
928	0.4058
937	0.4377
946	0.3449
955	0.2589
964	0.203
973	0.192
982	0.199
991	0.2091
1000	0.2171
1009	0.2447
1018	0.2813
1027	0.323
1036	0.3464
1045	0.3478
1054	0.3352
1063	0.2486
1072	0.3581
1081	0.3902
1090	0.4151
1099	0.4305
1108	0.4406
1117	0.4502
1126	0.4552
1135	0.459
1144	0.4556
1153	0.4484
1162	0.4351
1171	0.4153
1180	0.4156
1189	0.4289
1198	0.5727
1207	0.659
1216	0.6581
1225	0.6287
1234	0.4863
1243	0.3112
1252	0.2663
1261	0.3805
1270	0.5621
1279	0.6982
1288	0.7322
1297	0.734
1306	0.7214
1315	0.7068
1324	0.6843
1333	0.6428
1342	0.598
1351	0.5148
1360	0.355
1369	0.1596
1378	0.0397
1387	0.063
1396	0.1633
1405	0.2214
1414	0.1933
1423	0.1077
1432	0.0815
1441	0.0646
1450	0.005
1459	0.0076
1468	0.0138
1477	0.0455
1486	0.1254
1495	0.1902
1504	0.1856
1513	0.1547
1522	0.1017
1531	0.0658
1540	0.073
1549	0.0691
1558	0.0548
1567	0.0389
1576	0.0473
1585	0.1097
1594	0.1296
1603	0.1632
1612	0.2013
1621	0.2323
1630	0.2592
1639	0.2945
1648	0.3189
1657	0.3585
1666	0.4082
1675	0.4731
1684	0.5343
1693	0.5896
1702	0.6299
1711	0.6599
1720	0.6949
1729	0.7188
1738	0.7297
1747	0.7345
1756	0.7366
1765	0.7324
1774	0.7244
1783	0.7242
1792	0.7242
1801	0.7244
1810	0.7255
1819	0.7234
1828	0.7194
1837	0.7143
1846	0.7086
1855	0.7041
1864	0.7018
1873	0.7018
1882	0.7028
1891	0.7047
1900	0.7074
1909	0.7105
1918	0.7148
1927	0.7195
1936	0.7245
1945	0.73
1954	0.7354
1963	0.7386
1972	0.7387
1981	0.7451
1990	0.7509
1999	0.7567
2008	0.7625
2017	0.7683
2026	0.7754
2035	0.7838
2044	0.794
2053	0.8036
2062	0.8121
2071	0.819
2080	0.8209
2089	0.8211
2098	0.822
2107	0.8314
2116	0.8331
2125	0.8332
2134	0.8339
2143	0.8335
2152	0.8325
2161	0.8309
2170	0.8278
2179	0.8226
2188	0.817
2197	0.8103
2206	0.8037
2215	0.796
2224	0.7878
2233	0.7801
2242	0.7757
2251	0.7719
2260	0.7632
2269	0.7547
2278	0.7451
2287	0.7274
2296	0.7085
2305	0.6815
2314	0.6606
2323	0.6499
2332	0.6408
2341	0.633
2350	0.6258
2359	0.619
2368	0.6132
2377	0.607
2386	0.5966
2395	0.584
2404	0.5728
2413	0.559
2422	0.5505
2431	0.5471
2440	0.5411
2449	0.5276
2458	0.5168
2467	0.5051
2476	0.4942
2485	0.4839
2494	0.4738
2503	0.4587
2512	0.4523
2521	0.4471
2530	0.4256
2539	0.4049
2548	0.3883
2557	0.3708
2566	0.3518
2575	0.3383
2584	0.3281
2593	0.3185
2602	0.3105
2611	0.3071
2620	0.3069
2629	0.3073
2638	0.3068
2647	0.3013
2656	0.2942
2665	0.2906
2674	0.2885
2683	0.2864
2692	0.2831
2701	0.283
2710	0.283
2719	0.2805
2728	0.2714
2737	0.2666
2746	0.2636
2755	0.2626
2764	0.264
2773	0.267
2782	0.2702
2791	0.2736
2800	0.2772
2809	0.2807
2818	0.2862
2827	0.2884
2836	0.2892
2845	0.2901
2854	0.2916
2863	0.2933
2872	0.2935
2881	0.2936
2890	0.294
2899	0.2943
2908	0.2943
2917	0.294
2926	0.2947
2935	0.2955
2944	0.2957
2953	0.2993
2962	0.3039
2971	0.3113
2980	0.322
2989	0.3359
2998	0.3485
3007	0.3595
3016	0.3711
3025	0.3819
3034	0.391
3043	0.3988
3052	0.4074
3061	0.4119
3070	0.4141
3079	0.416
3088	0.4191
3097	0.4203
3106	0.4192
3115	0.4119
3124	0.3723
3133	0.3796
3142	0.4093
3151	0.5026
3160	0.5628
3169	0.588
3178	0.6025
3187	0.616
3196	0.629
3205	0.643
3214	0.6574
3223	0.6697
3232	0.6801
3241	0.6878
3250	0.6935
3259	0.6989
3268	0.7007
3277	0.7008
3286	0.7001
3295	0.6973
3304	0.694
3313	0.6897
3322	0.685
3331	0.6798
3340	0.6735
3349	0.6672
3358	0.6612
3367	0.6556
3376	0.6495
3385	0.6467
3394	0.6495
3403	0.6522
3412	0.6578
3421	0.6655
3430	0.674
3439	0.6871
3448	0.7003
3457	0.7131
3466	0.7268
3475	0.7372
3484	0.7516
3493	0.7716
3502	0.7841
3511	0.7985
3520	0.8153
3529	0.8307
3538	0.8464
3547	0.8633
3556	0.8817
3565	0.8934
3574	0.9124
3583	0.9294
3592	0.9416
3601	0.9489
3610	0.9534
3619	0.9606
3628	0.9739
3637	0.982
3646	0.9871
3655	0.9899
3664	0.9911
3673	0.9919
3682	1.0008
3691	1.0016
3700	1.0021
3709	1.0028
3718	1.0039
3727	1.0043
3736	1.0042
3745	1.0027
3754	1.0011
3763	0.999
3772	0.9969
3781	0.996
3790	0.9956
3799	0.9952
3808	0.9947
3817	0.9943
3826	0.9937
3835	0.9931
3844	0.9925
3853	0.9921
3862	0.9916
3871	0.9911
3880	0.9895
3889	0.9879
3898	0.9865
3907	0.9852
3916	0.9842
3925	0.9833
3934	0.9825
3943	0.9818
3952	0.9829
3961	0.9865
3970	0.9892
3979	0.9877
3988	0.988
3997	0.9884
