Infrared Spectrum: STEARIC ACID
Formula: C18 H36 O2
CAS: 57-11-4
State: SOLID
Class: COBLENTZ
Instrument: PERKIN-ELMER
Sampling: TRANSMISSION
Path length: FILM
Resolution: 4
Origin: HORMEL INSTITUTE
MICROMETERS	TRANSMITTANCE
2.034	0.789
2.06791	0.792
2.10181	0.794
2.13572	0.795
2.16962	0.797
2.20353	0.797
2.23744	0.797
2.27134	0.792
2.30525	0.758
2.33916	0.77
2.37306	0.768
2.40697	0.767
2.44087	0.768
2.47478	0.785
2.50869	0.795
2.54259	0.795
2.5765	0.797
2.6104	0.801
2.64431	0.804
2.67822	0.807
2.71212	0.807
2.74603	0.809
2.77993	0.809
2.81384	0.812
2.84775	0.816
2.88165	0.817
2.91556	0.812
2.94947	0.807
2.98337	0.801
3.01728	0.777
3.05118	0.763
3.08509	0.738
3.119	0.703
3.1529	0.671
3.18681	0.629
3.22071	0.576
3.25462	0.539
3.28853	0.49
3.32243	0.451
3.35634	0.386
3.39025	0.129
3.42415	0.032
3.45806	0.067
3.49196	0.091
3.52587	0.229
3.55978	0.411
3.59368	0.47
3.62759	0.502
3.66149	0.522
3.6954	0.529
3.72931	0.514
3.76321	0.505
3.79712	0.51
3.83103	0.531
3.86493	0.553
3.89884	0.563
3.93274	0.583
3.96665	0.618
4.00056	0.64
4.03446	0.666
4.06837	0.691
4.10227	0.704
4.13618	0.72
4.17009	0.73
4.20399	0.74
4.2379	0.741
4.2718	0.741
4.30571	0.747
4.33962	0.758
4.37352	0.768
4.40743	0.777
4.44134	0.784
4.47524	0.794
4.50915	0.799
4.54305	0.797
4.57696	0.794
4.61087	0.797
4.64477	0.799
4.67868	0.804
4.71258	0.811
4.74649	0.811
4.7804	0.812
4.8143	0.814
4.84821	0.816
4.88212	0.816
4.91602	0.812
4.94993	0.809
4.98383	0.812
5.01774	0.814
5.05165	0.811
5.08555	0.809
5.11946	0.801
5.15336	0.802
5.18727	0.801
5.22118	0.797
5.25508	0.794
5.28899	0.787
5.3229	0.785
5.3568	0.782
5.39071	0.779
5.42461	0.775
5.45852	0.772
5.49243	0.762
5.52633	0.76
5.56024	0.768
5.59414	0.76
5.62805	0.765
5.66196	0.77
5.69586	0.765
5.72977	0.701
5.76367	0.65
5.79758	0.413
5.83149	0.086
5.86539	0.038
5.8993	0.064
5.93321	0.202
5.96711	0.451
6.00102	0.63
6.03492	0.701
6.06883	0.745
6.10274	0.767
6.13664	0.784
6.17055	0.795
6.20445	0.809
6.23836	0.814
6.27227	0.822
6.30617	0.822
6.34008	0.824
6.37399	0.821
6.40789	0.821
6.4418	0.819
6.4757	0.816
6.50961	0.812
6.54352	0.812
6.57742	0.812
6.61133	0.812
6.64523	0.806
6.67914	0.795
6.71305	0.78
6.74695	0.716
6.78086	0.477
6.81477	0.342
6.84867	0.445
6.88258	0.537
6.91648	0.526
6.95039	0.502
6.9843	0.47
7.0182	0.575
7.05211	0.522
7.08601	0.438
7.11992	0.612
7.15383	0.709
7.18773	0.75
7.22164	0.741
7.25554	0.703
7.28945	0.701
7.32336	0.699
7.35726	0.644
7.39117	0.64
7.42508	0.642
7.45898	0.694
7.49289	0.654
7.52679	0.639
7.5607	0.622
7.59461	0.362
7.62851	0.352
7.66242	0.278
7.69632	0.192
7.73023	0.315
7.76414	0.411
7.79804	0.487
7.83195	0.541
7.86586	0.654
7.89976	0.669
7.93367	0.593
7.96757	0.672
8.00148	0.733
8.03539	0.681
8.06929	0.612
8.1032	0.73
8.1371	0.75
8.17101	0.635
8.20492	0.586
8.23882	0.72
8.27273	0.72
8.30664	0.591
8.34054	0.632
8.37445	0.736
8.40835	0.662
8.44226	0.634
8.47617	0.752
8.51007	0.782
8.54398	0.801
8.57788	0.809
8.61179	0.814
8.6457	0.822
8.6796	0.829
8.71351	0.834
8.74741	0.838
8.78132	0.839
8.81523	0.839
8.84913	0.833
8.88304	0.812
8.91695	0.801
8.95085	0.816
8.98476	0.822
9.01866	0.811
9.05257	0.741
9.08648	0.765
9.12038	0.804
9.15429	0.826
9.18819	0.836
9.2221	0.838
9.25601	0.839
9.28991	0.836
9.32382	0.822
9.35773	0.827
9.39163	0.833
9.42554	0.826
9.45944	0.821
9.49335	0.822
9.52726	0.829
9.56116	0.829
9.59507	0.822
9.62897	0.811
9.66288	0.794
9.69679	0.794
9.73069	0.801
9.7646	0.797
9.79851	0.785
9.83241	0.762
9.86632	0.768
9.90022	0.774
9.93413	0.774
9.96804	0.768
10.0019	0.765
10.0358	0.763
10.0698	0.758
10.1037	0.745
10.1376	0.74
10.1715	0.735
10.2054	0.723
10.2393	0.701
10.2732	0.667
10.3071	0.62
10.341	0.564
10.3749	0.526
10.4088	0.504
10.4427	0.49
10.4766	0.451
10.5105	0.421
10.5444	0.403
10.5783	0.376
10.6123	0.359
10.6462	0.364
10.6801	0.403
10.714	0.453
10.7479	0.51
10.7818	0.564
10.8157	0.61
10.8496	0.64
10.8835	0.666
10.9174	0.674
10.9513	0.669
10.9852	0.661
11.0191	0.672
11.053	0.694
11.0869	0.703
11.1208	0.709
11.1548	0.709
11.1887	0.709
11.2226	0.711
11.2565	0.715
11.2904	0.733
11.3243	0.747
11.3582	0.753
11.3921	0.752
11.426	0.78
11.4599	0.801
11.4938	0.809
11.5277	0.819
11.5616	0.826
11.5955	0.831
11.6294	0.833
11.6633	0.836
11.6972	0.838
11.7312	0.839
11.7651	0.841
11.799	0.841
11.8329	0.841
11.8668	0.839
11.9007	0.844
11.9346	0.851
11.9685	0.854
12.0024	0.856
12.0363	0.858
12.0702	0.858
12.1041	0.86
12.138	0.861
12.1719	0.861
12.2058	0.861
12.2397	0.86
12.2737	0.853
12.3076	0.836
12.3415	0.79
12.3754	0.804
12.4093	0.849
12.4432	0.86
12.4771	0.863
12.511	0.866
12.5449	0.866
12.5788	0.868
12.6127	0.868
12.6466	0.868
12.6805	0.868
12.7144	0.865
12.7483	0.853
12.7822	0.848
12.8162	0.858
12.8501	0.87
12.884	0.878
12.9179	0.88
12.9518	0.88
12.9857	0.88
13.0196	0.88
13.0535	0.878
13.0874	0.87
13.1213	0.831
13.1552	0.807
13.1891	0.831
13.223	0.863
13.2569	0.876
13.2908	0.88
13.3247	0.881
13.3586	0.881
13.3926	0.876
13.4265	0.87
13.4604	0.86
13.4943	0.86
13.5282	0.86
13.5621	0.848
13.596	0.821
13.6299	0.77
13.6638	0.731
13.6977	0.691
13.7316	0.603
13.7655	0.581
13.7994	0.598
13.8333	0.598
13.8672	0.532
13.9011	0.468
13.9351	0.522
13.969	0.629
14.0029	0.726
14.0368	0.784
14.0707	0.816
14.1046	0.831
14.1385	0.841
14.1724	0.849
14.2063	0.853
14.2402	0.853
14.2741	0.851
14.308	0.848
14.3419	0.838
14.3758	0.822
14.4097	0.799
14.4436	0.767
14.4776	0.735
14.5115	0.699
14.5454	0.694
14.5793	0.694
14.6132	0.716
14.6471	0.738
14.681	0.76
14.7149	0.779
14.7488	0.794
14.7827	0.802
14.8166	0.807
14.8505	0.809
14.8844	0.814
14.9183	0.817
14.9522	0.819
14.9861	0.819
15.0201	0.839
15.054	0.858
