Infrared Spectrum: Stearic acid
Formula: C18 H36 O2
CAS: 57-11-4
State: SOLUTION (10% CCl4 FOR 3800-1330, 10% CS2 FOR 1330-450 CM^-^1)
Class: COBLENTZ III
Instrument: DOW KBr FOREPRISM-GRATING
Instrument parameters: BLAZED AT 3.5, 12.0, 20.0 MICRON AND CHANGED AT 5.0, 7.5, 14.9 MICRON
Sampling: TRANSMISSION
Path length: 0.011 CM, 0.011 CM
Resolution: 2
Origin: DOW CHEMICAL COMPANY
1/CM	TRANSMITTANCE
3796	0.9058
3787	0.9057
3778	0.9045
3769	0.9048
3760	0.9059
3751	0.906
3742	0.9064
3733	0.906
3724	0.9064
3715	0.905
3706	0.9042
3697	0.9015
3688	0.8933
3679	0.8909
3670	0.8961
3661	0.8953
3652	0.8948
3643	0.8942
3634	0.8938
3625	0.8941
3616	0.8933
3607	0.8926
3598	0.8894
3589	0.8891
3580	0.8936
3571	0.8785
3562	0.8961
3553	0.8948
3544	0.8915
3535	0.8794
3526	0.8684
3517	0.8703
3508	0.8785
3499	0.8833
3490	0.8841
3481	0.8847
3472	0.8844
3463	0.883
3454	0.8813
3445	0.8793
3436	0.8768
3427	0.874
3418	0.8697
3409	0.864
3400	0.858
3391	0.852
3382	0.8414
3373	0.8288
3364	0.8172
3355	0.8055
3346	0.7974
3337	0.7932
3328	0.7865
3319	0.7796
3310	0.7721
3301	0.7611
3292	0.7462
3283	0.7311
3274	0.7163
3265	0.6957
3256	0.6763
3247	0.6594
3238	0.6446
3229	0.6296
3220	0.6146
3211	0.5969
3202	0.5787
3193	0.5607
3184	0.5412
3175	0.5252
3166	0.5103
3157	0.4952
3148	0.479
3139	0.4642
3130	0.4513
3121	0.4364
3112	0.4202
3103	0.4054
3094	0.3917
3085	0.3822
3076	0.3762
3067	0.3704
3058	0.3639
3049	0.3533
3040	0.3447
3031	0.3375
3022	0.3342
3013	0.3313
3004	0.3234
2995	0.3003
2986	0.2758
2977	0.2035
2968	0.0781
2959	0.0539
2950	0.042
2941	0.013
2932	0.0038
2923	0.0029
2914	0.0029
2905	0.0248
2896	0.0668
2887	0.1053
2878	0.1267
2869	0.1131
2860	0.0341
2851	0.013
2842	0.1531
2833	0.2698
2824	0.3471
2815	0.3791
2806	0.4068
2797	0.4355
2788	0.4699
2779	0.5029
2770	0.5213
2761	0.5322
2752	0.5348
2743	0.5325
2734	0.5348
2725	0.5386
2716	0.5417
2707	0.5442
2698	0.537
2689	0.5221
2680	0.5087
2671	0.5024
2662	0.5089
2653	0.5188
2644	0.5284
2635	0.5388
2626	0.5499
2617	0.5604
2608	0.5685
2599	0.5754
2590	0.58
2581	0.5853
2572	0.5914
2563	0.5976
2554	0.6068
2545	0.6237
2536	0.6402
2527	0.6599
2518	0.6748
2509	0.6869
2500	0.699
2491	0.71
2482	0.7209
2473	0.7316
2464	0.7406
2455	0.7488
2446	0.7579
2437	0.7657
2428	0.7735
2419	0.7788
2410	0.7835
2401	0.7889
2392	0.7937
2383	0.7992
2374	0.806
2365	0.8092
2356	0.8146
2347	0.818
2338	0.8194
2329	0.8175
2320	0.8146
2311	0.8141
2302	0.8128
2293	0.8136
2284	0.8136
2275	0.8149
2266	0.8169
2257	0.8175
2248	0.8191
2239	0.8211
2230	0.8231
2221	0.8247
2212	0.8264
2203	0.828
2194	0.8283
2185	0.8279
2176	0.8293
2167	0.8294
2158	0.8302
2149	0.8305
2140	0.8307
2131	0.8311
2122	0.8309
2113	0.8326
2104	0.8336
2095	0.8348
2086	0.8351
2077	0.834
2068	0.8319
2059	0.8303
2050	0.8297
2041	0.8277
2032	0.8273
2023	0.8271
2014	0.8264
2005	0.8252
1996	0.8185
1987	0.811
1978	0.8107
1969	0.8101
1960	0.81
1951	0.8079
1942	0.8059
1933	0.8044
1924	0.8019
1915	0.7988
1906	0.7963
1897	0.7929
1888	0.7881
1879	0.7862
1870	0.7845
1861	0.7803
1852	0.7753
1843	0.768
1834	0.7606
1825	0.7543
1816	0.7498
1807	0.7442
1798	0.7382
1789	0.7307
1780	0.7231
1771	0.6974
1762	0.6504
1753	0.5889
1744	0.544
1735	0.4657
1726	0.2079
1717	0.0096
1708	0.0041
1699	0.1421
1690	0.3467
1681	0.5372
1672	0.6159
1663	0.6721
1654	0.7043
1645	0.729
1636	0.7517
1627	0.7665
1618	0.7749
1609	0.7764
1600	0.767
1591	0.7154
1582	0.6847
1573	0.6726
1564	0.6163
1555	0.579
1546	0.589
1537	0.6527
1528	0.6798
1519	0.7037
1510	0.7163
1501	0.7281
1492	0.7313
1483	0.7216
1474	0.5551
1465	0.2448
1456	0.3132
1447	0.4106
1438	0.4052
1429	0.4212
1420	0.3967
1411	0.3229
1402	0.561
1393	0.6828
1384	0.6981
1375	0.6464
1366	0.6727
1357	0.6555
1348	0.6393
1339	0.6144
1330	0.6135
1321	0.5561
1312	0.5034
1303	0.4263
1294	0.3872
1285	0.3541
1276	0.3959
1267	0.4485
1258	0.4795
1249	0.4866
1240	0.4717
1231	0.4989
1222	0.5383
1213	0.5824
1204	0.6324
1195	0.6792
1186	0.7391
1177	0.7554
1168	0.775
1159	0.794
1150	0.8099
1141	0.8269
1132	0.8549
1123	0.8101
1114	0.773
1105	0.8091
1096	0.8229
1087	0.8301
1078	0.8371
1069	0.8446
1060	0.8564
1051	0.8636
1042	0.87
1033	0.8726
1024	0.8727
1015	0.8711
1006	0.864
997	0.8528
988	0.8349
979	0.8012
970	0.7224
961	0.6439
952	0.5719
943	0.5082
934	0.4824
925	0.5145
916	0.5702
907	0.616
898	0.6623
889	0.6959
880	0.7186
871	0.7271
862	0.7334
853	0.7598
844	0.8062
835	0.8344
826	0.8508
817	0.8634
808	0.8639
799	0.8677
790	0.8767
781	0.8691
772	0.8692
763	0.8672
754	0.8651
745	0.8509
736	0.8135
727	0.7542
718	0.7171
709	0.8368
700	0.8802
691	0.8908
682	0.877
673	0.8693
664	0.8844
655	0.8753
646	0.877
637	0.8758
628	0.8719
619	0.8868
610	0.8842
601	0.8817
592	0.8971
583	0.9074
574	0.914
565	0.9089
556	0.9005
547	0.891
538	0.8823
529	0.8717
520	0.8574
511	0.8408
502	0.8237
493	0.8002
484	0.7887
475	0.7821
466	0.782
457	0.787
