Infrared Spectrum: Stearic acid
Formula: C18 H36 O2
CAS: 57-11-4
State: SOLUTION (2% CCl4 FOR 3800-1330, 2% CS2 FOR 1330-450 CM^-^1)
Class: COBLENTZ III
Instrument: DOW KBr FOREPRISM-GRATING
Instrument parameters: BLAZED AT 3.5, 12.0, 20.0 MICRON AND CHANGED AT 5.0, 7.5, 14.9 MICRON
Sampling: TRANSMISSION
Path length: 0.011 CM, 0.011 CM
Resolution: 2
Origin: DOW CHEMICAL COMPANY
1/CM	TRANSMITTANCE
3796	0.9202
3787	0.9196
3778	0.9183
3769	0.917
3760	0.9171
3751	0.9163
3742	0.9168
3733	0.9172
3724	0.918
3715	0.9176
3706	0.9174
3697	0.9161
3688	0.9151
3679	0.9141
3670	0.9155
3661	0.9148
3652	0.9148
3643	0.9146
3634	0.9143
3625	0.9145
3616	0.9136
3607	0.9125
3598	0.9109
3589	0.9105
3580	0.9103
3571	0.9011
3562	0.9046
3553	0.9086
3544	0.9111
3535	0.912
3526	0.906
3517	0.8994
3508	0.9015
3499	0.9022
3490	0.9028
3481	0.903
3472	0.9032
3463	0.9035
3454	0.9037
3445	0.9041
3436	0.9045
3427	0.9047
3418	0.9045
3409	0.9042
3400	0.9033
3391	0.902
3382	0.9
3373	0.8984
3364	0.8966
3355	0.8923
3346	0.887
3337	0.8848
3328	0.883
3319	0.8826
3310	0.883
3301	0.8811
3292	0.88
3283	0.8764
3274	0.8712
3265	0.8657
3256	0.8593
3247	0.8543
3238	0.8481
3229	0.8421
3220	0.8359
3211	0.83
3202	0.8232
3193	0.8184
3184	0.8114
3175	0.8047
3166	0.7973
3157	0.7906
3148	0.782
3139	0.7749
3130	0.768
3121	0.7615
3112	0.7555
3103	0.7502
3094	0.7481
3085	0.7407
3076	0.7395
3067	0.7357
3058	0.7314
3049	0.7254
3040	0.7263
3031	0.7207
3022	0.7171
3013	0.7153
3004	0.7119
2995	0.7044
2986	0.692
2977	0.6694
2968	0.6225
2959	0.4899
2950	0.4308
2941	0.3511
2932	0.1996
2923	0.1264
2914	0.2171
2905	0.329
2896	0.4408
2887	0.5526
2878	0.5899
2869	0.5534
2860	0.311
2851	0.3535
2842	0.5934
2833	0.7021
2824	0.7312
2815	0.7525
2806	0.7652
2797	0.7734
2788	0.7829
2779	0.7927
2770	0.798
2761	0.8024
2752	0.8047
2743	0.8063
2734	0.8072
2725	0.808
2716	0.8088
2707	0.8094
2698	0.8098
2689	0.8088
2680	0.8053
2671	0.8007
2662	0.7968
2653	0.8001
2644	0.8017
2635	0.8045
2626	0.8083
2617	0.8113
2608	0.8142
2599	0.8171
2590	0.8203
2581	0.8233
2572	0.8265
2563	0.8301
2554	0.8346
2545	0.8391
2536	0.8442
2527	0.8495
2518	0.8546
2509	0.8595
2500	0.8644
2491	0.8693
2482	0.8739
2473	0.8791
2464	0.8833
2455	0.8842
2446	0.8871
2437	0.8883
2428	0.8895
2419	0.8902
2410	0.891
2401	0.8928
2392	0.8935
2383	0.8972
2374	0.9043
2365	0.909
2356	0.9144
2347	0.914
2338	0.9115
2329	0.9118
2320	0.9138
2311	0.9111
2302	0.9069
2293	0.9064
2284	0.9052
2275	0.9022
2266	0.9024
2257	0.9034
2248	0.9057
2239	0.9096
2230	0.9119
2221	0.9115
2212	0.9122
2203	0.9126
2194	0.9131
2185	0.9121
2176	0.9131
2167	0.9118
2158	0.9117
2149	0.9117
2140	0.9121
2131	0.9124
2122	0.9118
2113	0.9133
2104	0.9139
2095	0.9139
2086	0.9137
2077	0.9134
2068	0.9131
2059	0.9128
2050	0.9137
2041	0.9123
2032	0.9121
2023	0.913
2014	0.9126
2005	0.9117
1996	0.9091
1987	0.9104
1978	0.9105
1969	0.9123
1960	0.9147
1951	0.9153
1942	0.9149
1933	0.9155
1924	0.9156
1915	0.9155
1906	0.9159
1897	0.9143
1888	0.9107
1879	0.9102
1870	0.91
1861	0.9085
1852	0.907
1843	0.9058
1834	0.9039
1825	0.9028
1816	0.9029
1807	0.9017
1798	0.9008
1789	0.9016
1780	0.9019
1771	0.8973
1762	0.8749
1753	0.8519
1744	0.8526
1735	0.8473
1726	0.7934
1717	0.4944
1708	0.1751
1699	0.5473
1690	0.7815
1681	0.8455
1672	0.8802
1663	0.896
1654	0.9103
1645	0.9182
1636	0.9237
1627	0.9264
1618	0.9251
1609	0.9179
1600	0.8902
1591	0.8243
1582	0.811
1573	0.7992
1564	0.7706
1555	0.7255
1546	0.6956
1537	0.7583
1528	0.7979
1519	0.8291
1510	0.847
1501	0.8528
1492	0.8797
1483	0.9044
1474	0.8976
1465	0.7065
1456	0.7475
1447	0.8089
1438	0.8099
1429	0.8177
1420	0.8132
1411	0.7624
1402	0.8725
1393	0.9053
1384	0.9255
1375	0.8916
1366	0.8941
1357	0.8912
1348	0.889
1339	0.8846
1330	0.8845
1321	0.8776
1312	0.8581
1303	0.8292
1294	0.8109
1285	0.7944
1276	0.7882
1267	0.8239
1258	0.8422
1249	0.8493
1240	0.8517
1231	0.8641
1222	0.8806
1213	0.8919
1204	0.9062
1195	0.9197
1186	0.9376
1177	0.9352
1168	0.9431
1159	0.9472
1150	0.9475
1141	0.9472
1132	0.9525
1123	0.9515
1114	0.9382
1105	0.9332
1096	0.943
1087	0.9351
1078	0.9303
1069	0.9298
1060	0.9377
1051	0.9412
1042	0.9447
1033	0.9469
1024	0.9464
1015	0.9482
1006	0.9493
997	0.9466
988	0.9438
979	0.9387
970	0.9268
961	0.9096
952	0.8872
943	0.8624
934	0.8497
925	0.8535
916	0.868
907	0.8877
898	0.9009
889	0.912
880	0.9164
871	0.9029
862	0.8989
853	0.8884
844	0.9033
835	0.9199
826	0.9405
817	0.9558
808	0.964
799	0.9612
790	0.9565
781	0.9531
772	0.9507
763	0.9487
754	0.9492
745	0.9496
736	0.9457
727	0.9382
718	0.9064
709	0.9292
700	0.9486
691	0.953
682	0.9583
673	0.9636
664	0.9711
655	0.9744
646	0.9563
637	0.9524
628	0.9594
619	0.9684
610	0.973
601	0.9726
592	0.9749
583	0.9768
574	0.9775
565	0.9757
556	0.9697
547	0.9626
538	0.958
529	0.9507
520	0.9447
511	0.9363
502	0.9272
493	0.9157
484	0.9079
475	0.9037
466	0.8969
457	0.8884
