Infrared Spectrum: N(2-BROMOETHYL)PHTHALIMIDE
Formula: C10 H8 Br N O2
CAS: 574-98-1
State: SOLID (MINERAL OIL MULL)
Melting point: 80-82 C
Class: COBLENTZ
Instrument: Not specified, most likely a prism, grating, or hybrid spectrometer.
Sampling: TRANSMISSION
Resolution: 4
Origin: WYANDOTTE CHEMICALS CORP., WYANDOTTE, MICHIGAN, USA
MICROMETERS	TRANSMITTANCE
2.027	0.601
2.06677	0.601
2.10654	0.603
2.14631	0.61
2.18609	0.61
2.22586	0.601
2.26563	0.6
2.3054	0.606
2.34517	0.618
2.38494	0.613
2.42471	0.62
2.46448	0.63
2.50426	0.641
2.54403	0.64
2.5838	0.653
2.62357	0.648
2.66334	0.66
2.70311	0.661
2.74288	0.658
2.78266	0.669
2.82243	0.673
2.8622	0.671
2.90197	0.665
2.94174	0.653
2.98151	0.641
3.02128	0.669
3.06106	0.665
3.10083	0.671
3.1406	0.661
3.18037	0.653
3.22014	0.648
3.25991	0.62
3.29968	0.5
3.33945	0.378
3.37923	0.038
3.419	0.039
3.45877	0.114
3.49854	0.102
3.53831	0.353
3.57808	0.613
3.61785	0.648
3.65763	0.655
3.6974	0.65
3.73717	0.655
3.77694	0.661
3.81671	0.665
3.85648	0.679
3.89625	0.691
3.93602	0.701
3.9758	0.709
4.01557	0.718
4.05534	0.718
4.09511	0.719
4.13488	0.721
4.17465	0.728
4.21442	0.731
4.2542	0.726
4.29397	0.713
4.33374	0.731
4.37351	0.759
4.41328	0.771
4.45305	0.771
4.49282	0.777
4.53259	0.781
4.57237	0.789
4.61214	0.796
4.65191	0.8
4.69168	0.809
4.73145	0.82
4.77122	0.834
4.81099	0.842
4.85077	0.847
4.89054	0.852
4.93031	0.85
4.97008	0.862
5.00985	0.862
5.04962	0.85
5.08939	0.872
5.12917	0.859
5.16894	0.878
5.20871	0.888
5.24848	0.88
5.28825	0.902
5.32802	0.9
5.36779	0.92
5.40756	0.93
5.44734	0.89
5.48711	0.9
5.52688	0.938
5.56665	0.943
5.60642	0.875
5.64619	0.598
5.68596	0.315
5.72574	0.432
5.76551	0.195
5.80528	0.039
5.84505	0.036
5.88482	0.145
5.92459	0.2
5.96436	0.288
6.00413	0.411
6.04391	0.485
6.08368	0.543
6.12345	0.595
6.16322	0.562
6.20299	0.562
6.24276	0.646
6.28253	0.684
6.32231	0.714
6.36208	0.733
6.40185	0.771
6.44162	0.759
6.48139	0.774
6.52116	0.774
6.56093	0.8
6.6007	0.796
6.64048	0.799
6.68025	0.809
6.72002	0.777
6.75979	0.495
6.79956	0.225
6.83933	0.296
6.8791	0.334
6.91888	0.404
6.95865	0.192
6.99842	0.381
7.03819	0.55
7.07796	0.421
7.11773	0.137
7.1575	0.079
7.19728	0.157
7.23705	0.243
7.27682	0.29
7.31659	0.215
7.35636	0.247
7.39613	0.331
7.4359	0.449
7.47567	0.331
7.51545	0.27
7.55522	0.303
7.59499	0.464
7.63476	0.535
7.67453	0.558
7.7143	0.484
7.75407	0.552
7.79385	0.582
7.83362	0.605
7.87339	0.646
7.91316	0.65
7.95293	0.641
7.9927	0.651
8.03247	0.711
8.07224	0.733
8.11202	0.398
8.15179	0.495
8.19156	0.63
8.23133	0.696
8.2711	0.706
8.31087	0.691
8.35064	0.728
8.39042	0.655
8.43019	0.625
8.46996	0.729
8.50973	0.716
8.5495	0.618
8.58927	0.698
8.62904	0.723
8.66881	0.742
8.70859	0.741
8.74836	0.769
8.78813	0.769
8.8279	0.734
8.86767	0.814
8.90744	0.827
8.94721	0.835
8.98699	0.845
9.02676	0.859
9.06653	0.85
9.1063	0.784
9.14607	0.494
9.18584	0.462
9.22561	0.583
9.26539	0.477
9.30516	0.252
9.34493	0.253
9.3847	0.398
9.42447	0.56
9.46424	0.65
9.50401	0.691
9.54378	0.704
9.58356	0.711
9.62333	0.724
9.6631	0.733
9.70287	0.669
9.74264	0.698
9.78241	0.769
9.82218	0.802
9.86196	0.804
9.90173	0.661
9.9415	0.628
9.98127	0.704
10.021	0.779
10.0608	0.809
10.1006	0.815
10.1404	0.772
10.1801	0.547
10.2199	0.479
10.2597	0.456
10.2994	0.547
10.3392	0.605
10.379	0.678
10.4188	0.731
10.4585	0.761
10.4983	0.776
10.5381	0.797
10.5778	0.807
10.6176	0.815
10.6574	0.827
10.6972	0.83
10.7369	0.819
10.7767	0.792
10.8165	0.66
10.8562	0.641
10.896	0.718
10.9358	0.774
10.9756	0.804
11.0153	0.827
11.0551	0.845
11.0949	0.852
11.1346	0.86
11.1744	0.852
11.2142	0.837
11.254	0.84
11.2937	0.855
11.3335	0.86
11.3733	0.859
11.413	0.872
11.4528	0.878
11.4926	0.852
11.5324	0.688
11.5721	0.55
11.6119	0.643
11.6517	0.737
11.6914	0.797
11.7312	0.82
11.771	0.844
11.8108	0.847
11.8505	0.827
11.8903	0.849
11.9301	0.864
11.9698	0.868
12.0096	0.873
12.0494	0.88
12.0892	0.875
12.1289	0.882
12.1687	0.88
12.2085	0.878
12.2482	0.875
12.288	0.87
12.3278	0.87
12.3676	0.862
12.4073	0.814
12.4471	0.655
12.4869	0.582
12.5266	0.661
12.5664	0.754
12.6062	0.847
12.6459	0.862
12.6857	0.859
12.7255	0.878
12.7653	0.877
12.805	0.873
12.8448	0.877
12.8846	0.872
12.9243	0.873
12.9641	0.864
13.0039	0.86
13.0437	0.849
13.0834	0.839
13.1232	0.819
13.163	0.791
13.2027	0.761
13.2425	0.756
13.2823	0.766
13.3221	0.767
13.3618	0.767
13.4016	0.751
13.4414	0.734
13.4811	0.701
13.5209	0.655
13.5607	0.62
13.6005	0.595
13.6402	0.532
13.68	0.424
13.7198	0.308
13.7595	0.266
13.7993	0.305
13.8391	0.328
13.8789	0.213
13.9186	0.182
13.9584	0.29
13.9982	0.363
14.0379	0.305
14.0777	0.243
14.1175	0.334
14.1573	0.479
14.197	0.6
14.2368	0.683
14.2766	0.741
14.3163	0.771
14.3561	0.796
14.3959	0.8
14.4357	0.789
14.4754	0.782
14.5152	0.799
14.555	0.807
14.5947	0.82
14.6345	0.837
14.6743	0.849
14.7141	0.855
14.7538	0.855
14.7936	0.852
14.8334	0.845
14.8731	0.835
14.9129	0.814
14.9527	0.787
14.9925	0.762
15.0322	0.736
15.072	0.724
15.1118	0.761
15.1515	0.8
15.1913	0.815
15.2311	0.81
15.2709	0.799
15.3106	0.791
15.3504	0.779
15.3902	0.766
15.4299	0.757
15.4697	0.746
15.5095	0.734
15.5493	0.729
15.589	0.721
15.6288	0.719
15.6686	0.709
15.7083	0.698
15.7481	0.683
15.7879	0.668
15.8277	0.658
15.8674	0.65
15.9072	0.64
15.947	0.628
15.9867	0.623
