Infrared Spectrum: Sucrose
Formula: C 12 H 22 O 11
CAS: 57-50-1
State: solid
Instrument: Bruker Tensor 37 FTIR
Resolution: 0.96450126
Origin: Pacific Northwest National Laboratory Under IARPA Contract
1/cm	Reflectance
7499	0.61261
7481.64	0.597866
7464.28	0.572884
7446.92	0.544209
7429.56	0.505581
7412.2	0.490988
7394.84	0.453621
7377.48	0.464896
7360.12	0.47254
7342.76	0.471917
7325.4	0.45924
7308.04	0.442318
7290.68	0.406776
7273.32	0.340313
7255.96	0.278781
7238.6	0.170573
7221.24	0.161051
7203.88	0.218886
7186.52	0.234949
7169.16	0.2249
7151.8	0.21078
7134.44	0.198603
7117.08	0.19155
7099.72	0.186059
7082.36	0.18506
7065	0.183409
7047.64	0.18245
7030.28	0.183136
7012.92	0.185677
6995.56	0.192525
6978.2	0.193135
6960.84	0.1938
6943.48	0.184662
6926.12	0.182854
6908.76	0.181537
6891.4	0.184958
6874.04	0.199243
6856.68	0.216636
6839.32	0.232753
6821.96	0.250262
6804.6	0.264608
6787.25	0.277362
6769.89	0.286136
6752.53	0.296444
6735.17	0.297934
6717.81	0.243168
6700.45	0.276586
6683.09	0.288241
6665.73	0.280873
6648.37	0.235703
6631.01	0.257105
6613.65	0.267225
6596.29	0.265906
6578.93	0.266793
6561.57	0.284652
6544.21	0.293311
6526.85	0.295961
6509.49	0.310844
6492.13	0.301215
6474.77	0.331669
6457.41	0.347606
6440.05	0.355621
6422.69	0.350829
6405.33	0.355612
6387.97	0.351751
6370.61	0.347926
6353.25	0.341217
6335.89	0.337321
6318.53	0.326703
6301.17	0.318935
6283.81	0.306782
6266.45	0.283765
6249.09	0.236713
6231.73	0.157805
6214.37	0.154926
6197.01	0.0986736
6179.65	0.0655539
6162.29	0.0530413
6144.93	0.0552842
6127.57	0.061441
6110.21	0.0754278
6092.85	0.0806317
6075.49	0.0822116
6058.13	0.098155
6040.77	0.113658
6023.41	0.121096
6006.05	0.131405
5988.69	0.12402
5971.33	0.0797151
5953.97	0.0843307
5936.61	0.0824018
5919.25	0.0723774
5901.89	0.0646472
5884.54	0.071092
5867.18	0.0831694
5849.82	0.0843066
5832.46	0.085003
5815.1	0.0612886
5797.74	0.0595964
5780.38	0.0538875
5763.02	0.048582
5745.66	0.0503832
5728.3	0.0514285
5710.94	0.0486799
5693.58	0.0569778
5676.22	0.0545225
5658.86	0.062072
5641.5	0.0586435
5624.14	0.0585522
5606.78	0.056151
5589.42	0.0478237
5572.06	0.0369784
5554.7	0.0330285
5537.34	0.0298352
5519.98	0.031171
5502.62	0.0295946
5485.26	0.0280112
5467.9	0.027314
5450.54	0.0283234
5433.18	0.0311958
5415.82	0.0334564
5398.46	0.0347697
5381.1	0.0350183
5363.74	0.0364266
5346.38	0.0363844
5329.02	0.0363118
5311.66	0.0362459
5294.3	0.0358451
5276.94	0.0357862
5259.58	0.0351752
5242.22	0.0340987
5224.86	0.0328738
5207.5	0.0330903
5190.14	0.0343562
5172.78	0.0344526
5155.42	0.0346876
5138.06	0.0346498
5120.7	0.0348684
5103.34	0.0348443
5085.98	0.0346256
5068.62	0.0347718
5051.26	0.0349451
5033.9	0.0348362
5016.54	0.0347977
4999.18	0.0348401
4981.82	0.0347259
4964.47	0.0358543
4947.11	0.0362634
4929.75	0.0385409
4912.39	0.0395853
4895.03	0.0402838
4877.67	0.0387743
4860.31	0.0389809
4842.95	0.0387106
4825.59	0.038819
4808.23	0.0364739
4790.87	0.0380055
4773.51	0.036964
4756.15	0.0377816
4738.79	0.0376234
4721.43	0.0369625
4704.07	0.0370929
4686.71	0.0393728
4669.35	0.0366392
4651.99	0.0364498
4634.63	0.0340312
4617.27	0.0329241
4599.91	0.0307275
4582.55	0.028932
4565.19	0.0288635
4547.83	0.0275969
4530.47	0.0272042
4513.11	0.0262473
4495.75	0.0240785
4478.39	0.0249324
4461.03	0.0256253
4443.67	0.0246213
4426.31	0.0238227
4408.95	0.0266569
4391.59	0.0242206
4374.23	0.022286
4356.87	0.0231586
4339.51	0.0196689
4322.15	0.0172109
4304.79	0.0230422
4287.43	0.0594215
4270.07	0.0437964
4252.71	0.0379014
4235.35	0.0368119
4217.99	0.030102
4200.63	0.0385798
4183.27	0.0359895
4165.91	0.0317366
4148.55	0.0287511
4131.19	0.0260208
4113.83	0.0258276
4096.47	0.0263618
4079.11	0.0273795
4061.76	0.026794
4044.4	0.609661
4027.04	0.588291
4009.68	0.567053
3992.32	0.525412
3974.96	0.504082
3957.6	0.477395
3940.24	0.452224
3922.88	0.458864
3905.52	0.472917
3888.16	0.463831
3870.8	0.455291
3853.44	0.428751
3836.08	0.386776
3818.72	0.316471
3801.36	0.258615
3784	0.139875
3766.64	0.172497
3749.28	0.224363
3731.92	0.230509
3714.56	0.216054
3697.2	0.204773
3679.84	0.194116
3662.48	0.184998
3645.12	0.183314
3627.76	0.175765
3610.4	0.181422
3593.04	0.174117
3575.68	0.179441
3558.32	0.182581
3540.96	0.182669
3523.6	0.189087
3506.24	0.18606
3488.88	0.179471
3471.52	0.176186
3454.16	0.176868
3436.8	0.184706
3419.44	0.200719
3402.08	0.216285
3384.72	0.2309
3367.36	0.250184
3350	0.262811
3332.64	0.270749
3315.28	0.27893
3297.92	0.287726
3280.56	0.285697
3263.2	0.243129
3245.84	0.278306
3228.48	0.276289
3211.12	0.270167
3193.76	0.245723
3176.4	0.246619
3159.04	0.259769
3141.69	0.252899
3124.33	0.264827
3106.97	0.277875
3089.61	0.283804
3072.25	0.294221
3054.89	0.304073
3037.53	0.299399
3020.17	0.329833
3002.81	0.342489
2985.45	0.345252
2968.09	0.343742
2950.73	0.345038
2933.37	0.340892
2916.01	0.339153
2898.65	0.330358
2881.29	0.32766
2863.93	0.31624
2846.57	0.306208
2829.21	0.295846
2811.85	0.264314
2794.49	0.207532
2777.13	0.162344
2759.77	0.135182
2742.41	0.0795179
2725.05	0.0594133
2707.69	0.0517146
2690.33	0.0570486
2672.97	0.0663045
2655.61	0.075501
2638.25	0.0826215
2620.89	0.0818208
2603.53	0.102522
2586.17	0.103101
2568.81	0.123638
2551.45	0.127347
2534.09	0.117384
2516.73	0.0815585
2499.37	0.0699159
2482.01	0.0789688
2464.65	0.0678825
2447.29	0.0672515
2429.93	0.0687075
2412.57	0.077782
2395.21	0.0849573
2377.85	0.0755769
2360.49	0.0601651
2343.13	0.0590196
2325.77	0.0522585
2308.41	0.0488695
2291.05	0.0477963
2273.69	0.0487041
2256.33	0.0514762
2238.98	0.055014
2221.62	0.0578295
2204.26	0.0596538
2186.9	0.0597384
2169.54	0.0561965
2152.18	0.0531554
2134.82	0.0450244
2117.46	0.0353858
2100.1	0.0323572
2082.74	0.0291721
2065.38	0.0304768
2048.02	0.0288627
2030.66	0.0279499
2013.3	0.0277757
1995.94	0.0296535
1978.58	0.031329
1961.22	0.0335887
1943.86	0.0342364
1926.5	0.035235
1909.14	0.0358196
1891.78	0.0366051
1874.42	0.0360252
1857.06	0.0360333
1839.7	0.0358331
1822.34	0.0350412
1804.98	0.0349089
1787.62	0.0333254
1770.26	0.0326702
1752.9	0.0338717
1735.54	0.0345981
1718.18	0.03419
1700.82	0.0346286
1683.46	0.0346202
1666.1	0.0344301
1648.74	0.0347049
1631.38	0.0348523
1614.02	0.0349485
1596.66	0.0352229
1579.3	0.0347628
1561.94	0.0345993
1544.58	0.0346785
1527.22	0.034966
1509.86	0.0357908
1492.5	0.0361888
1475.14	0.0392809
1457.78	0.0394411
1440.42	0.0408804
1423.06	0.0390537
1405.7	0.0391903
1388.34	0.0393888
1370.98	0.0376573
1353.62	0.0369488
1336.27	0.0371094
1318.91	0.0373732
1301.55	0.0369879
1284.19	0.0382314
1266.83	0.0364629
1249.47	0.0379016
1232.11	0.0379382
1214.75	0.0359364
1197.39	0.0353091
1180.03	0.0340097
1162.67	0.0321939
1145.31	0.0306098
1127.95	0.02931
1110.59	0.0291665
1093.23	0.0280846
1075.87	0.027441
1058.51	0.0267772
1041.15	0.0235591
1023.79	0.0247184
1006.43	0.0268069
989.069	0.0252948
971.709	0.0268775
954.349	0.0269171
936.989	0.0262935
919.63	0.0242211
902.27	0.0241076
884.91	0.021417
867.55	0.0212605
850.19	0.0247352
832.831	0.0529567
815.471	0.0395981
798.111	0.0371757
780.751	0.0345487
763.391	0.0263935
746.032	0.0346908
728.672	0.0336629
711.312	0.0309265
693.952	0.029217
676.592	0.026642
659.232	0.0273234
641.873	0.0311248
624.513	0.0282665
607.153	0.0282816
