Infrared Spectrum: 1,2-PROPANEDIOL
Formula: C3 H8 O2
CAS: 57-55-6
State: LIQUID (NEAT)
Class: COBLENTZ III
Instrument: PERKIN-ELMER 521 (GRATING)
Instrument parameters: FILTERS AT 3150, 2500, 2000, 1150, 700, 410 AND GRATING CHANGES AT 2000, 630 CM^-^1
Sampling: TRANSMISSION
Path length: CAPILLARY
Resolution: 4
Origin: DOW CHEMICAL COMPANY
1/CM	TRANSMITTANCE
249.77	0.06
258.987	0.06
268.203	0.064
277.42	0.072
286.636	0.08
295.853	0.085
305.07	0.104
314.286	0.123
323.503	0.139
332.719	0.162
341.936	0.199
351.153	0.259
360.369	0.32
369.586	0.369
378.802	0.417
388.019	0.457
397.236	0.496
406.452	0.536
415.669	0.578
424.886	0.61
434.102	0.636
443.319	0.651
452.535	0.667
461.752	0.671
470.969	0.67
480.185	0.674
489.402	0.682
498.618	0.682
507.835	0.676
517.052	0.661
526.268	0.651
535.485	0.679
544.701	0.686
553.918	0.686
563.135	0.685
572.351	0.685
581.568	0.685
590.784	0.685
600.001	0.686
609.218	0.689
618.434	0.691
627.651	0.691
636.867	0.685
646.084	0.684
655.301	0.684
664.517	0.691
673.734	0.707
682.95	0.718
692.167	0.725
701.384	0.735
710.6	0.74
719.817	0.751
729.034	0.759
738.25	0.768
747.467	0.776
756.683	0.784
765.9	0.794
775.117	0.8
784.333	0.804
793.55	0.8
802.766	0.767
811.983	0.807
821.2	0.81
830.416	0.763
839.633	0.619
848.849	0.757
858.066	0.837
867.283	0.85
876.499	0.85
885.716	0.849
894.932	0.842
904.149	0.822
913.366	0.725
922.582	0.633
931.799	0.671
941.015	0.711
950.232	0.751
959.449	0.832
968.665	0.829
977.882	0.804
987.098	0.676
996.315	0.706
1005.53	0.782
1014.75	0.745
1023.96	0.639
1033.18	0.437
1042.4	0.314
1051.61	0.351
1060.83	0.483
1070.05	0.498
1079.26	0.498
1088.48	0.553
1097.7	0.619
1106.91	0.649
1116.13	0.652
1125.35	0.604
1134.56	0.507
1143.78	0.569
1153	0.725
1162.21	0.796
1171.43	0.802
1180.65	0.798
1189.86	0.791
1199.08	0.771
1208.3	0.742
1217.51	0.721
1226.73	0.717
1235.95	0.723
1245.16	0.726
1254.38	0.717
1263.6	0.7
1272.81	0.679
1282.03	0.67
1291.25	0.68
1300.46	0.687
1309.68	0.684
1318.9	0.667
1328.11	0.661
1337.33	0.67
1346.55	0.68
1355.76	0.675
1364.98	0.641
1374.2	0.601
1383.41	0.626
1392.63	0.631
1401.85	0.629
1411.06	0.629
1420.28	0.635
1429.5	0.646
1438.71	0.649
1447.93	0.638
1457.15	0.63
1466.36	0.659
1475.58	0.725
1484.8	0.781
1494.01	0.815
1503.23	0.834
1512.45	0.847
1521.66	0.858
1530.88	0.861
1540.09	0.865
1549.31	0.87
1558.53	0.871
1567.74	0.874
1576.96	0.875
1586.18	0.875
1595.39	0.875
1604.61	0.875
1613.83	0.878
1623.04	0.879
1632.26	0.879
1641.48	0.879
1650.69	0.88
1659.91	0.88
1669.13	0.883
1678.34	0.89
1687.56	0.894
1696.78	0.894
1705.99	0.894
1715.21	0.894
1724.43	0.894
1733.64	0.894
1742.86	0.896
1752.08	0.896
1761.29	0.895
1770.51	0.896
1779.73	0.896
1788.94	0.896
1798.16	0.894
1807.38	0.894
1816.59	0.894
1825.81	0.894
1835.03	0.894
1844.24	0.894
1853.46	0.894
1862.68	0.893
1871.89	0.893
1881.11	0.893
1890.33	0.893
1899.54	0.893
1908.76	0.893
1917.98	0.893
1927.19	0.891
1936.41	0.891
1945.63	0.891
1954.84	0.891
1964.06	0.889
1973.28	0.889
1982.49	0.885
1991.71	0.879
2000.93	0.8841
2010.14	0.8762
2019.36	0.884
2028.57	0.884
2037.79	0.884
2047.01	0.884
2056.22	0.884
2065.44	0.884
2074.66	0.884
2083.87	0.885
2093.09	0.885
2102.31	0.885
2111.52	0.885
2120.74	0.885
2129.96	0.885
2139.17	0.8843
2148.39	0.883
2157.61	0.883
2166.82	0.883
2176.04	0.883
2185.26	0.883
2194.47	0.881
2203.69	0.881
2212.91	0.881
2222.12	0.881
2231.34	0.881
2240.56	0.88
2249.77	0.879
2258.99	0.879
2268.21	0.8751
2277.42	0.873
2286.64	0.871
2295.86	0.87
2305.07	0.869
2314.29	0.868
2323.51	0.868
2332.72	0.868
2341.94	0.868
2351.16	0.866
2360.37	0.866
2369.59	0.866
2378.81	0.865
2388.02	0.865
2397.24	0.864
2406.46	0.863
2415.67	0.863
2424.89	0.86
2434.11	0.859
2443.32	0.8558
2452.54	0.8509
2461.76	0.85
2470.97	0.847
2480.19	0.845
2489.41	0.844
2498.62	0.843
2507.84	0.843
2517.06	0.842
2526.27	0.84
2535.49	0.839
2544.7	0.839
2553.92	0.838
2563.14	0.8364
2572.35	0.835
2581.57	0.834
2590.79	0.8314
2600	0.829
2609.22	0.8247
2618.44	0.822
2627.65	0.8176
2636.87	0.815
2646.09	0.813
2655.3	0.812
2664.52	0.81
2673.74	0.81
2682.95	0.808
2692.17	0.804
2701.39	0.8035
2710.6	0.802
2719.82	0.8
2729.04	0.8
2738.25	0.799
2747.47	0.7963
2756.69	0.7799
2765.9	0.774
2775.12	0.7684
2784.34	0.7592
2793.55	0.7468
2802.77	0.7386
2811.99	0.7211
2821.2	0.7041
2830.42	0.685
2839.64	0.6657
2848.85	0.6386
2858.07	0.5954
2867.29	0.5526
2876.5	0.5527
2885.72	0.555
2894.94	0.5533
2904.15	0.535
2913.37	0.5084
2922.59	0.5022
2931.8	0.5064
2941.02	0.5565
2950.24	0.578
2959.45	0.5317
2968.67	0.4895
2977.89	0.5399
2987.1	0.6605
2996.32	0.7469
3005.54	0.768
3014.75	0.767
3023.97	0.7622
3033.19	0.7581
3042.4	0.7512
3051.62	0.745
3060.83	0.7381
3070.05	0.726
3079.27	0.71
3088.48	0.692
3097.7	0.6759
3106.92	0.6569
3116.13	0.6448
3125.35	0.6196
3134.57	0.5976
3143.78	0.5771
3153	0.5712
3162.22	0.5324
3171.43	0.5114
3180.65	0.4896
3189.87	0.4604
3199.08	0.44
3208.3	0.4131
3217.52	0.3882
3226.73	0.3734
3235.95	0.3493
3245.17	0.3309
3254.38	0.3148
3263.6	0.2957
3272.82	0.2812
3282.03	0.2609
3291.25	0.2514
3300.47	0.2417
3309.68	0.233
3318.9	0.231
3328.12	0.23
3337.33	0.23
3346.55	0.23
3355.77	0.231
3364.98	0.233
3374.2	0.2354
3383.42	0.2408
3392.63	0.247
3401.85	0.2534
3411.07	0.2654
3420.28	0.2779
3429.5	0.2924
3438.72	0.309
3447.93	0.3315
3457.15	0.3476
3466.37	0.3726
3475.58	0.3991
3484.8	0.4327
3494.02	0.4579
3503.23	0.4927
3512.45	0.5328
3521.67	0.5689
3530.88	0.5956
3540.1	0.627
3549.31	0.6626
3558.53	0.689
3567.75	0.7194
3576.96	0.7508
3586.18	0.7761
3595.4	0.7976
3604.61	0.8224
3613.83	0.8412
3623.05	0.8533
3632.26	0.8648
3641.48	0.874
3650.7	0.878
3659.91	0.879
3669.13	0.879
3678.35	0.879
3687.56	0.88
3696.78	0.88
3706	0.879
3715.21	0.879
3724.43	0.879
3733.65	0.879
3742.86	0.88
3752.08	0.88
3761.3	0.881
3770.51	0.88
3779.73	0.881
3788.95	0.881
