Infrared Spectrum: 17Beta-HYDROXYANDROST-4-EN-3-ONE, PROPIONATE
Formula: C22 H32 O3
CAS: 57-85-2
State: SOLID (KBr DISC)
Class: COBLENTZ III
Instrument: BECKMAN IR-7
Sampling: TRANSMISSION
Resolution: 4
Origin: THE WORCESTER FOUNDATION FOR EXPERIMENTAL BIOLOGY, Neal L. McNiven
1/CM	TRANSMITTANCE
597.811	0.764
606.566	0.632
615.32	0.652
624.075	0.687
632.829	0.72
641.584	0.766
650.338	0.813
659.093	0.849
667.848	0.857
676.602	0.917
685.357	0.803
694.111	0.913
702.866	0.974
711.62	0.987
720.375	1.002
729.129	0.995
737.884	0.987
746.639	0.984
755.393	0.986
764.148	1.002
772.902	0.924
781.657	0.923
790.411	0.981
799.166	0.9121
807.921	0.755
816.675	0.932
825.43	0.883
834.184	0.835
842.939	0.928
851.693	0.915
860.448	0.514
869.203	0.625
877.957	0.887
886.712	0.8131
895.466	0.8399
904.221	0.916
912.975	0.869
921.73	0.882
930.484	0.828
939.239	0.6121
947.994	0.774
956.748	0.7
965.503	0.718
974.257	0.801
983.012	0.765
991.766	0.729
1000.52	0.676
1009.28	0.62
1018.03	0.2861
1026.78	0.4139
1035.54	0.424
1044.29	0.249
1053.05	0.564
1061.8	0.581
1070.56	0.329
1079.31	0.189
1088.07	0.463
1096.82	0.5549
1105.58	0.695
1114.33	0.5411
1123.08	0.637
1131.84	0.562
1140.59	0.726
1149.35	0.718
1158.1	0.684
1166.86	0.633
1175.61	0.411
1184.37	0.233
1193.12	0.331
1201.88	0.386
1210.63	0.273
1219.39	0.143
1228.14	0.09
1236.89	0.094
1245.65	0.13
1254.4	0.169
1263.16	0.137
1271.91	0.106
1280.67	0.4268
1289.42	0.3521
1298.18	0.662
1306.93	0.562
1315.69	0.488
1324.44	0.478
1333.19	0.4309
1341.95	0.522
1350.7	0.432
1359.46	0.603
1368.21	0.647
1376.97	0.572
1385.72	0.389
1394.48	0.677
1403.23	0.739
1411.99	0.656
1420.74	0.551
1429.49	0.4
1438.25	0.459
1447	0.3
1455.76	0.3999
1464.51	0.464
1473.27	0.726
1482.02	0.844
1490.78	0.867
1499.53	0.884
1508.29	0.888
1517.04	0.892
1525.79	0.893
1534.55	0.889
1543.3	0.86
1552.06	0.854
1560.81	0.873
1569.57	0.848
1578.32	0.784
1587.08	0.744
1595.83	0.6011
1604.59	0.21
1613.34	0.276
1622.1	0.549
1630.85	0.497
1639.6	0.3611
1648.36	0.266
1657.11	0.039
1665.87	0.001
1674.62	0.084
1683.38	0.316
1692.13	0.458
1700.89	0.562
1709.64	0.387
1718.4	0.058
1727.15	0.03
1735.9	0.289
1744.66	0.617
1753.41	0.734
1762.17	0.794
1770.92	0.814
1779.68	0.843
1788.43	0.871
1797.19	0.882
1805.94	0.901
1814.7	0.925
1823.45	0.936
1832.2	0.944
1840.96	0.947
1849.71	0.949
1858.47	0.943
1867.22	0.942
1875.98	0.94
1884.73	0.938
1893.49	0.946
1902.24	0.942
1911	0.946
1919.75	0.949
1928.5	0.948
1937.26	0.946
1946.01	0.943
1954.77	0.938
1963.52	0.939
1972.28	0.938
1981.03	0.936
1989.79	0.933
1998.54	0.932
2007.3	0.931
2016.05	0.93
2024.81	0.9285
2033.56	0.9274
2042.31	0.926
2051.07	0.925
2059.82	0.924
2068.58	0.923
2077.33	0.923
2086.09	0.923
2094.84	0.9244
2103.6	0.9325
2112.35	0.9347
2121.11	0.936
2129.86	0.936
2138.61	0.936
2147.37	0.936
2156.12	0.934
2164.88	0.933
2173.63	0.932
2182.39	0.9311
2191.14	0.9281
2199.9	0.8919
2208.65	0.871
2217.41	0.87
2226.16	0.869
2234.91	0.868
2243.67	0.867
2252.42	0.8668
2261.18	0.862
2269.93	0.8599
2278.69	0.8569
2287.44	0.856
2296.2	0.857
2304.95	0.857
2313.71	0.857
2322.46	0.858
2331.21	0.859
2339.97	0.859
2348.72	0.8577
2357.48	0.856
2366.23	0.855
2374.99	0.854
2383.74	0.853
2392.5	0.851
2401.25	0.8496
2410.01	0.8466
2418.76	0.8435
2427.52	0.8415
2436.27	0.841
2445.02	0.8395
2453.78	0.8375
2462.53	0.835
2471.29	0.8334
2480.04	0.8314
2488.8	0.83
2497.55	0.832
2506.31	0.8327
2515.06	0.832
2523.82	0.8286
2532.57	0.8245
2541.32	0.824
2550.08	0.8195
2558.83	0.8144
2567.59	0.813
2576.34	0.812
2585.1	0.811
2593.85	0.8081
2602.61	0.8042
2611.36	0.8001
2620.12	0.7979
2628.87	0.801
2637.62	0.798
2646.38	0.791
2655.13	0.785
2663.89	0.787
2672.64	0.787
2681.4	0.787
2690.15	0.786
2698.91	0.7849
2707.66	0.7807
2716.42	0.7765
2725.17	0.7708
2733.92	0.7644
2742.68	0.7646
2751.43	0.771
2760.19	0.768
2768.94	0.7607
2777.7	0.7525
2786.45	0.7254
2795.21	0.5887
2803.96	0.4728
2812.72	0.411
2821.47	0.4531
2830.23	0.4191
2838.98	0.233
2847.73	0.2867
2856.49	0.39
2865.24	0.291
2874	0.3465
2882.75	0.2189
2891.51	0.1313
2900.26	0.0833
2909.02	0.1119
2917.77	0.0962
2926.53	0.071
2935.28	0.0867
2944.03	0.1057
2952.79	0.1344
2961.54	0.1651
2970.3	0.2635
2979.05	0.3328
2987.81	0.4366
2996.56	0.5134
3005.32	0.5529
3014.07	0.6091
3022.83	0.5996
3031.58	0.5701
3040.33	0.6783
3049.09	0.7115
3057.84	0.7258
3066.6	0.7319
3075.35	0.734
3084.11	0.735
3092.86	0.734
3101.62	0.733
3110.37	0.732
3119.13	0.7308
3127.88	0.7269
3136.63	0.7259
3145.39	0.724
3154.14	0.7238
3162.9	0.723
3171.65	0.723
3180.41	0.723
3189.16	0.722
3197.92	0.721
3206.67	0.719
3215.43	0.718
3224.18	0.716
3232.94	0.716
3241.69	0.715
3250.44	0.7136
3259.2	0.712
3267.95	0.7096
3276.71	0.7036
3285.46	0.6956
3294.22	0.692
3302.97	0.69
3311.73	0.6854
3320.48	0.6685
3329.24	0.6663
3337.99	0.6816
3346.74	0.6886
3355.5	0.69
3364.25	0.69
3373.01	0.69
3381.76	0.689
3390.52	0.6883
3399.27	0.688
3408.03	0.6845
3416.78	0.6822
3425.54	0.6669
3434.29	0.6675
3443.04	0.6748
3451.8	0.6845
3460.55	0.6917
3469.31	0.694
3478.06	0.6959
3486.82	0.6979
3495.57	0.7
3504.33	0.705
3513.08	0.71
3521.84	0.716
3530.59	0.718
3539.34	0.7231
3548.1	0.7272
3556.85	0.7311
3565.61	0.7351
3574.36	0.7392
3583.12	0.742
3591.87	0.7452
3600.63	0.748
3609.38	0.7492
3618.14	0.7522
3626.89	0.755
3635.65	0.7553
3644.4	0.757
3653.15	0.758
3661.91	0.758
3670.66	0.757
3679.42	0.7556
3688.17	0.7526
3696.93	0.75
3705.68	0.7504
3714.44	0.7545
3723.19	0.755
3731.95	0.756
3740.7	0.756
3749.45	0.756
3758.21	0.755
3766.96	0.753
3775.72	0.753
3784.47	0.752
3793.23	0.751
3801.98	0.75
3810.74	0.7493
3819.49	0.748
3828.25	0.747
3837	0.746
3845.75	0.746
3854.51	0.745
3863.26	0.743
3872.02	0.742
3880.77	0.74
3889.53	0.7391
3898.28	0.738
3907.04	0.737
3915.79	0.737
3924.55	0.736
3933.3	0.735
3942.05	0.734
3950.81	0.733
3959.56	0.732
3968.32	0.732
3977.07	0.731
3985.83	0.7309
3994.58	0.73
4003.34	0.73
4012.09	0.73
