Infrared Spectrum: CHOLESTEROL
Formula: C27 H46 O
CAS: 57-88-5
State: SOLID (MINERAL OIL MULL)
Melting point: 149 C
Class: COBLENTZ
Instrument: Not specified, most likely a prism, grating, or hybrid spectrometer.
Sampling: TRANSMISSION
Resolution: 4
Origin: WYANDOTTE CHEMICALS CORP., WYANDOTTE, MICHIGAN, USA
MICROMETERS	TRANSMITTANCE
2.02	0.74
2.06084	0.741
2.10168	0.745
2.14251	0.745
2.18335	0.691
2.22419	0.582
2.26503	0.582
2.30587	0.611
2.3467	0.617
2.38754	0.634
2.42838	0.675
2.46922	0.685
2.51006	0.697
2.55089	0.716
2.59173	0.745
2.63257	0.747
2.67341	0.764
2.71425	0.779
2.75508	0.758
2.79592	0.707
2.83676	0.619
2.8776	0.432
2.91844	0.246
2.95927	0.176
3.00011	0.139
3.04095	0.196
3.08179	0.363
3.12263	0.444
3.16346	0.477
3.2043	0.516
3.24514	0.514
3.28598	0.353
3.32682	0.093
3.36765	0.03
3.40849	0.033
3.44933	0.035
3.49017	0.04
3.53101	0.044
3.57184	0.202
3.61268	0.419
3.65352	0.455
3.69436	0.438
3.7352	0.482
3.77603	0.477
3.81687	0.528
3.85771	0.57
3.89855	0.626
3.93939	0.662
3.98022	0.697
4.02106	0.721
4.0619	0.743
4.10274	0.748
4.14358	0.753
4.18441	0.767
4.22525	0.764
4.26609	0.743
4.30693	0.786
4.34777	0.821
4.3886	0.852
4.42944	0.823
4.47028	0.821
4.51112	0.838
4.55196	0.831
4.59279	0.855
4.63363	0.864
4.67447	0.865
4.71531	0.881
4.75615	0.889
4.79698	0.889
4.83782	0.889
4.87866	0.893
4.9195	0.903
4.96034	0.903
5.00117	0.911
5.04201	0.911
5.08285	0.923
5.12369	0.92
5.16453	0.925
5.20536	0.925
5.2462	0.921
5.28704	0.925
5.32788	0.923
5.36872	0.918
5.40955	0.932
5.45039	0.92
5.49123	0.915
5.53207	0.928
5.57291	0.918
5.61374	0.928
5.65458	0.906
5.69542	0.879
5.73626	0.869
5.7771	0.889
5.81793	0.886
5.85877	0.859
5.89961	0.862
5.94045	0.813
5.98129	0.784
6.02212	0.767
6.06296	0.762
6.1038	0.83
6.14464	0.86
6.18548	0.831
6.22631	0.847
6.26715	0.852
6.30799	0.862
6.34883	0.833
6.38967	0.874
6.4305	0.821
6.47134	0.843
6.51218	0.792
6.55302	0.765
6.59386	0.696
6.63469	0.633
6.67553	0.497
6.71637	0.203
6.75721	0.032
6.79805	0.037
6.83888	0.037
6.87972	0.042
6.92056	0.071
6.9614	0.186
7.00224	0.366
7.04307	0.446
7.08391	0.478
7.12475	0.492
7.16559	0.292
7.20643	0.033
7.24726	0.044
7.2881	0.057
7.32894	0.168
7.36978	0.207
7.41062	0.252
7.45145	0.281
7.49229	0.308
7.53313	0.409
7.57397	0.436
7.61481	0.429
7.65564	0.448
7.69648	0.492
7.73732	0.529
7.77816	0.533
7.819	0.473
7.85983	0.471
7.90067	0.578
7.94151	0.47
7.98235	0.555
8.02318	0.5
8.06402	0.49
8.10486	0.55
8.1457	0.55
8.18654	0.546
8.22737	0.611
8.26821	0.595
8.30905	0.553
8.34989	0.478
8.39073	0.475
8.43156	0.568
8.4724	0.584
8.51324	0.502
8.55408	0.543
8.59492	0.512
8.63575	0.55
8.67659	0.589
8.71743	0.514
8.75827	0.49
8.79911	0.453
8.83994	0.468
8.88078	0.604
8.92162	0.58
8.96246	0.478
9.0033	0.494
9.04413	0.577
9.08497	0.601
9.12581	0.556
9.16665	0.482
9.20749	0.471
9.24832	0.511
9.28916	0.41
9.33	0.249
9.37084	0.112
9.41168	0.079
9.45251	0.086
9.49335	0.188
9.53419	0.275
9.57503	0.324
9.61587	0.387
9.6567	0.429
9.69754	0.332
9.73838	0.234
9.77922	0.332
9.82006	0.434
9.86089	0.419
9.90173	0.373
9.94257	0.517
9.98341	0.59
10.0242	0.609
10.0651	0.538
10.1059	0.436
10.1468	0.502
10.1876	0.568
10.2284	0.589
10.2693	0.578
10.3101	0.57
10.351	0.497
10.3918	0.366
10.4326	0.292
10.4735	0.32
10.5143	0.292
10.5551	0.48
10.596	0.585
10.6368	0.59
10.6777	0.517
10.7185	0.577
10.7593	0.597
10.8002	0.531
10.841	0.606
10.8818	0.634
10.9227	0.643
10.9635	0.682
11.0044	0.74
11.0452	0.752
11.086	0.769
11.1269	0.762
11.1677	0.716
11.2085	0.67
11.2494	0.65
11.2902	0.631
11.3311	0.648
11.3719	0.701
11.4127	0.748
11.4536	0.78
11.4944	0.801
11.5353	0.816
11.5761	0.821
11.6169	0.818
11.6578	0.82
11.6986	0.784
11.7394	0.726
11.7803	0.653
11.8211	0.626
11.862	0.502
11.9028	0.339
11.9436	0.407
11.9845	0.482
12.0253	0.522
12.0661	0.556
12.107	0.609
12.1478	0.66
12.1887	0.694
12.2295	0.692
12.2703	0.711
12.3112	0.655
12.352	0.631
12.3929	0.584
12.4337	0.465
12.4745	0.368
12.5154	0.29
12.5562	0.473
12.597	0.65
12.6379	0.748
12.6787	0.796
12.7196	0.818
12.7604	0.82
12.8012	0.82
12.8421	0.82
12.8829	0.808
12.9237	0.806
12.9646	0.804
13.0054	0.806
13.0463	0.808
13.0871	0.814
13.1279	0.818
13.1688	0.806
13.2096	0.804
13.2504	0.792
13.2913	0.78
13.3321	0.765
13.373	0.719
13.4138	0.651
13.4546	0.575
13.4955	0.544
13.5363	0.529
13.5772	0.519
13.618	0.538
13.6588	0.555
13.6997	0.56
13.7405	0.568
13.7813	0.558
13.8222	0.541
13.863	0.541
13.9039	0.585
13.9447	0.648
13.9855	0.707
14.0264	0.755
14.0672	0.782
14.108	0.808
14.1489	0.823
14.1897	0.833
14.2306	0.833
14.2714	0.818
14.3122	0.806
14.3531	0.803
14.3939	0.814
14.4347	0.833
14.4756	0.838
14.5164	0.843
14.5573	0.835
14.5981	0.83
14.6389	0.828
14.6798	0.821
14.7206	0.806
14.7615	0.794
14.8023	0.78
14.8431	0.77
14.884	0.762
14.9248	0.757
14.9656	0.728
15.0065	0.682
15.0473	0.604
15.0882	0.567
15.129	0.595
15.1698	0.645
15.2107	0.672
15.2515	0.684
15.2923	0.677
15.3332	0.672
15.374	0.67
15.4149	0.662
15.4557	0.643
15.4965	0.631
15.5374	0.617
15.5782	0.606
15.6191	0.601
15.6599	0.601
15.7007	0.597
15.7416	0.599
15.7824	0.585
15.8232	0.572
15.8641	0.568
15.9049	0.558
15.9458	0.541
15.9866	0.539
