Infrared Spectrum: ANISOLE, o-BROMO-
Formula: C7 H7 Br O
CAS: 578-57-4
State: SOLUTION (10% CCl4 FOR 3800-1330, 10% CS2 FOR 1330-400 CM^-^1)
Class: COBLENTZ III
Instrument: DOW KBr FOREPRISM-GRATING
Instrument parameters: BLAZED AT 3.5, 12.0, 20.0 MICRON AND CHANGED AT 5.0, 7.5, 14.9 MICRON
Sampling: TRANSMISSION
Path length: 0.010 CM, 0.010 CM
Resolution: 2
Origin: DOW CHEMICAL COMPANY
1/CM	TRANSMITTANCE
385	0.2232
394	0.2262
403	0.3757
412	0.5928
421	0.6742
430	0.6715
439	0.6019
448	0.7224
457	0.743
466	0.7489
475	0.7461
484	0.7115
493	0.7618
502	0.7765
511	0.7758
520	0.7753
529	0.7712
538	0.7599
547	0.7654
556	0.7643
565	0.7331
574	0.6476
583	0.7778
592	0.8034
601	0.7992
610	0.8087
619	0.8044
628	0.795
637	0.7747
646	0.7226
655	0.571
664	0.6615
673	0.7741
682	0.7964
691	0.7851
700	0.7945
709	0.6825
718	0.77
727	0.7568
736	0.7121
745	0.0464
754	0.1351
763	0.6048
772	0.7611
781	0.7792
790	0.7358
799	0.6348
808	0.7841
817	0.8021
826	0.8041
835	0.7924
844	0.7497
853	0.7078
862	0.6943
871	0.7212
880	0.7565
889	0.7882
898	0.8231
907	0.8341
916	0.8253
925	0.6379
934	0.811
943	0.8296
952	0.8313
961	0.8249
970	0.8175
979	0.8114
988	0.8042
997	0.7861
1006	0.7457
1015	0.6597
1024	0.3432
1033	0.0397
1042	0.6664
1051	0.4172
1060	0.2028
1069	0.6851
1078	0.7741
1087	0.8168
1096	0.828
1105	0.827
1114	0.7961
1123	0.6169
1132	0.7418
1141	0.7881
1150	0.7714
1159	0.6934
1168	0.7681
1177	0.7204
1186	0.6589
1195	0.8012
1204	0.819
1213	0.8122
1222	0.7961
1231	0.756
1240	0.6001
1249	0.1709
1258	0.2833
1267	0.3579
1276	0.1151
1285	0.2929
1294	0.3775
1303	0.2525
1312	0.7264
1321	0.7826
1330	0.8025
1339	0.8103
1348	0.8137
1357	0.8126
1366	0.8108
1375	0.7906
1384	0.7587
1393	0.7993
1402	0.7907
1411	0.7911
1420	0.7683
1429	0.6907
1438	0.1521
1447	0.4598
1456	0.3772
1465	0.2717
1474	0.3684
1483	0.0187
1492	0.516
1501	0.5977
1510	0.5687
1519	0.6266
1528	0.606
1537	0.556
1546	0.4698
1555	0.4354
1564	0.4553
1573	0.4204
1582	0.3625
1591	0.2416
1600	0.4326
1609	0.6322
1618	0.7476
1627	0.7912
1636	0.8155
1645	0.8275
1654	0.8049
1663	0.8096
1672	0.7997
1681	0.8058
1690	0.8168
1699	0.8317
1708	0.8301
1717	0.8212
1726	0.8375
1735	0.8317
1744	0.8384
1753	0.824
1762	0.7893
1771	0.8282
1780	0.845
1789	0.8443
1798	0.8377
1807	0.8355
1816	0.8389
1825	0.8362
1834	0.8436
1843	0.8309
1852	0.8212
1861	0.8321
1870	0.8325
1879	0.8334
1888	0.7958
1897	0.8097
1906	0.8392
1915	0.8358
1924	0.8253
1933	0.8178
1942	0.8471
1951	0.8588
1960	0.9204
1969	0.8486
1978	0.8474
1987	0.8489
1996	0.849
2005	0.8421
2014	0.8392
2023	0.8499
2032	0.8389
2041	0.785
2050	0.7855
2059	0.7945
2068	0.7976
2077	0.7958
2086	0.7996
2095	0.8132
2104	0.8204
2113	0.8237
2122	0.8283
2131	0.8231
2140	0.814
2149	0.8137
2158	0.814
2167	0.8142
2176	0.8142
2185	0.8137
2194	0.8131
2203	0.8121
2212	0.8108
2221	0.8069
2230	0.8032
2239	0.799
2248	0.7926
2257	0.7864
2266	0.7765
2275	0.7668
2284	0.7764
2293	0.7796
2302	0.7786
2311	0.778
2320	0.7778
2329	0.7786
2338	0.7801
2347	0.7871
2356	0.7861
2365	0.784
2374	0.7865
2383	0.7911
2392	0.7964
2401	0.7976
2410	0.7968
2419	0.8006
2428	0.8018
2437	0.8017
2446	0.8008
2455	0.7998
2464	0.7985
2473	0.7969
2482	0.7954
2491	0.7922
2500	0.7921
2509	0.7907
2518	0.7865
2527	0.7818
2536	0.7756
2545	0.7654
2554	0.774
2563	0.7818
2572	0.7825
2581	0.7828
2590	0.7792
2599	0.7868
2608	0.7994
2617	0.8017
2626	0.803
2635	0.8042
2644	0.8056
2653	0.8072
2662	0.8087
2671	0.8096
2680	0.81
2689	0.8092
2698	0.8075
2707	0.8051
2716	0.8025
2725	0.8025
2734	0.8024
2743	0.8038
2752	0.8054
2761	0.8072
2770	0.8026
2779	0.8018
2788	0.8076
2797	0.8058
2806	0.7992
2815	0.7843
2824	0.7467
2833	0.5193
2842	0.5532
2851	0.7728
2860	0.7731
2869	0.7531
2878	0.7296
2887	0.711
2896	0.6933
2905	0.6446
2914	0.6661
2923	0.6869
2932	0.5555
2941	0.4816
2950	0.5791
2959	0.5137
2968	0.6068
2977	0.7186
2986	0.745
2995	0.7191
3004	0.5972
3013	0.6501
3022	0.7268
3031	0.7511
3040	0.7574
3049	0.748
3058	0.726
3067	0.6494
3076	0.6922
3085	0.7518
3094	0.7715
3103	0.8083
3112	0.8194
3121	0.8231
3130	0.8248
3139	0.8258
3148	0.8267
3157	0.8277
3166	0.8287
3175	0.8298
3184	0.8308
3193	0.8318
3202	0.833
3211	0.834
3220	0.8351
3229	0.8361
3238	0.8368
3247	0.8377
3256	0.8392
3265	0.8409
3274	0.8425
3283	0.8443
3292	0.846
3301	0.8475
3310	0.849
3319	0.8502
3328	0.8516
3337	0.8528
3346	0.8542
3355	0.8554
3364	0.8567
3373	0.8578
3382	0.8578
3391	0.8581
3400	0.8582
3409	0.8583
3418	0.8585
3427	0.8587
3436	0.8585
3445	0.8581
3454	0.8578
3463	0.8575
3472	0.8571
3481	0.8566
3490	0.8562
3499	0.8558
3508	0.8558
3517	0.8557
3526	0.8557
3535	0.8556
3544	0.8558
3553	0.8559
3562	0.856
3571	0.8561
3580	0.8563
3589	0.8567
3598	0.8571
3607	0.8575
3616	0.8578
3625	0.8578
3634	0.8578
3643	0.858
3652	0.858
3661	0.8581
3670	0.8571
3679	0.8595
3688	0.8615
3697	0.8633
3706	0.8642
3715	0.865
3724	0.8659
3733	0.8668
3742	0.8677
3751	0.8687
3760	0.8702
3769	0.8724
3778	0.873
3787	0.8732
