Infrared Spectrum: 2-Nitronaphthalene
Formula: C10 H7 N O2
CAS: 581-89-5
State: SOLUTION (2% CCl4 FOR 3800-1330, 2% CS2 FOR 1330-450 CM^-^1)
Class: COBLENTZ III
Instrument: DOW KBr FOREPRISM-GRATING
Instrument parameters: BLAZED AT 3.5, 12.0, 20.0 MICRON AND CHANGED AT 5.0, 7.5, 14.9 MICRON
Sampling: TRANSMISSION
Path length: 0.011 CM, 0.011 CM
Resolution: 2
Origin: DOW CHEMICAL COMPANY
1/CM	TRANSMITTANCE
3788	0.8684
3779	0.863
3770	0.8632
3761	0.8653
3752	0.8683
3743	0.8717
3734	0.8748
3725	0.8734
3716	0.8692
3707	0.8678
3698	0.8691
3689	0.8715
3680	0.8686
3671	0.8685
3662	0.8678
3653	0.8673
3644	0.8674
3635	0.8674
3626	0.8684
3617	0.8669
3608	0.8643
3599	0.8639
3590	0.8576
3581	0.8564
3572	0.8642
3563	0.8668
3554	0.8667
3545	0.8671
3536	0.8673
3527	0.8655
3518	0.8651
3509	0.8645
3500	0.8649
3491	0.8654
3482	0.8661
3473	0.8666
3464	0.8672
3455	0.8672
3446	0.8672
3437	0.8671
3428	0.8671
3419	0.8672
3410	0.8677
3401	0.8681
3392	0.8685
3383	0.8691
3374	0.8698
3365	0.8704
3356	0.8711
3347	0.8715
3338	0.873
3329	0.8719
3320	0.8721
3311	0.8734
3302	0.8714
3293	0.8708
3284	0.8702
3275	0.8707
3266	0.8704
3257	0.8701
3248	0.8701
3239	0.8698
3230	0.8699
3221	0.8701
3212	0.8704
3203	0.8694
3194	0.871
3185	0.8701
3176	0.8712
3167	0.8726
3158	0.8739
3149	0.8743
3140	0.8736
3131	0.8713
3122	0.8688
3113	0.8649
3104	0.86
3095	0.8512
3086	0.839
3077	0.8281
3068	0.7751
3059	0.801
3050	0.8362
3041	0.8532
3032	0.8512
3023	0.8543
3014	0.8619
3005	0.8663
2996	0.8655
2987	0.8659
2978	0.8659
2969	0.8663
2960	0.8653
2951	0.8645
2942	0.8616
2933	0.8541
2924	0.8454
2915	0.8371
2906	0.848
2897	0.8555
2888	0.8563
2879	0.8574
2870	0.8565
2861	0.8542
2852	0.8436
2843	0.8414
2834	0.8534
2825	0.8592
2816	0.8629
2807	0.8646
2798	0.8649
2789	0.8639
2780	0.8656
2771	0.866
2762	0.8663
2753	0.8668
2744	0.8672
2735	0.8675
2726	0.8678
2717	0.868
2708	0.8683
2699	0.8683
2690	0.8684
2681	0.8685
2672	0.8688
2663	0.869
2654	0.8705
2645	0.8698
2636	0.8692
2627	0.8703
2618	0.8703
2609	0.8702
2600	0.8701
2591	0.8701
2582	0.8702
2573	0.8702
2564	0.8701
2555	0.87
2546	0.8699
2537	0.8697
2528	0.8696
2519	0.8695
2510	0.8696
2501	0.8697
2492	0.8699
2483	0.8701
2474	0.8716
2465	0.8717
2456	0.8709
2447	0.8715
2438	0.8713
2429	0.8709
2420	0.8706
2411	0.8705
2402	0.8715
2393	0.8712
2384	0.874
2375	0.8774
2366	0.8854
2357	0.895
2348	0.8876
2339	0.8863
2330	0.8902
2321	0.892
2312	0.881
2303	0.8726
2294	0.8731
2285	0.872
2276	0.8736
2267	0.8751
2258	0.8765
2249	0.8769
2240	0.8777
2231	0.8784
2222	0.8796
2213	0.8796
2204	0.8811
2195	0.8815
2186	0.8824
2177	0.8845
2168	0.8844
2159	0.8846
2150	0.8848
2141	0.8849
2132	0.8853
2123	0.8856
2114	0.886
2105	0.8864
2096	0.8867
2087	0.888
2078	0.8894
2069	0.8944
2060	0.891
2051	0.8912
2042	0.8961
2033	0.8905
2024	0.8906
2015	0.8978
2006	0.8963
1997	0.8983
1988	0.8852
1979	0.8489
1970	0.8443
1961	0.8686
1952	0.8487
1943	0.8457
1934	0.8373
1925	0.8412
1916	0.8358
1907	0.845
1898	0.8489
1889	0.8487
1880	0.8489
1871	0.8471
1862	0.8443
1853	0.8413
1844	0.8398
1835	0.8386
1826	0.8409
1817	0.8309
1808	0.8378
1799	0.8448
1790	0.8501
1781	0.8484
1772	0.8445
1763	0.8484
1754	0.8537
1745	0.8525
1736	0.8505
1727	0.8495
1718	0.856
1709	0.8505
1700	0.8586
1691	0.8495
1682	0.8463
1673	0.8508
1664	0.8546
1655	0.8604
1646	0.8632
1637	0.8427
1628	0.799
1619	0.8249
1610	0.5998
1601	0.7084
1592	0.7209
1583	0.7184
1574	0.7181
1565	0.6517
1556	0.633
1547	0.3564
1538	0.3637
1529	0.4144
1520	0.6672
1511	0.6677
1502	0.6173
1493	0.785
1484	0.8199
1475	0.832
1466	0.8339
1457	0.8171
1448	0.8161
1439	0.7351
1430	0.8431
1421	0.8427
1412	0.8479
1403	0.8582
1394	0.8255
1385	0.862
1376	0.8329
1367	0.7507
1358	0.4567
1349	0.1078
1340	0.3852
1331	0.4687
1322	0.8032
1313	0.8948
1304	0.9203
1295	0.9309
1286	0.9329
1277	0.9449
1268	0.8623
1259	0.9454
1250	0.9515
1241	0.9488
1232	0.926
1223	0.9399
1214	0.936
1205	0.9121
1196	0.8854
1187	0.9035
1178	0.9021
1169	0.9099
1160	0.906
1151	0.857
1142	0.88
1133	0.8685
1124	0.9163
1115	0.9213
1106	0.9158
1097	0.9113
1088	0.8888
1079	0.7298
1070	0.8723
1061	0.898
1052	0.905
1043	0.9092
1034	0.9087
1025	0.9014
1016	0.8866
1007	0.8959
998	0.8977
989	0.9002
980	0.9011
971	0.8989
962	0.8603
953	0.8249
944	0.8815
935	0.8916
926	0.897
917	0.8903
908	0.6686
899	0.8474
890	0.7752
881	0.8636
872	0.8334
863	0.6302
854	0.8064
845	0.8624
836	0.8713
827	0.8728
818	0.4535
809	0.8233
800	0.4652
791	0.8591
782	0.8707
773	0.84
764	0.4575
755	0.6458
746	0.8525
737	0.867
728	0.8816
719	0.8818
710	0.8842
701	0.8901
692	0.8937
683	0.8962
674	0.9017
665	0.8972
656	0.9203
647	0.893
638	0.9022
629	0.9094
620	0.9192
611	0.9235
602	0.915
593	0.8673
584	0.925
575	0.9262
566	0.9317
557	0.934
548	0.9326
539	0.9272
530	0.9186
521	0.9214
512	0.925
503	0.9245
494	0.916
485	0.8353
476	0.8217
467	0.8213
458	0.8243
449	0.8513
440	0.8647
