Infrared Spectrum: Alpha-HYDROXYACETOPHENONE
Formula: C8 H8 O2
CAS: 582-24-1
State: SOLUTION (CCl4 FOR 2-10.5, CS2 FOR 9.8-16 MICRON) VS SOLVENT
Melting point: 85-87 C
Class: COBLENTZ III
Instrument: BAIRD (GRATING)
Instrument parameters: NaCl PRISM
Path length: 0.01 CM, AND 0.01 CM , REFERENCE CELLS : 0.05 CM
Resolution: 2
Origin: WYANDOTTE CHEMICALS CORP.
1/CM	TRANSMITTANCE
627	0.7902
636	0.7758
645	0.7344
654	0.6453
663	0.6712
672	0.6634
681	0.2457
690	0.5145
699	0.5723
708	0.1583
717	0.6305
726	0.7531
735	0.7453
744	0.6069
753	0.2249
762	0.6841
771	0.7354
780	0.7252
789	0.6677
798	0.6521
807	0.7048
816	0.786
825	0.7758
834	0.7546
843	0.7342
852	0.7202
861	0.7299
870	0.7421
879	0.7566
888	0.7541
897	0.7273
906	0.6952
915	0.6261
924	0.5945
933	0.5617
942	0.6439
951	0.6413
960	0.5182
969	0.1893
978	0.1619
987	0.4286
996	0.5624
1005	0.7152
1014	0.7472
1023	0.6643
1032	0.7781
1041	0.8163
1050	0.7923
1059	0.7395
1068	0.553
1077	0.5197
1086	0.4819
1095	0.2249
1104	0.2366
1113	0.3712
1122	0.4947
1131	0.5586
1140	0.6832
1149	0.6517
1158	0.4898
1167	0.407
1176	0.3176
1185	0.4643
1194	0.5515
1203	0.5085
1212	0.4181
1221	0.3291
1230	0.2377
1239	0.2857
1248	0.2837
1257	0.2683
1266	0.2131
1275	0.1094
1284	0.0522
1293	0.0906
1302	0.2579
1311	0.3496
1320	0.212
1329	0.4382
1338	0.6584
1347	0.7217
1356	0.7308
1365	0.6637
1374	0.5852
1383	0.6332
1392	0.5524
1401	0.4511
1410	0.3536
1419	0.3111
1428	0.4618
1437	0.6475
1446	0.6304
1455	0.3083
1464	0.4341
1473	0.7961
1482	0.8686
1491	0.8686
1500	0.7624
1509	0.7873
1518	0.7893
1527	0.7633
1536	0.7347
1545	0.701
1554	0.6544
1563	0.6507
1572	0.6552
1581	0.6469
1590	0.5331
1599	0.4748
1608	0.4052
1617	0.4888
1626	0.6742
1635	0.712
1644	0.6941
1653	0.6341
1662	0.5288
1671	0.4653
1680	0.1887
1689	0.0373
1698	0.0437
1707	0.0525
1716	0.1062
1725	0.1344
1734	0.1685
1743	0.3244
1752	0.5133
1761	0.6802
1770	0.7834
1779	0.8111
1788	0.8503
1797	0.8494
1806	0.8449
1815	0.8568
1824	0.8881
1833	0.9064
1842	0.9156
1851	0.9178
1860	0.9146
1869	0.9065
1878	0.8963
1887	0.8888
1896	0.889
1905	0.8951
1914	0.9042
1923	0.9079
1932	0.9019
1941	0.8964
1950	0.8966
1959	0.9029
1968	0.9171
1977	0.9305
1986	0.9337
1995	0.9348
2004	0.9355
2013	0.9353
2022	0.9346
2031	0.9335
2040	0.932
2049	0.9306
2058	0.9301
2067	0.9306
2076	0.9317
2085	0.9347
2094	0.9383
2103	0.9385
2112	0.9363
2121	0.9331
2130	0.9295
2139	0.9258
2148	0.9235
2157	0.9219
2166	0.9222
2175	0.9215
2184	0.9202
2193	0.9179
2202	0.9156
2211	0.9132
2220	0.9108
2229	0.9082
2238	0.9056
2247	0.9014
2256	0.8968
2265	0.8923
2274	0.8889
2283	0.8862
2292	0.8845
2301	0.8833
2310	0.8818
2319	0.8795
2328	0.8766
2337	0.8729
2346	0.8693
2355	0.8652
2364	0.8608
2373	0.8553
2382	0.8496
2391	0.8432
2400	0.8352
2409	0.8273
2418	0.8174
2427	0.8066
2436	0.7952
2445	0.7829
2454	0.7699
2463	0.7554
2472	0.7407
2481	0.7258
2490	0.711
2499	0.687
2508	0.6623
2517	0.6496
2526	0.6483
2535	0.6524
2544	0.6611
2553	0.6838
2562	0.6878
2571	0.6873
2580	0.6838
2589	0.6791
2598	0.6764
2607	0.6753
2616	0.6726
2625	0.6632
2634	0.6479
2643	0.6318
2652	0.618
2661	0.6094
2670	0.6189
2679	0.643
2688	0.6564
2697	0.6607
2706	0.6576
2715	0.6514
2724	0.6403
2733	0.625
2742	0.6097
2751	0.5946
2760	0.5795
2769	0.5646
2778	0.5498
2787	0.5351
2796	0.5204
2805	0.5059
2814	0.4915
2823	0.4771
2832	0.4629
2841	0.4487
2850	0.4346
2859	0.4206
2868	0.4067
2877	0.3929
2886	0.3829
2895	0.3704
2904	0.3645
2913	0.3678
2922	0.3803
2931	0.4001
2940	0.4209
2949	0.4372
2958	0.4384
2967	0.4383
2976	0.4315
2985	0.421
2994	0.4106
3003	0.4002
3012	0.3898
3021	0.3796
3030	0.3694
3039	0.3592
3048	0.3491
3057	0.3433
3066	0.3483
3075	0.3748
3084	0.4036
3093	0.432
3102	0.4431
3111	0.4499
3120	0.4541
3129	0.4582
3138	0.4625
3147	0.4675
3156	0.4725
3165	0.4808
3174	0.4909
3183	0.5033
3192	0.5162
3201	0.5264
3210	0.5361
3219	0.5445
3228	0.5528
3237	0.5615
3246	0.5715
3255	0.5815
3264	0.59
3273	0.5985
3282	0.6052
3291	0.6102
3300	0.6128
3309	0.6134
3318	0.6135
3327	0.6123
3336	0.6107
3345	0.607
3354	0.6021
3363	0.5962
3372	0.5894
3381	0.5811
3390	0.5727
3399	0.5656
3408	0.56
3417	0.5547
3426	0.5491
3435	0.5438
3444	0.5422
3453	0.5418
3462	0.5435
3471	0.5469
3480	0.5561
3489	0.5756
3498	0.6008
3507	0.6301
3516	0.6698
3525	0.7145
3534	0.7513
3543	0.7722
3552	0.7898
3561	0.8043
3570	0.8208
3579	0.832
3588	0.8407
3597	0.8479
3606	0.8543
3615	0.8597
3624	0.863
3633	0.8664
3642	0.8694
3651	0.8722
3660	0.874
3669	0.8757
3678	0.8774
3687	0.8792
3696	0.8812
3705	0.8832
3714	0.886
3723	0.8893
3732	0.8927
3741	0.896
3750	0.8989
3759	0.901
3768	0.9016
3777	0.9019
3786	0.902
3795	0.9022
3804	0.9021
3813	0.9019
3822	0.9018
3831	0.9016
3840	0.9015
3849	0.9015
3858	0.9014
3867	0.9013
3876	0.9013
3885	0.9012
3894	0.9012
3903	0.9012
3912	0.9011
3921	0.9011
3930	0.901
3939	0.9009
3948	0.9008
3957	0.9006
3966	0.9005
3975	0.9003
3984	0.9002
3993	0.9001
