Infrared Spectrum: Pyridine, 3,4-dimethyl-
Formula: C7 H9 N
CAS: 583-58-4
State: SOLUTION (10% CCl4 FOR 3800-1330, 10% CS2 FOR 1330-450 CM^-^1)
Class: COBLENTZ III
Instrument: DOW KBr FOREPRISM-GRATING
Instrument parameters: BLAZED AT 3.5, 12.0, 20.0 MICRON AND CHANGED AT 5.0, 7.5, 14.9 MICRON
Sampling: TRANSMISSION
Path length: 0.011 CM, 0.011 CM
Resolution: 2
Origin: DOW CHEMICAL COMPANY
1/CM	TRANSMITTANCE
3800	0.9358
3791	0.9368
3782	0.9337
3773	0.9342
3764	0.9325
3755	0.9317
3746	0.9396
3737	0.9449
3728	0.9365
3719	0.9327
3710	0.9317
3701	0.9311
3692	0.9252
3683	0.8659
3674	0.8426
3665	0.8862
3656	0.9127
3647	0.9307
3638	0.9284
3629	0.93
3620	0.9303
3611	0.9294
3602	0.9274
3593	0.9269
3584	0.9229
3575	0.9145
3566	0.9175
3557	0.9156
3548	0.9147
3539	0.9116
3530	0.9092
3521	0.9044
3512	0.9008
3503	0.8964
3494	0.8923
3485	0.8885
3476	0.8848
3467	0.882
3458	0.8795
3449	0.8773
3440	0.8752
3431	0.8727
3422	0.8695
3413	0.8658
3404	0.8618
3395	0.8569
3386	0.8509
3377	0.8473
3368	0.8495
3359	0.852
3350	0.8545
3341	0.8569
3332	0.8597
3323	0.8631
3314	0.8665
3305	0.8731
3296	0.8771
3287	0.8833
3278	0.8909
3269	0.8975
3260	0.9025
3251	0.9055
3242	0.9025
3233	0.8972
3224	0.8905
3215	0.8827
3206	0.8746
3197	0.8748
3188	0.8814
3179	0.8836
3170	0.8854
3161	0.8878
3152	0.8899
3143	0.8896
3134	0.8911
3125	0.8875
3116	0.8784
3107	0.8536
3098	0.8028
3089	0.8046
3080	0.7913
3071	0.6711
3062	0.5534
3053	0.6117
3044	0.6263
3035	0.5533
3026	0.477
3017	0.4527
3008	0.5245
2999	0.5336
2990	0.3519
2981	0.377
2972	0.4173
2963	0.4869
2954	0.3732
2945	0.4416
2936	0.5022
2927	0.3642
2918	0.5767
2909	0.6632
2900	0.6825
2891	0.6712
2882	0.6379
2873	0.6328
2864	0.6679
2855	0.7213
2846	0.794
2837	0.8604
2828	0.8795
2819	0.896
2810	0.9057
2801	0.9151
2792	0.9197
2783	0.9219
2774	0.9242
2765	0.9168
2756	0.9218
2747	0.9223
2738	0.8867
2729	0.8954
2720	0.9207
2711	0.9329
2702	0.9315
2693	0.9322
2684	0.9333
2675	0.9344
2666	0.9347
2657	0.9381
2648	0.9383
2639	0.9367
2630	0.9342
2621	0.93
2612	0.9319
2603	0.938
2594	0.9415
2585	0.9433
2576	0.9426
2567	0.9407
2558	0.9394
2549	0.9393
2540	0.9408
2531	0.9418
2522	0.9417
2513	0.9416
2504	0.9407
2495	0.9338
2486	0.9105
2477	0.8998
2468	0.9148
2459	0.9246
2450	0.9307
2441	0.9367
2432	0.935
2423	0.9355
2414	0.9386
2405	0.9391
2396	0.9371
2387	0.9386
2378	0.9486
2369	0.9583
2360	0.967
2351	0.9599
2342	0.9443
2333	0.9499
2324	0.9595
2315	0.9617
2306	0.9513
2297	0.9533
2288	0.9561
2279	0.9577
2270	0.9563
2261	0.9549
2252	0.9508
2243	0.9461
2234	0.9453
2225	0.9431
2216	0.9403
2207	0.9428
2198	0.947
2189	0.9499
2180	0.9522
2171	0.9551
2162	0.9474
2153	0.9511
2144	0.9501
2135	0.9486
2126	0.9529
2117	0.962
2108	0.9565
2099	0.9462
2090	0.9515
2081	0.954
2072	0.9507
2063	0.953
2054	0.9501
2045	0.9567
2036	0.9621
2027	0.9536
2018	0.9484
2009	0.9485
2000	0.95
1991	0.9441
1982	0.9173
1973	0.9208
1964	0.9259
1955	0.9245
1946	0.9098
1937	0.8986
1928	0.8632
1919	0.8795
1910	0.908
1901	0.9167
1892	0.911
1883	0.8826
1874	0.9118
1865	0.9238
1856	0.9244
1847	0.9156
1838	0.9028
1829	0.908
1820	0.9196
1811	0.9266
1802	0.926
1793	0.9243
1784	0.9029
1775	0.9104
1766	0.9237
1757	0.9285
1748	0.9085
1739	0.8871
1730	0.9065
1721	0.9303
1712	0.9335
1703	0.9315
1694	0.933
1685	0.9342
1676	0.9268
1667	0.927
1658	0.9239
1649	0.9106
1640	0.8185
1631	0.8088
1622	0.8171
1613	0.7777
1604	0.3633
1595	0.0748
1586	0.3955
1577	0.651
1568	0.6585
1559	0.591
1550	0.7133
1541	0.7962
1532	0.8241
1523	0.852
1514	0.8337
1505	0.7654
1496	0.2665
1487	0.5369
1478	0.7325
1469	0.6697
1460	0.5322
1451	0.2444
1442	0.2164
1433	0.5007
1424	0.712
1415	0.698
1406	0.1442
1397	0.7716
1388	0.493
1379	0.7451
1370	0.8444
1361	0.9156
1352	0.9107
1343	0.8979
1334	0.8965
1325	0.903
1316	0.905
1307	0.7883
1298	0.8842
1289	0.9239
1280	0.9318
1271	0.935
1262	0.9361
1253	0.9312
1244	0.9073
1235	0.884
1226	0.9035
1217	0.9333
1208	0.9357
1199	0.8853
1190	0.2554
1181	0.8827
1172	0.8722
1163	0.944
1154	0.9558
1145	0.9488
1136	0.9562
1127	0.9794
1118	0.9842
1109	0.9755
1100	0.9704
1091	0.9633
1082	0.9478
1073	0.8608
1064	0.6322
1055	0.8996
1046	0.8888
1037	0.8805
1028	0.8316
1019	0.5743
1010	0.8322
1001	0.7557
992	0.8408
983	0.8481
974	0.9034
965	0.9259
956	0.9294
947	0.9406
938	0.9462
929	0.9464
920	0.9272
911	0.9184
902	0.9399
893	0.9564
884	0.9654
875	0.9535
866	0.9436
857	0.936
848	0.8968
839	0.3474
830	0.7444
821	0.2264
812	0.4988
803	0.88
794	0.9341
785	0.941
776	0.9424
767	0.9472
758	0.9387
749	0.9142
740	0.9321
731	0.8924
722	0.3944
713	0.9164
704	0.94
695	0.9502
686	0.9573
677	0.965
668	0.988
659	0.958
650	0.9236
641	0.946
632	0.9588
623	0.9653
614	0.9671
605	0.9396
596	0.9342
587	0.9685
578	0.967
569	0.9696
560	0.9676
551	0.9629
542	0.9508
533	0.9231
524	0.3257
515	0.8707
506	0.7329
497	0.9427
488	0.9483
479	0.9504
470	0.9503
461	0.9493
452	0.9434
