Infrared Spectrum: THIAZIDE, HYDROCHLORO-
Formula: C7 H8 Cl N3 O4 S2
CAS: 58-93-5
State: SOLID (SPLIT MULL)
Class: COBLENTZ II
Instrument: BECKMAN IR-12 (GRATING)
Instrument parameters: FILTERS AT 303, 473, 790, 1036, 1880, 2930 CM^-^1; GRATING CHANGE: 300.5, 650.0, 2000.4 CM^-^1
Sampling: TRANSMISSION
Path length: KBr PLATES AND FLUOROLUBE MEDIUM FOR 4000-1360; CsI PLATES AND NUJOL MEDIUM FOR 1360-200
Resolution: 2
Origin: BECKMAN INSTRUMENTS, KENNETH STINE
1/CM	TRANSMITTANCE
4000	0.7178
3990	0.7182
3980	0.7182
3970	0.7176
3960	0.7178
3950	0.7193
3940	0.721
3930	0.7224
3920	0.7236
3910	0.7251
3900	0.7265
3890	0.7282
3880	0.7299
3870	0.7317
3860	0.7336
3850	0.7358
3840	0.738
3830	0.7418
3820	0.7456
3810	0.7503
3800	0.7555
3790	0.7611
3780	0.7671
3770	0.7731
3760	0.7746
3750	0.7764
3740	0.7798
3730	0.7789
3720	0.7836
3710	0.7881
3700	0.7922
3690	0.7948
3680	0.7964
3670	0.7949
3660	0.7906
3650	0.7857
3640	0.7812
3630	0.7776
3620	0.7764
3610	0.7765
3600	0.7791
3590	0.7834
3580	0.7864
3570	0.7887
3560	0.7928
3550	0.7981
3540	0.8047
3530	0.811
3520	0.8178
3510	0.8262
3500	0.8354
3490	0.8428
3480	0.8473
3470	0.8495
3460	0.8454
3450	0.8068
3440	0.7575
3430	0.6624
3420	0.527
3410	0.3578
3400	0.2799
3390	0.2105
3380	0.1953
3370	0.1108
3360	0.0824
3350	0.1651
3340	0.2478
3330	0.3305
3320	0.393
3310	0.3943
3300	0.3794
3290	0.3043
3280	0.2197
3270	0.1591
3260	0.1786
3250	0.2429
3240	0.3071
3230	0.3712
3220	0.3822
3210	0.3718
3200	0.3069
3190	0.2344
3180	0.162
3170	0.1292
3160	0.1542
3150	0.2193
3140	0.2844
3130	0.3495
3120	0.4145
3110	0.451
3100	0.4542
3090	0.4653
3080	0.5181
3070	0.5337
3060	0.5429
3050	0.5705
3040	0.5997
3030	0.6266
3020	0.6446
3010	0.6675
3000	0.6888
2990	0.7007
2980	0.7015
2970	0.7114
2960	0.7328
2950	0.6795
2940	0.7235
2930	0.7796
2920	0.7822
2910	0.7741
2900	0.7461
2890	0.7356
2880	0.7421
2870	0.7645
2860	0.7614
2850	0.7308
2840	0.6612
2830	0.6344
2820	0.703
2810	0.7515
2800	0.7706
2790	0.7818
2780	0.7858
2770	0.7818
2760	0.7785
2750	0.7891
2740	0.8008
2730	0.8043
2720	0.8058
2710	0.8057
2700	0.7993
2690	0.7885
2680	0.7985
2670	0.81
2660	0.8136
2650	0.8168
2640	0.8217
2630	0.8261
2620	0.8242
2610	0.8196
2600	0.8158
2590	0.8133
2580	0.8136
2570	0.8214
2560	0.8289
2550	0.8352
2540	0.8386
2530	0.841
2520	0.8456
2510	0.8431
2500	0.8417
2490	0.8425
2480	0.8452
2470	0.8496
2460	0.8541
2450	0.8578
2440	0.8587
2430	0.8601
2420	0.8621
2410	0.8675
2400	0.8741
2390	0.8812
2380	0.8866
2370	0.89
2360	0.8908
2350	0.8912
2340	0.8918
2330	0.8927
2320	0.8935
2310	0.8942
2300	0.895
2290	0.8962
2280	0.8977
2270	0.9004
2260	0.9039
2250	0.9078
2240	0.9116
2230	0.9147
2220	0.9178
2210	0.9212
2200	0.9228
2190	0.9244
2180	0.9259
2170	0.9271
2160	0.9284
2150	0.9289
2140	0.9293
2130	0.9296
2120	0.9299
2110	0.9302
2100	0.9304
2090	0.9298
2080	0.929
2070	0.9281
2060	0.9278
2050	0.9277
2040	0.9277
2030	0.9281
2020	0.9288
2010	0.9301
2000	0.9316
1990	0.9317
1980	0.9305
1970	0.9299
1960	0.9312
1950	0.9333
1940	0.9355
1930	0.9375
1920	0.9391
1910	0.9402
1900	0.9411
1890	0.9414
1880	0.9378
1870	0.934
1860	0.9328
1850	0.932
1840	0.9344
1830	0.93
1820	0.8855
1810	0.8987
1800	0.9106
1790	0.9133
1780	0.9137
1770	0.9257
1760	0.9349
1750	0.9387
1740	0.9413
1730	0.9404
1720	0.9293
1710	0.9355
1700	0.9325
1690	0.935
1680	0.9328
1670	0.9168
1660	0.8978
1650	0.8551
1640	0.7684
1630	0.6801
1620	0.3782
1610	0.0846
1600	0.0968
1590	0.378
1580	0.6128
1570	0.6202
1560	0.4148
1550	0.474
1540	0.4156
1530	0.3334
1520	0.2484
1510	0.5143
1500	0.66
1490	0.7501
1480	0.7864
1470	0.6878
1460	0.6883
1450	0.7742
1440	0.7172
1430	0.5295
1420	0.6733
1410	0.7598
1400	0.7778
1390	0.7328
1380	0.37
1370	0.4922
1360	0.5665
1350	0.3497
1340	0.1024
1330	0.2008
1320	0.0925
1310	0.1927
1300	0.34
1290	0.5839
1280	0.5625
1270	0.6864
1260	0.8638
1250	0.7236
1240	0.6938
1230	0.9125
1220	0.9096
1210	0.8943
1200	0.7318
1190	0.3202
1180	0.1136
1170	0.1579
1160	0.1864
1150	0.0922
1140	0.3095
1130	0.4718
1120	0.315
1110	0.6496
1100	0.7314
1090	0.7493
1080	0.4533
1070	0.4472
1060	0.1882
1050	0.4562
1040	0.6801
1030	0.4399
1020	0.5762
1010	0.8094
1000	0.857
990	0.8728
980	0.8521
970	0.8119
960	0.7376
950	0.4735
940	0.4319
930	0.5455
920	0.6323
910	0.4605
900	0.5355
890	0.6253
880	0.7368
870	0.6735
860	0.2896
850	0.8106
840	0.8634
830	0.8607
820	0.8335
810	0.7847
800	0.6177
790	0.4045
780	0.2349
770	0.3342
760	0.4448
750	0.3164
740	0.4609
730	0.5468
720	0.6143
710	0.5315
700	0.6511
690	0.5875
680	0.3966
670	0.6965
660	0.7617
650	0.6987
640	0.6077
630	0.6297
620	0.5308
610	0.2875
600	0.5617
590	0.6976
580	0.7246
570	0.7051
560	0.5266
550	0.3564
540	0.3359
530	0.3542
520	0.4487
510	0.5151
500	0.4269
490	0.4889
480	0.4208
470	0.3021
460	0.3793
450	0.517
440	0.5726
430	0.6076
420	0.6942
410	0.7481
400	0.7876
390	0.8288
380	0.7136
370	0.7767
360	0.8103
350	0.8212
340	0.8286
330	0.798
320	0.7783
310	0.9261
300	0.955
290	0.9578
280	0.9528
270	0.9245
260	0.9101
250	0.9248
240	0.9255
230	0.8736
220	0.7783
210	0.6648
