Infrared Spectrum: THIAZIDE, HYDROCHLORO-
Formula: C7 H8 Cl N3 O4 S2
CAS: 58-93-5
State: SOLID (1.5 mg / 350 mg KBr DISC) VS AIR
Class: COBLENTZ III
Instrument: BECKMAN IR-12 (GRATING)
Instrument parameters: FILTERS AT 303, 473, 790, 1036, 1880, 2930 CM^-^1. GRATING CHANGE: 300.5, 650.0, 2000.4 CM^-^1
Sampling: TRANSMISSION
Resolution: 2
Origin: BECKMAN INSTRUMENTS, KENNETH STINE
1/CM	TRANSMITTANCE
4000	0.7862
3990	0.7865
3980	0.7869
3970	0.788
3960	0.7888
3950	0.7893
3940	0.7898
3930	0.7903
3920	0.788
3910	0.7875
3900	0.788
3890	0.7893
3880	0.7906
3870	0.7918
3860	0.7937
3850	0.7955
3840	0.7972
3830	0.7994
3820	0.8014
3810	0.8018
3800	0.8018
3790	0.8021
3780	0.803
3770	0.8039
3760	0.8048
3750	0.8061
3740	0.8078
3730	0.8094
3720	0.8111
3710	0.8131
3700	0.815
3690	0.8142
3680	0.8078
3670	0.7976
3660	0.7861
3650	0.775
3640	0.7683
3630	0.7615
3620	0.7571
3610	0.7541
3600	0.751
3590	0.7494
3580	0.7478
3570	0.7462
3560	0.7448
3550	0.7438
3540	0.7428
3530	0.7418
3520	0.7407
3510	0.7397
3500	0.7374
3490	0.7342
3480	0.7262
3470	0.714
3460	0.6868
3450	0.6354
3440	0.5853
3430	0.5007
3420	0.4144
3410	0.328
3400	0.2418
3390	0.219
3380	0.1762
3370	0.1096
3360	0.1154
3350	0.2105
3340	0.3095
3330	0.3898
3320	0.3988
3310	0.3873
3300	0.3408
3290	0.2876
3280	0.2344
3270	0.2193
3260	0.2585
3250	0.3067
3240	0.3548
3230	0.3864
3220	0.3925
3210	0.3882
3200	0.3507
3190	0.307
3180	0.2633
3170	0.2584
3160	0.3169
3150	0.3823
3140	0.4476
3130	0.5129
3120	0.5431
3110	0.5456
3100	0.5433
3090	0.5512
3080	0.573
3070	0.5844
3060	0.5912
3050	0.6126
3040	0.6348
3030	0.6569
3020	0.6794
3010	0.6965
3000	0.7131
2990	0.724
2980	0.7248
2970	0.7148
2960	0.7156
2950	0.6814
2940	0.6858
2930	0.7103
2920	0.7246
2910	0.7315
2900	0.7317
2890	0.7368
2880	0.7401
2870	0.7542
2860	0.7528
2850	0.741
2840	0.7174
2830	0.7304
2820	0.7585
2810	0.7858
2800	0.7982
2790	0.8055
2780	0.8101
2770	0.8111
2760	0.8091
2750	0.8084
2740	0.8142
2730	0.8218
2720	0.8254
2710	0.8278
2700	0.8273
2690	0.8204
2680	0.822
2670	0.8244
2660	0.8265
2650	0.8278
2640	0.8287
2630	0.8295
2620	0.8296
2610	0.8297
2600	0.8292
2590	0.827
2580	0.8228
2570	0.8309
2560	0.8405
2550	0.8438
2540	0.8446
2530	0.8451
2520	0.8462
2510	0.8471
2500	0.8482
2490	0.8498
2480	0.8538
2470	0.8583
2460	0.8624
2450	0.8655
2440	0.8685
2430	0.8713
2420	0.8738
2410	0.8775
2400	0.8812
2390	0.8852
2380	0.8899
2370	0.8945
2360	0.8966
2350	0.8981
2340	0.8984
2330	0.8975
2320	0.8965
2310	0.8951
2300	0.8921
2290	0.8911
2280	0.8914
2270	0.8928
2260	0.8941
2250	0.8954
2240	0.8968
2230	0.8981
2220	0.8995
2210	0.9003
2200	0.901
2190	0.9018
2180	0.9025
2170	0.9031
2160	0.9037
2150	0.9043
2140	0.9049
2130	0.9055
2120	0.9061
2110	0.9068
2100	0.9075
2090	0.9083
2080	0.909
2070	0.9097
2060	0.9108
2050	0.9118
2040	0.9128
2030	0.9136
2020	0.9141
2010	0.9147
2000	0.9149
1990	0.9148
1980	0.9152
1970	0.9165
1960	0.918
1950	0.9199
1940	0.9218
1930	0.9244
1920	0.9278
1910	0.933
1900	0.9342
1890	0.9318
1880	0.9307
1870	0.9302
1860	0.9301
1850	0.9304
1840	0.9313
1830	0.9307
1820	0.917
1810	0.9185
1800	0.924
1790	0.9271
1780	0.9283
1770	0.9304
1760	0.933
1750	0.9337
1740	0.9317
1730	0.9268
1720	0.9242
1710	0.9227
1700	0.9203
1690	0.9145
1680	0.9018
1670	0.8764
1660	0.8377
1650	0.7701
1640	0.7018
1630	0.6145
1620	0.4044
1610	0.1077
1600	0.0685
1590	0.3115
1580	0.5775
1570	0.6235
1560	0.4552
1550	0.479
1540	0.4943
1530	0.4427
1520	0.2713
1510	0.4549
1500	0.6475
1490	0.7415
1480	0.8162
1470	0.7151
1460	0.6867
1450	0.7701
1440	0.7697
1430	0.6461
1420	0.7215
1410	0.7584
1400	0.7712
1390	0.7291
1380	0.5015
1370	0.4251
1360	0.5044
1350	0.3046
1340	0.0721
1330	0.0992
1320	0.0465
1310	0.2856
1300	0.3307
1290	0.5296
1280	0.645
1270	0.6098
1260	0.7014
1250	0.7649
1240	0.6027
1230	0.7657
1220	0.8111
1210	0.7626
1200	0.6366
1190	0.352
1180	0.0841
1170	0.0725
1160	0.0796
1150	0.0535
1140	0.3011
1130	0.5074
1120	0.3688
1110	0.6437
1100	0.6955
1090	0.6908
1080	0.5326
1070	0.4419
1060	0.1833
1050	0.4104
1040	0.5971
1030	0.4673
1020	0.4981
1010	0.7068
1000	0.8015
990	0.8134
980	0.8162
970	0.7982
960	0.7472
950	0.5929
940	0.4702
930	0.4937
920	0.5674
910	0.517
900	0.5393
890	0.6088
880	0.6597
870	0.6568
860	0.4414
850	0.6356
840	0.7925
830	0.8256
820	0.8205
810	0.7934
800	0.731
790	0.5652
780	0.3897
770	0.3729
760	0.4302
750	0.3289
740	0.4038
730	0.4683
720	0.556
710	0.4664
700	0.544
690	0.5388
680	0.427
670	0.4335
660	0.6725
650	0.6748
640	0.5143
630	0.606
620	0.5659
610	0.3712
600	0.3848
590	0.6136
580	0.6593
570	0.6668
560	0.5397
550	0.3689
540	0.2425
530	0.4068
520	0.3887
510	0.4962
500	0.4615
490	0.4873
480	0.4494
470	0.3564
460	0.4194
450	0.5124
440	0.551
430	0.558
420	0.6033
410	0.6328
400	0.6379
390	0.6748
380	0.6365
370	0.6084
360	0.6451
350	0.6571
340	0.6441
330	0.6205
320	0.5472
310	0.6047
300	0.6793
290	0.6776
280	0.6588
270	0.6048
260	0.5149
250	0.425
240	0.335
