Infrared Spectrum: Androst-6-ene-17Beta-carboxylic acid, 3Alpha-acetamido
Formula: C22 H33 N O3
CAS: 5906-01-4
State: SOLID (KBr DISC)
Melting point: 296-298 C
Class: COBLENTZ III
Instrument: PERKIN-ELMER 21 (GRATING)
Instrument parameters: FILTER AT ABOUT 10 MICRONS
Resolution: 2
Origin: ABBOTT LABORATORIES
1/CM	TRANSMITTANCE
653	0.5268
662	0.4657
671	0.5218
680	0.5707
689	0.6344
698	0.6175
707	0.6674
716	0.6011
725	0.4226
734	0.5472
743	0.6726
752	0.6918
761	0.6861
770	0.6737
779	0.681
788	0.667
797	0.4727
806	0.6667
815	0.5478
824	0.6266
833	0.6253
842	0.6782
851	0.6846
860	0.6759
869	0.6671
878	0.6409
887	0.6432
896	0.6436
905	0.6108
914	0.6089
923	0.5918
932	0.5491
941	0.5292
950	0.496
959	0.3764
968	0.3701
977	0.4561
986	0.4418
995	0.4083
1004	0.4872
1013	0.5217
1022	0.5404
1031	0.5157
1040	0.4881
1049	0.5611
1058	0.5256
1067	0.4882
1076	0.4886
1085	0.5112
1094	0.5944
1103	0.5531
1112	0.539
1121	0.5184
1130	0.5163
1139	0.4483
1148	0.4267
1157	0.3865
1166	0.3658
1175	0.3939
1184	0.3607
1193	0.236
1202	0.3046
1211	0.2827
1220	0.2335
1229	0.1716
1238	0.1174
1247	0.1671
1256	0.1783
1265	0.1712
1274	0.2282
1283	0.215
1292	0.3184
1301	0.4208
1310	0.48
1319	0.4434
1328	0.3899
1337	0.416
1346	0.4489
1355	0.397
1364	0.3321
1373	0.3155
1382	0.2619
1391	0.3884
1400	0.4117
1409	0.3948
1418	0.342
1427	0.2659
1436	0.3188
1445	0.3148
1454	0.288
1463	0.3269
1472	0.4287
1481	0.4765
1490	0.4061
1499	0.3241
1508	0.2431
1517	0.1743
1526	0.1099
1535	0.073
1544	0.0609
1553	0.1245
1562	0.2621
1571	0.3813
1580	0.3808
1589	0.3617
1598	0.2739
1607	0.1444
1616	0.0402
1625	0.0382
1634	0.0661
1643	0.1185
1652	0.1444
1661	0.141
1670	0.1122
1679	0.0527
1688	0.043
1697	0.104
1706	0.176
1715	0.2215
1724	0.2497
1733	0.2876
1742	0.4628
1751	0.5831
1760	0.6506
1769	0.6922
1778	0.7165
1787	0.7291
1796	0.7343
1805	0.7366
1814	0.7371
1823	0.7351
1832	0.7304
1841	0.7253
1850	0.7197
1859	0.7101
1868	0.6997
1877	0.6889
1886	0.6816
1895	0.6746
1904	0.6673
1913	0.6625
1922	0.6589
1931	0.6575
1940	0.6571
1949	0.6575
1958	0.6592
1967	0.661
1976	0.6636
1985	0.6662
1994	0.6688
2003	0.6714
2012	0.6742
2021	0.6771
2030	0.6824
2039	0.6882
2048	0.6931
2057	0.6953
2066	0.6964
2075	0.7019
2084	0.7055
2093	0.7065
2102	0.7073
2111	0.7077
2120	0.7082
2129	0.7084
2138	0.7083
2147	0.7072
2156	0.7055
2165	0.7035
2174	0.7009
2183	0.6984
2192	0.6957
2201	0.6921
2210	0.6884
2219	0.6841
2228	0.6794
2237	0.6748
2246	0.6686
2255	0.6612
2264	0.6537
2273	0.6457
2282	0.6373
2291	0.6254
2300	0.6113
2309	0.5989
2318	0.5857
2327	0.5748
2336	0.5663
2345	0.5607
2354	0.557
2363	0.5537
2372	0.5501
2381	0.5379
2390	0.5185
2399	0.5014
2408	0.4874
2417	0.4738
2426	0.463
2435	0.4524
2444	0.4425
2453	0.4332
2462	0.4255
2471	0.4212
2480	0.4169
2489	0.4137
2498	0.4112
2507	0.4087
2516	0.4063
2525	0.4044
2534	0.4027
2543	0.4017
2552	0.4006
2561	0.3996
2570	0.3989
2579	0.3994
2588	0.4032
2597	0.4093
2606	0.4224
2615	0.4313
2624	0.4337
2633	0.4336
2642	0.4331
2651	0.4316
2660	0.4299
2669	0.4269
2678	0.4238
2687	0.4193
2696	0.4144
2705	0.4077
2714	0.4
2723	0.3931
2732	0.3881
2741	0.3816
2750	0.3758
2759	0.3694
2768	0.3616
2777	0.3503
2786	0.3322
2795	0.3188
2804	0.3046
2813	0.2864
2822	0.2615
2831	0.2104
2840	0.1744
2849	0.1512
2858	0.1327
2867	0.1162
2876	0.1017
2885	0.0913
2894	0.0814
2903	0.0726
2912	0.0676
2921	0.065
2930	0.0668
2939	0.068
2948	0.071
2957	0.0775
2966	0.0867
2975	0.0985
2984	0.1152
2993	0.1663
3002	0.2321
3011	0.2988
3020	0.3409
3029	0.3561
3038	0.3666
3047	0.3732
3056	0.3772
3065	0.3804
3074	0.3958
3083	0.4174
3092	0.4244
3101	0.4297
3110	0.4325
3119	0.4351
3128	0.4384
3137	0.4434
3146	0.4537
3155	0.4657
3164	0.4729
3173	0.4754
3182	0.4776
3191	0.4791
3200	0.4798
3209	0.4803
3218	0.4801
3227	0.4787
3236	0.4773
3245	0.4748
3254	0.4715
3263	0.4674
3272	0.461
3281	0.4536
3290	0.4456
3299	0.4362
3308	0.4258
3317	0.4122
3326	0.3969
3335	0.3782
3344	0.3465
3353	0.3143
3362	0.2823
3371	0.2558
3380	0.2553
3389	0.2699
3398	0.2994
3407	0.3285
3416	0.3526
3425	0.369
3434	0.3798
3443	0.3874
3452	0.3976
3461	0.4087
3470	0.4198
3479	0.4308
3488	0.4425
3497	0.4562
3506	0.4697
3515	0.4828
3524	0.4998
3533	0.5298
3542	0.543
3551	0.5544
3560	0.564
3569	0.5736
3578	0.5878
3587	0.6063
3596	0.6261
3605	0.6414
3614	0.654
3623	0.666
3632	0.6774
3641	0.6887
3650	0.7
3659	0.7112
3668	0.7199
3677	0.7275
3686	0.7332
3695	0.736
3704	0.7381
3713	0.7393
3722	0.7405
3731	0.7415
3740	0.7416
3749	0.7416
3758	0.7416
3767	0.7416
3776	0.7417
3785	0.7412
3794	0.7408
3803	0.7404
3812	0.7399
3821	0.7395
3830	0.739
3839	0.7384
3848	0.7376
3857	0.7368
3866	0.7361
3875	0.7353
3884	0.7347
3893	0.7339
3902	0.7333
3911	0.7326
3920	0.732
3929	0.7313
3938	0.7307
3947	0.73
3956	0.7293
3965	0.7287
3974	0.7281
3983	0.7274
3992	0.7268
