Infrared Spectrum: 2-propene-2-arsonic acid
Formula: C3 H7 As O3
CAS: 590-34-1
State: SOLID (SPLIT MULL), FLUOROLUBE FOR 3800-1330 CM^-^1, NUJOL FOR 1330-450 CM^-^1
Class: COBLENTZ III
Instrument: DOW KBr FOREPRISM-GRATING
Instrument parameters: BLAZED AT 3.5, 12.0, 20.0 MICRON AND CHANGED AT 5.0, 7.5, 14.9 MICRON
Sampling: TRANSMISSION
Resolution: 2
Origin: DOW CHEMICAL COMPANY
1/CM	TRANSMITTANCE
451	0.8069
460	0.8275
469	0.8391
478	0.8468
487	0.8528
496	0.8593
505	0.8656
514	0.8608
523	0.8418
532	0.8094
541	0.703
550	0.5484
559	0.6616
568	0.6819
577	0.6272
586	0.5791
595	0.5798
604	0.6227
613	0.6693
622	0.7158
631	0.7589
640	0.7737
649	0.7745
658	0.7647
667	0.7421
676	0.7195
685	0.7381
694	0.739
703	0.7119
712	0.6515
721	0.4442
730	0.5625
739	0.5725
748	0.5204
757	0.432
766	0.1783
775	0.0253
784	0.0716
793	0.2983
802	0.4951
811	0.4977
820	0.3524
829	0.4432
838	0.523
847	0.6022
856	0.6655
865	0.6713
874	0.6001
883	0.5308
892	0.4562
901	0.3389
910	0.2321
919	0.1766
928	0.2669
937	0.2421
946	0.1546
955	0.5312
964	0.6745
973	0.7338
982	0.7805
991	0.7734
1000	0.506
1009	0.8332
1018	0.8658
1027	0.8702
1036	0.8696
1045	0.867
1054	0.8416
1063	0.791
1072	0.8591
1081	0.8622
1090	0.8601
1099	0.8537
1108	0.839
1117	0.829
1126	0.8232
1135	0.8102
1144	0.7971
1153	0.7839
1162	0.7683
1171	0.7469
1180	0.7199
1189	0.6746
1198	0.6211
1207	0.5585
1216	0.4768
1225	0.3902
1234	0.3185
1243	0.362
1252	0.4678
1261	0.5626
1270	0.6722
1279	0.717
1288	0.7487
1297	0.7526
1306	0.716
1315	0.7729
1324	0.7857
1333	0.7776
1342	0.765
1351	0.819
1360	0.8776
1369	0.891
1378	0.8812
1387	0.8343
1396	0.702
1405	0.803
1414	0.8294
1423	0.6679
1432	0.8594
1441	0.8812
1450	0.8741
1459	0.8672
1468	0.8446
1477	0.8257
1486	0.8048
1495	0.792
1504	0.7819
1513	0.7681
1522	0.7539
1531	0.7175
1540	0.7061
1549	0.6921
1558	0.7042
1567	0.7017
1576	0.7058
1585	0.7048
1594	0.702
1603	0.6971
1612	0.6906
1621	0.6816
1630	0.6532
1639	0.473
1648	0.7039
1657	0.7029
1666	0.7
1675	0.7019
1684	0.7028
1693	0.694
1702	0.694
1711	0.6927
1720	0.7005
1729	0.7039
1738	0.7131
1747	0.7096
1756	0.7098
1765	0.7093
1774	0.7107
1783	0.7076
1792	0.7068
1801	0.7062
1810	0.7055
1819	0.7046
1828	0.7034
1837	0.7014
1846	0.6974
1855	0.6909
1864	0.6874
1873	0.678
1882	0.6602
1891	0.6471
1900	0.659
1909	0.6756
1918	0.6709
1927	0.6643
1936	0.6577
1945	0.6509
1954	0.6467
1963	0.6423
1972	0.6255
1981	0.6114
1990	0.5996
1999	0.5866
2008	0.5942
2017	0.5925
2026	0.5898
2035	0.5816
2044	0.5725
2053	0.5626
2062	0.5491
2071	0.5368
2080	0.5243
2089	0.5099
2098	0.4949
2107	0.4785
2116	0.4628
2125	0.4476
2134	0.4334
2143	0.4172
2152	0.3995
2161	0.3816
2170	0.3644
2179	0.3462
2188	0.3254
2197	0.3018
2206	0.2785
2215	0.2571
2224	0.236
2233	0.2114
2242	0.1918
2251	0.1734
2260	0.1543
2269	0.1363
2278	0.1201
2287	0.1038
2296	0.0901
2305	0.0822
2314	0.0755
2323	0.0715
2332	0.0695
2341	0.0703
2350	0.073
2359	0.0776
2368	0.0845
2377	0.0946
2386	0.1097
2395	0.1327
2404	0.153
2413	0.1749
2422	0.2035
2431	0.2279
2440	0.2445
2449	0.2597
2458	0.2695
2467	0.2824
2476	0.285
2485	0.2823
2494	0.2774
2503	0.2703
2512	0.2606
2521	0.2489
2530	0.2366
2539	0.2241
2548	0.2126
2557	0.2011
2566	0.1897
2575	0.179
2584	0.1687
2593	0.1582
2602	0.1484
2611	0.1386
2620	0.1292
2629	0.1211
2638	0.1139
2647	0.1079
2656	0.1023
2665	0.0979
2674	0.0939
2683	0.0906
2692	0.0891
2701	0.0877
2710	0.0869
2719	0.086
2728	0.0851
2737	0.0842
2746	0.0832
2755	0.0825
2764	0.0825
2773	0.0824
2782	0.083
2791	0.0839
2800	0.0852
2809	0.0865
2818	0.0892
2827	0.0919
2836	0.095
2845	0.0991
2854	0.1036
2863	0.1089
2872	0.1143
2881	0.1205
2890	0.1275
2899	0.1344
2908	0.1418
2917	0.1493
2926	0.157
2935	0.1657
2944	0.1749
2953	0.1798
2962	0.1774
2971	0.1732
2980	0.171
2989	0.2067
2998	0.2438
3007	0.2631
3016	0.2737
3025	0.2849
3034	0.3049
3043	0.3235
3052	0.3407
3061	0.359
3070	0.3782
3079	0.3971
3088	0.415
3097	0.4382
3106	0.4632
3115	0.4906
3124	0.5189
3133	0.539
3142	0.5606
3151	0.5862
3160	0.613
3169	0.6377
3178	0.661
3187	0.6863
3196	0.7075
3205	0.7276
3214	0.7489
3223	0.7694
3232	0.79
3241	0.8126
3250	0.8321
3259	0.8505
3268	0.862
3277	0.872
3286	0.8824
3295	0.8909
3304	0.8961
3313	0.8987
3322	0.8997
3331	0.8997
3340	0.8993
3349	0.898
3358	0.8964
3367	0.8943
3376	0.8914
3385	0.8885
3394	0.8858
3403	0.8826
3412	0.8795
3421	0.8763
3430	0.873
3439	0.8697
3448	0.8666
3457	0.8643
3466	0.8622
3475	0.8568
3484	0.8539
3493	0.8516
3502	0.8497
3511	0.8487
3520	0.8485
3529	0.8486
3538	0.8497
3547	0.8508
3556	0.8526
3565	0.8547
3574	0.858
3583	0.8626
3592	0.8686
3601	0.8741
3610	0.878
3619	0.8799
3628	0.8799
3637	0.8811
3646	0.8793
3655	0.8747
3664	0.8871
3673	0.8735
3682	0.865
3691	0.8608
3700	0.8555
3709	0.8507
3718	0.846
3727	0.8411
3736	0.8368
3745	0.8327
3754	0.8273
3763	0.8216
3772	0.8145
3781	0.8102
3790	0.8032
3799	0.7947
