Infrared Spectrum: Acetic acid, allyl ester
Formula: C5 H8 O2
CAS: 591-87-7
State: SOLUTION (10% CCl4 FOR 3800-1330, 10% CS2 FOR 1330-400)
Class: COBLENTZ III
Instrument: DOW KBr FOREPRISM-GRATING
Instrument parameters: BLAZED AT 3.5, 12.0, 20.0 MICRON AND CHANGED AT 5.0, 7.5, 14.9 MICRON
Sampling: TRANSMISSION
Path length: 0.011 CM, 0.0104 CM
Resolution: 2
Origin: DOW CHEMICAL COMPANY
1/CM	TRANSMITTANCE
3820	0.916
3811	0.9153
3802	0.9141
3793	0.9154
3784	0.9142
3775	0.9139
3766	0.9156
3757	0.9158
3748	0.915
3739	0.9146
3730	0.9143
3721	0.9121
3712	0.9073
3703	0.9056
3694	0.9082
3685	0.9088
3676	0.9109
3667	0.9123
3658	0.9132
3649	0.914
3640	0.915
3631	0.9172
3622	0.9169
3613	0.9161
3604	0.9146
3595	0.9105
3586	0.9078
3577	0.9059
3568	0.9032
3559	0.904
3550	0.9062
3541	0.9084
3532	0.91
3523	0.9081
3514	0.905
3505	0.8949
3496	0.8788
3487	0.8608
3478	0.8578
3469	0.8732
3460	0.8865
3451	0.8982
3442	0.9096
3433	0.9182
3424	0.9218
3415	0.9248
3406	0.9264
3397	0.9255
3388	0.9251
3379	0.9246
3370	0.9256
3361	0.9237
3352	0.9234
3343	0.9231
3334	0.9226
3325	0.9223
3316	0.9221
3307	0.922
3298	0.9214
3289	0.9211
3280	0.9207
3271	0.9212
3262	0.9206
3253	0.9198
3244	0.9183
3235	0.9181
3226	0.9154
3217	0.9158
3208	0.9133
3199	0.9132
3190	0.9116
3181	0.9095
3172	0.9075
3163	0.907
3154	0.9045
3145	0.9004
3136	0.8996
3127	0.8908
3118	0.8805
3109	0.851
3100	0.7479
3091	0.6531
3082	0.7046
3073	0.7863
3064	0.8161
3055	0.8184
3046	0.8082
3037	0.7538
3028	0.6766
3019	0.7086
3010	0.726
3001	0.6923
2992	0.6062
2983	0.642
2974	0.691
2965	0.6669
2956	0.5544
2947	0.5099
2938	0.6002
2929	0.6972
2920	0.7843
2911	0.8013
2902	0.7924
2893	0.7638
2884	0.7397
2875	0.7667
2866	0.8145
2857	0.8387
2848	0.8546
2839	0.8699
2830	0.881
2821	0.8863
2812	0.8854
2803	0.8894
2794	0.8919
2785	0.8937
2776	0.8973
2767	0.8984
2758	0.8974
2749	0.8949
2740	0.8914
2731	0.8878
2722	0.8836
2713	0.8861
2704	0.8892
2695	0.8919
2686	0.8941
2677	0.8952
2668	0.8955
2659	0.8957
2650	0.896
2641	0.896
2632	0.8959
2623	0.8948
2614	0.8938
2605	0.8926
2596	0.8913
2587	0.8897
2578	0.8933
2569	0.8972
2560	0.8994
2551	0.9004
2542	0.9017
2533	0.9014
2524	0.9006
2515	0.8992
2506	0.896
2497	0.8926
2488	0.8878
2479	0.8842
2470	0.8793
2461	0.8762
2452	0.8732
2443	0.8753
2434	0.8796
2425	0.884
2416	0.8857
2407	0.8843
2398	0.8879
2389	0.8905
2380	0.8939
2371	0.8956
2362	0.8905
2353	0.8928
2344	0.8899
2335	0.8861
2326	0.8898
2317	0.8913
2308	0.8907
2299	0.8885
2290	0.8871
2281	0.8817
2272	0.8808
2263	0.88
2254	0.8805
2245	0.8841
2236	0.8876
2227	0.8861
2218	0.8818
2209	0.8794
2200	0.8821
2191	0.8851
2182	0.8883
2173	0.8844
2164	0.8755
2155	0.8681
2146	0.8607
2137	0.856
2128	0.8562
2119	0.8593
2110	0.8635
2101	0.8679
2092	0.8726
2083	0.87
2074	0.8557
2065	0.8377
2056	0.8445
2047	0.8517
2038	0.858
2029	0.8606
2020	0.8633
2011	0.8614
2002	0.8584
1993	0.855
1984	0.8572
1975	0.8616
1966	0.8711
1957	0.872
1948	0.8576
1939	0.8505
1930	0.8443
1921	0.8388
1912	0.8347
1903	0.8323
1894	0.8253
1885	0.8048
1876	0.7895
1867	0.7725
1858	0.7805
1849	0.7847
1840	0.7891
1831	0.7935
1822	0.7705
1813	0.7358
1804	0.7011
1795	0.6675
1786	0.6133
1777	0.5373
1768	0.2848
1759	0.0891
1750	0.0113
1741	0.0109
1732	0.0912
1723	0.2581
1714	0.3889
1705	0.4899
1696	0.64
1687	0.6876
1678	0.7199
1669	0.7331
1660	0.705
1651	0.4403
1642	0.7238
1633	0.786
1624	0.7968
1615	0.8116
1606	0.8247
1597	0.8341
1588	0.8058
1579	0.8064
1570	0.7612
1561	0.7319
1552	0.7806
1543	0.8038
1534	0.7925
1525	0.7934
1516	0.7983
1507	0.7919
1498	0.7776
1489	0.7647
1480	0.7434
1471	0.6208
1462	0.4403
1453	0.3917
1444	0.3848
1435	0.4248
1426	0.3951
1417	0.4737
1408	0.5934
1399	0.5823
1390	0.4073
1381	0.1522
1372	0.0438
1363	0.365
1354	0.6137
1345	0.7083
1336	0.7371
1327	0.742
1318	0.7333
1309	0.6919
1300	0.6334
1291	0.4257
1282	0.3909
1273	0.1619
1264	0.1694
1255	0.0808
1246	0.0156
1237	0.0107
1228	0.0077
1219	0.0128
1210	0.2429
1201	0.4991
1192	0.596
1183	0.6605
1174	0.72
1165	0.7239
1156	0.7595
1147	0.7993
1138	0.8087
1129	0.8022
1120	0.7636
1111	0.6918
1102	0.5322
1093	0.6044
1084	0.6353
1075	0.6314
1066	0.5912
1057	0.489
1048	0.2963
1039	0.1504
1030	0.0353
1021	0.1271
1012	0.2844
1003	0.359
994	0.2998
985	0.1341
976	0.3803
967	0.583
958	0.6488
949	0.6774
940	0.4945
931	0.0984
922	0.2198
913	0.4796
904	0.683
895	0.6803
886	0.7838
877	0.8555
868	0.8739
859	0.8818
850	0.8713
841	0.7866
832	0.7236
823	0.8819
814	0.9225
805	0.9369
796	0.9417
787	0.9431
778	0.943
769	0.9404
760	0.9355
751	0.9313
742	0.9243
733	0.9169
724	0.9129
715	0.9053
706	0.895
697	0.8825
688	0.872
679	0.8623
670	0.8557
661	0.8411
652	0.8192
643	0.7995
634	0.7442
625	0.6839
616	0.6099
607	0.5196
598	0.5957
589	0.7311
580	0.7872
571	0.7935
562	0.7875
553	0.7303
544	0.7537
535	0.8032
526	0.8206
517	0.8188
508	0.8093
499	0.7972
490	0.7822
481	0.7634
472	0.7429
463	0.7547
454	0.7764
445	0.7837
436	0.774
427	0.7485
418	0.7043
409	0.5302
400	0.2271
391	0.1685
