Infrared Spectrum: ALLYL ACETATE
Formula: C5 H8 O2
CAS: 591-87-7
State: SOLUTION (10% IN CCl4 FOR 3800-1300, 2% IN CS2 FOR 1300-650, AND 10% CCl4 FOR 650-230 CM^-^1) VERSUS SOLVENT
Class: COBLENTZ
Instrument: Not specified, most likely a grating or hybrid spectrometer.
Sampling: TRANSMISSION
Path length: 0.011, 0.011, AND 0.011 CM (CsBr CELL)
Resolution: 4
Origin: DOW CORNING CORP.
1/CM	TRANSMITTANCE
235.371	0.57
245.196	0.567
255.022	0.571
264.847	0.575
274.672	0.573
284.498	0.581
294.323	0.612
304.148	0.633
313.974	0.663
323.799	0.672
333.624	0.632
343.45	0.63
353.275	0.704
363.1	0.727
372.926	0.731
382.751	0.753
392.576	0.757
402.402	0.744
412.227	0.723
422.052	0.763
431.878	0.766
441.703	0.766
451.528	0.761
461.354	0.75
471.179	0.758
481.004	0.774
490.83	0.795
500.655	0.813
510.48	0.813
520.306	0.805
530.131	0.787
539.956	0.75
549.782	0.723
559.607	0.762
569.432	0.767
579.258	0.758
589.083	0.665
598.908	0.51
608.734	0.598
618.559	0.651
628.384	0.689
638.21	0.759
648.035	0.818
657.86	0.867
667.686	0.883
677.511	0.891
687.336	0.893
697.162	0.9
706.987	0.911
716.812	0.912
726.638	0.912
736.463	0.914
746.288	0.914
756.114	0.915
765.939	0.919
775.764	0.916
785.59	0.915
795.415	0.912
805.24	0.904
815.066	0.881
824.891	0.817
834.716	0.826
844.542	0.851
854.367	0.853
864.192	0.853
874.018	0.842
883.843	0.822
893.668	0.81
903.494	0.8
913.319	0.667
923.145	0.548
932.97	0.688
942.795	0.818
952.621	0.809
962.446	0.769
972.271	0.73
982.097	0.579
991.922	0.706
1001.75	0.706
1011.57	0.622
1021.4	0.422
1031.22	0.48
1041.05	0.605
1050.87	0.707
1060.7	0.731
1070.52	0.797
1080.35	0.801
1090.18	0.777
1100	0.793
1109.83	0.852
1119.65	0.867
1129.48	0.873
1139.3	0.876
1149.13	0.871
1158.95	0.859
1168.78	0.848
1178.6	0.828
1188.43	0.778
1198.25	0.689
1208.08	0.485
1217.9	0.099
1227.73	0.052
1237.56	0.166
1247.38	0.422
1257.21	0.565
1267.03	0.582
1276.86	0.73
1286.68	0.758
1296.51	0.832
1306.33	0.833
1316.16	0.817
1325.98	0.789
1335.81	0.746
1345.63	0.692
1355.46	0.4989
1365.28	0.144
1375.11	0.049
1384.94	0.2511
1394.76	0.4671
1404.59	0.571
1414.41	0.468
1424.24	0.416
1434.06	0.426
1443.89	0.386
1453.71	0.401
1463.54	0.455
1473.36	0.626
1483.19	0.712
1493.01	0.759
1502.84	0.769
1512.66	0.779
1522.49	0.781
1532.32	0.809
1542.14	0.833
1551.97	0.838
1561.79	0.832
1571.62	0.83
1581.44	0.826
1591.27	0.809
1601.09	0.794
1610.92	0.783
1620.74	0.769
1630.57	0.754
1640.39	0.71
1650.22	0.455
1660.04	0.683
1669.87	0.7
1679.7	0.669
1689.52	0.641
1699.35	0.5459
1709.17	0.448
1719	0.331
1728.82	0.0849
1738.65	0
1748.47	0
1758.3	0.014
1768.12	0.2181
1777.95	0.472
1787.77	0.574
1797.6	0.632
1807.42	0.692
1817.25	0.728
1827.08	0.758
1836.9	0.763
1846.73	0.762
1856.55	0.761
1866.38	0.754
1876.2	0.778
1886.03	0.8
1895.85	0.81
1905.68	0.817
1915.5	0.818
1925.33	0.82
1935.15	0.825
1944.98	0.832
1954.8	0.83
1964.63	0.83
1974.46	0.832
1984.28	0.828
1994.11	0.828
2003.93	0.833
2013.76	0.841
2023.58	0.844
2033.41	0.84
2043.23	0.836
2053.06	0.83
2062.88	0.83
2072.71	0.841
2082.53	0.848
2092.36	0.849
2102.18	0.845
2112.01	0.834
2121.84	0.832
2131.66	0.833
2141.49	0.838
2151.31	0.845
2161.14	0.851
2170.96	0.857
2180.79	0.859
2190.61	0.855
2200.44	0.855
2210.26	0.855
2220.09	0.855
2229.91	0.857
2239.74	0.853
2249.56	0.853
2259.39	0.853
2269.22	0.856
2279.04	0.86
2288.87	0.861
2298.69	0.861
2308.52	0.861
2318.34	0.861
2328.17	0.86
2337.99	0.861
2347.82	0.86
2357.64	0.863
2367.47	0.861
2377.29	0.861
2387.12	0.859
2396.94	0.855
2406.77	0.855
2416.6	0.853
2426.42	0.852
2436.25	0.852
2446.07	0.851
2455.9	0.849
2465.72	0.853
2475.55	0.857
2485.37	0.859
2495.2	0.859
2505.02	0.86
2514.85	0.861
2524.67	0.865
2534.5	0.865
2544.32	0.865
2554.15	0.864
2563.98	0.864
2573.8	0.861
2583.63	0.86
2593.45	0.861
2603.28	0.863
2613.1	0.863
2622.93	0.867
2632.75	0.865
2642.58	0.865
2652.4	0.867
2662.23	0.867
2672.05	0.867
2681.88	0.865
2691.7	0.864
2701.53	0.861
2711.36	0.859
2721.18	0.856
2731.01	0.857
2740.83	0.86
2750.66	0.861
2760.48	0.86
2770.31	0.86
2780.13	0.86
2789.96	0.86
2799.78	0.857
2809.61	0.853
2819.43	0.852
2829.26	0.844
2839.08	0.833
2848.91	0.82
2858.74	0.789
2868.56	0.765
2878.39	0.6612
2888.21	0.68
2898.04	0.695
2907.86	0.728
2917.69	0.699
2927.51	0.606
2937.34	0.4911
2947.16	0.452
2956.99	0.485
2966.81	0.476
2976.64	0.499
2986.47	0.53
2996.29	0.601
3006.12	0.693
3015.94	0.691
3025.77	0.669
3035.59	0.753
3045.42	0.793
3055.24	0.794
3065.07	0.785
3074.89	0.7281
3084.72	0.649
3094.54	0.6949
3104.37	0.808
3114.19	0.8639
3124.02	0.872
3133.85	0.877
3143.67	0.884
3153.5	0.887
3163.32	0.889
3173.15	0.891
3182.97	0.892
3192.8	0.893
3202.62	0.895
3212.45	0.896
3222.27	0.897
3232.1	0.899
3241.92	0.899
3251.75	0.899
3261.57	0.896
3271.4	0.896
3281.23	0.896
3291.05	0.895
3300.88	0.895
3310.7	0.892
3320.53	0.892
3330.35	0.891
3340.18	0.891
3350	0.891
3359.83	0.889
3369.65	0.889
3379.48	0.889
3389.3	0.888
3399.13	0.885
3408.95	0.883
3418.78	0.88
3428.61	0.876
3438.43	0.864
3448.26	0.846
3458.08	0.826
3467.91	0.824
3477.73	0.836
3487.56	0.864
3497.38	0.871
3507.21	0.873
3517.03	0.872
3526.86	0.871
3536.68	0.871
3546.51	0.872
3556.33	0.873
3566.16	0.875
3575.99	0.877
3585.81	0.884
3595.64	0.887
3605.46	0.888
3615.29	0.887
3625.11	0.887
3634.94	0.885
3644.76	0.885
3654.59	0.885
3664.41	0.883
3674.24	0.868
3684.06	0.872
3693.89	0.887
3703.71	0.891
3713.54	0.895
3723.37	0.896
3733.19	0.893
3743.02	0.891
3752.84	0.896
3762.67	0.899
3772.49	0.897
3782.32	0.896
