Infrared Spectrum: PHENOL, 3-BROMO-
Formula: C6 H5 Br O
CAS: 591-20-8
State: SOLUTION (10% IN CCl4 FOR 3800-1333, 10% IN CS2 FOR 1333-400 CM^-^1)
Class: COBLENTZ III
Instrument: DOW KBr FOREPRISM-GRATING
Instrument parameters: BLAZED AT 3.5, 12.0, 20.0 MICRON, CHANGED AT 5.0, 7.5, 14.9 MICRON
Sampling: TRANSMISSION
Path length: 0.011, 0.011 CM
Resolution: 4
Origin: DOW CHEMICAL COMPANY
1/CM	TRANSMITTANCE
383.546	0.308
392.237	0.329
400.927	0.404
409.618	0.658
418.308	0.795
426.999	0.81
435.69	0.6
444.38	0.746
453.071	0.906
461.762	0.941
470.452	0.951
479.143	0.957
487.833	0.96
496.524	0.953
505.215	0.941
513.905	0.929
522.596	0.906
531.287	0.765
539.977	0.885
548.668	0.908
557.358	0.908
566.049	0.917
574.74	0.915
583.43	0.915
592.121	0.91
600.812	0.908
609.502	0.903
618.193	0.896
626.883	0.893
635.574	0.882
644.265	0.853
652.955	0.831
661.646	0.816
670.337	0.651
679.027	0.219
687.718	0.723
696.408	0.858
705.099	0.888
713.79	0.906
722.48	0.908
731.171	0.884
739.862	0.908
748.552	0.888
757.243	0.819
765.933	0.202
774.624	0.1251
783.315	0.731
792.005	0.9
800.696	0.934
809.387	0.945
818.077	0.949
826.768	0.93
835.458	0.814
844.149	0.551
852.84	0.397
861.53	0.039
870.221	0.326
878.911	0.506
887.602	0.817
896.293	0.952
904.983	0.985
913.674	0.998
922.365	1.005
931.055	1.01
939.746	1.013
948.436	1.009
957.127	0.994
965.818	1.004
974.508	1.005
983.199	0.983
991.89	0.814
1000.58	0.821
1009.27	1.009
1017.96	1.014
1026.65	1.012
1035.34	1.008
1044.03	1
1052.72	0.955
1061.41	0.44
1070.11	0.884
1078.8	0.87
1087.49	0.6681
1096.18	0.959
1104.87	0.964
1113.56	0.948
1122.25	0.917
1130.94	0.917
1139.63	0.87
1148.32	0.768
1157.01	0.349
1165.7	0.429
1174.39	0.276
1183.08	0.341
1191.77	0.461
1200.46	0.478
1209.16	0.48
1217.85	0.51
1226.54	0.561
1235.23	0.506
1243.92	0.287
1252.61	0.374
1261.3	0.736
1269.99	0.854
1278.68	0.872
1287.37	0.706
1296.06	0.263
1304.75	0.643
1313.44	0.601
1322.13	0.67
1330.82	0.717
1339.51	0.737
1348.21	0.782
1356.9	0.817
1365.59	0.848
1374.28	0.874
1382.97	0.921
1391.66	0.929
1400.35	0.889
1409.04	0.874
1417.73	0.88
1426.42	0.774
1435.11	0.537
1443.8	0.368
1452.49	0.42
1461.18	0.525
1469.87	0.462
1478.56	0.029
1487.26	0.137
1495.95	0.768
1504.64	0.79
1513.33	0.755
1522.02	0.636
1530.71	0.612
1539.4	0.567
1548.09	0.497
1556.78	0.487
1565.47	0.525
1574.16	0.461
1582.85	0.078
1591.54	0.057
1600.23	0.089
1608.92	0.223
1617.61	0.693
1626.31	0.832
1635	0.91
1643.69	0.953
1652.38	0.959
1661.07	0.975
1669.76	0.976
1678.45	0.983
1687.14	0.986
1695.83	0.989
1704.52	0.997
1713.21	0.994
1721.9	0.991
1730.59	0.982
1739.28	0.997
1747.97	0.997
1756.66	1.008
1765.35	1.016
1774.05	1.02
1782.74	1.024
1791.43	1.021
1800.12	1.023
1808.81	1.019
1817.5	1.01
1826.19	1.006
1834.88	1
1843.57	0.997
1852.26	1.014
1860.95	1.012
1869.64	1.023
1878.33	1.027
1887.02	1.027
1895.71	1.025
1904.4	1.02
1913.1	1.001
1921.79	0.991
1930.48	1.009
1939.17	1.025
1947.86	1.029
1956.55	1.034
1965.24	1.031
1973.93	1.028
1982.62	1.025
1991.31	1.023
2000	1
2008.69	0.997
2017.38	0.997
2026.07	0.994
2034.76	0.994
2043.45	0.9899
2052.15	0.994
2060.84	0.994
2069.53	0.994
2078.22	0.994
2086.91	0.995
2095.6	0.993
2104.29	0.9861
2112.98	0.98
2121.67	0.98
2130.36	0.9858
2139.05	0.991
2147.74	0.993
2156.43	0.993
2165.12	0.9938
2173.81	0.9966
2182.5	0.998
2191.2	0.998
2199.89	0.998
2208.58	0.998
2217.27	0.997
2225.96	0.995
2234.65	0.9943
2243.34	0.9903
2252.03	0.9876
2260.72	0.9836
2269.41	0.9793
2278.1	0.976
2286.79	0.974
2295.48	0.97
2304.17	0.9674
2312.86	0.9644
2321.55	0.9571
2330.25	0.952
2338.94	0.949
2347.63	0.955
2356.32	0.959
2365.01	0.9621
2373.7	0.9646
2382.39	0.9716
2391.08	0.975
2399.77	0.974
2408.46	0.971
2417.15	0.966
2425.84	0.964
2434.53	0.9635
2443.22	0.9565
2451.91	0.9525
2460.6	0.951
2469.3	0.9539
2477.99	0.957
2486.68	0.961
2495.37	0.9658
2504.06	0.971
2512.75	0.972
2521.44	0.971
2530.13	0.9662
2538.82	0.9623
2547.51	0.9583
2556.2	0.959
2564.89	0.96
2573.58	0.96
2582.27	0.959
2590.96	0.9593
2599.65	0.961
2608.35	0.961
2617.04	0.961
2625.73	0.961
2634.42	0.9582
2643.11	0.955
2651.8	0.951
2660.49	0.9476
2669.18	0.942
2677.87	0.941
2686.56	0.944
2695.25	0.951
2703.94	0.953
2712.63	0.9547
2721.32	0.9507
2730.01	0.9511
2738.7	0.953
2747.4	0.953
2756.09	0.9529
2764.78	0.9489
2773.47	0.942
2782.16	0.9358
2790.85	0.9329
2799.54	0.931
2808.23	0.9331
2816.92	0.938
2825.61	0.941
2834.3	0.942
2842.99	0.944
2851.68	0.941
2860.37	0.94
2869.06	0.941
2877.75	0.94
2886.45	0.937
2895.14	0.933
2903.83	0.9291
2912.52	0.9192
2921.21	0.9083
2929.9	0.8991
2938.59	0.902
2947.28	0.907
2955.97	0.91
2964.66	0.9097
2973.35	0.9137
2982.04	0.9153
2990.73	0.9112
2999.42	0.902
3008.11	0.8874
3016.8	0.8603
3025.5	0.8406
3034.19	0.838
3042.88	0.8342
3051.57	0.8123
3060.26	0.7935
3068.95	0.7897
3077.64	0.7972
3086.33	0.8097
3095.02	0.816
3103.71	0.8193
3112.4	0.8106
3121.09	0.7992
3129.78	0.788
3138.47	0.776
3147.16	0.7617
3155.85	0.7454
3164.55	0.7321
3173.24	0.7177
3181.93	0.7048
3190.62	0.6924
3199.31	0.6832
3208	0.6668
3216.69	0.6513
3225.38	0.6373
3234.07	0.6188
3242.76	0.5994
3251.45	0.5833
3260.14	0.5654
3268.83	0.5505
3277.52	0.537
3286.21	0.524
3294.9	0.516
3303.6	0.5065
3312.29	0.4995
3320.98	0.491
3329.67	0.4867
3338.36	0.4791
3347.05	0.4751
3355.74	0.469
3364.43	0.4656
3373.12	0.463
3381.81	0.461
3390.5	0.458
3399.19	0.459
3407.88	0.4637
3416.57	0.469
3425.26	0.4763
3433.95	0.4843
3442.65	0.4913
3451.34	0.5026
3460.03	0.5119
3468.72	0.5224
3477.41	0.5378
3486.1	0.5608
3494.79	0.5892
3503.48	0.609
3512.17	0.6295
3520.86	0.6441
3529.55	0.6596
3538.24	0.6692
3546.93	0.669
3555.62	0.6606
3564.31	0.6413
3573	0.6072
3581.7	0.5485
3590.39	0.4215
3599.08	0.2967
3607.77	0.3814
3616.46	0.6572
3625.15	0.8009
3633.84	0.8512
3642.53	0.8477
3651.22	0.8289
3659.91	0.8138
3668.6	0.8021
3677.29	0.8344
3685.98	0.8682
3694.67	0.9121
3703.36	0.948
3712.05	0.965
3720.75	0.974
3729.44	0.975
3738.13	0.975
3746.82	0.976
3755.51	0.982
3764.2	0.986
3772.89	0.989
3781.58	0.9912
3790.27	0.9872
