Infrared Spectrum: TETRAMETHYL TIN
Formula: C4 H12 Sn
CAS: 594-27-4
State: SOLUTION (10% IN CCl4 FOR 3800-1330 CM^-^1, 10% IN CS2 FOR 1330-400 CM^-^1)
Boiling point: 78 C
Class: COBLENTZ
Instrument: DOW KBr FOREPRISM-GRATING
Instrument parameters: GRATING BLAZED AT 3.5, 12.0, 20.0 MICRONS AND CHANGED AT 5.0, 7.5, 14.9 MICRONS
Sampling: TRANSMISSION
Path length: 0.011 CM, 0.011 CM
Resolution: 4
Origin: DOW CHEMICAL COMPANY
1/CM	TRANSMITTANCE
380.617	0.253
389.428	0.261
398.238	0.31
407.049	0.504
415.859	0.746
424.67	0.826
433.481	0.869
442.291	0.897
451.102	0.919
459.912	0.937
468.723	0.948
477.534	0.957
486.344	0.95
495.155	0.926
503.965	0.887
512.776	0.747
521.587	0.13
530.397	0.0371
539.208	0.759
548.018	0.915
556.829	0.958
565.64	0.977
574.45	0.984
583.261	0.988
592.071	0.991
600.882	0.991
609.693	0.994
618.503	0.987
627.314	0.977
636.124	0.958
644.935	0.936
653.746	0.916
662.556	0.911
671.367	0.808
680.177	0.898
688.988	0.904
697.799	0.89
706.609	0.865
715.42	0.828
724.23	0.735
733.041	0.637
741.852	0.508
750.662	0.308
759.473	0.109
768.283	0.031
777.094	0.116
785.904	0.285
794.715	0.465
803.526	0.583
812.336	0.657
821.147	0.738
829.957	0.814
838.768	0.84
847.579	0.815
856.389	0.792
865.2	0.831
874.01	0.869
882.821	0.914
891.632	0.947
900.442	0.954
909.253	0.955
918.063	0.965
926.874	0.977
935.685	0.98
944.495	0.986
953.306	0.987
962.116	0.988
970.927	0.986
979.738	0.986
988.548	0.981
997.359	0.979
1006.17	0.976
1014.98	0.973
1023.79	0.961
1032.6	0.947
1041.41	0.955
1050.22	0.957
1059.03	0.947
1067.84	0.907
1076.65	0.934
1085.46	0.966
1094.28	0.972
1103.09	0.976
1111.9	0.977
1120.71	0.976
1129.52	0.972
1138.33	0.973
1147.14	0.966
1155.95	0.958
1164.76	0.954
1173.57	0.912
1182.38	0.806
1191.19	0.6342
1200	0.84
1208.81	0.891
1217.62	0.916
1226.43	0.929
1235.24	0.933
1244.06	0.933
1252.87	0.933
1261.68	0.932
1270.49	0.93
1279.3	0.926
1288.11	0.922
1296.92	0.916
1305.73	0.912
1314.54	0.901
1323.35	0.896
1332.16	0.891
1340.97	0.887
1349.78	0.891
1358.59	0.903
1367.4	0.911
1376.21	0.904
1385.03	0.89
1393.84	0.872
1402.65	0.857
1411.46	0.846
1420.27	0.843
1429.08	0.833
1437.89	0.821
1446.7	0.814
1455.51	0.829
1464.32	0.844
1473.13	0.857
1481.94	0.832
1490.75	0.847
1499.56	0.817
1508.37	0.761
1517.18	0.706
1525.99	0.666
1534.81	0.616
1543.62	0.518
1552.43	0.477
1561.24	0.5261
1570.05	0.617
1578.86	0.655
1587.67	0.674
1596.48	0.759
1605.29	0.849
1614.1	0.898
1622.91	0.923
1631.72	0.934
1640.53	0.94
1649.34	0.945
1658.15	0.951
1666.96	0.951
1675.77	0.954
1684.59	0.943
1693.4	0.9069
1702.21	0.922
1711.02	0.916
1719.83	0.911
1728.64	0.934
1737.45	0.955
1746.26	0.959
1755.07	0.963
1763.88	0.963
1772.69	0.963
1781.5	0.963
1790.31	0.962
1799.12	0.958
1807.93	0.954
1816.74	0.955
1825.56	0.955
1834.37	0.955
1843.18	0.954
1851.99	0.95
1860.8	0.954
1869.61	0.957
1878.42	0.959
1887.23	0.959
1896.04	0.959
1904.85	0.962
1913.66	0.963
1922.47	0.961
1931.28	0.958
1940.09	0.955
1948.9	0.95
1957.71	0.95
1966.52	0.948
1975.34	0.947
1984.15	0.945
1992.96	0.943
2001.77	0.941
2010.58	0.94
2019.39	0.939
2028.2	0.937
2037.01	0.936
2045.82	0.936
2054.63	0.934
2063.44	0.933
2072.25	0.933
2081.06	0.933
2089.87	0.934
2098.68	0.934
2107.49	0.932
2116.3	0.933
2125.12	0.936
2133.93	0.934
2142.74	0.934
2151.55	0.934
2160.36	0.934
2169.17	0.936
2177.98	0.934
2186.79	0.934
2195.6	0.932
2204.41	0.932
2213.22	0.932
2222.03	0.9345
2230.84	0.936
2239.65	0.934
2248.46	0.934
2257.27	0.933
2266.08	0.9217
2274.9	0.922
2283.71	0.9184
2292.52	0.923
2301.33	0.9231
2310.14	0.932
2318.95	0.9508
2327.76	0.9546
2336.57	0.9506
2345.38	0.9441
2354.19	0.932
2363	0.932
2371.81	0.932
2380.62	0.932
2389.43	0.9375
2398.24	0.9445
2407.05	0.946
2415.87	0.948
2424.68	0.95
2433.49	0.952
2442.3	0.952
2451.11	0.952
2459.92	0.952
2468.73	0.952
2477.54	0.952
2486.35	0.952
2495.16	0.954
2503.97	0.955
2512.78	0.955
2521.59	0.954
2530.4	0.952
2539.21	0.952
2548.02	0.9526
2556.83	0.952
2565.65	0.952
2574.46	0.952
2583.27	0.952
2592.08	0.952
2600.89	0.952
2609.7	0.9548
2618.51	0.954
2627.32	0.954
2636.13	0.954
2644.94	0.954
2653.75	0.954
2662.56	0.954
2671.37	0.954
2680.18	0.955
2688.99	0.954
2697.8	0.954
2706.61	0.954
2715.43	0.952
2724.24	0.9482
2733.05	0.945
2741.86	0.943
2750.67	0.936
2759.48	0.932
2768.29	0.9211
2777.1	0.908
2785.91	0.896
2794.72	0.89
2803.53	0.882
2812.34	0.869
2821.15	0.8579
2829.96	0.8438
2838.77	0.8148
2847.58	0.7899
2856.39	0.7599
2865.21	0.7268
2874.02	0.6975
2882.83	0.6595
2891.64	0.5979
2900.45	0.4534
2909.26	0.3887
2918.07	0.4594
2926.88	0.5517
2935.69	0.642
2944.5	0.675
2953.31	0.6345
2962.12	0.4712
2970.93	0.3257
2979.74	0.287
2988.55	0.3835
2997.36	0.5689
3006.18	0.6817
3014.99	0.7713
3023.8	0.7853
3032.61	0.8003
3041.42	0.8341
3050.23	0.8516
3059.04	0.8627
3067.85	0.87
3076.66	0.8947
3085.47	0.9051
3094.28	0.9205
3103.09	0.9348
3111.9	0.9404
3120.71	0.9434
3129.52	0.9488
3138.33	0.9544
3147.14	0.9584
3155.96	0.963
3164.77	0.9655
3173.58	0.968
3182.39	0.97
3191.2	0.971
3200.01	0.972
3208.82	0.972
3217.63	0.972
3226.44	0.972
3235.25	0.972
3244.06	0.972
3252.87	0.973
3261.68	0.973
3270.49	0.975
3279.3	0.975
3288.11	0.975
3296.92	0.975
3305.74	0.975
3314.55	0.975
3323.36	0.975
3332.17	0.976
3340.98	0.976
3349.79	0.976
3358.6	0.976
3367.41	0.976
3376.22	0.975
3385.03	0.973
3393.84	0.972
3402.65	0.9728
3411.46	0.973
3420.27	0.973
3429.08	0.975
3437.89	0.976
3446.71	0.977
3455.52	0.977
3464.33	0.979
3473.14	0.9792
3481.95	0.9773
3490.76	0.979
3499.57	0.9732
3508.38	0.973
3517.19	0.976
3526	0.977
3534.81	0.979
3543.62	0.9771
3552.43	0.9771
3561.24	0.976
3570.05	0.976
3578.86	0.977
3587.67	0.98
3596.49	0.983
3605.3	0.986
3614.11	0.986
3622.92	0.984
3631.73	0.98
3640.54	0.979
3649.35	0.975
3658.16	0.9751
3666.97	0.977
3675.78	0.977
3684.59	0.9791
3693.4	0.984
3702.21	0.9871
3711.02	0.9901
3719.83	0.993
3728.64	0.994
3737.45	0.995
3746.27	0.997
3755.08	0.995
3763.89	1.0002
3772.7	1.0012
3781.51	1.006
3790.32	1.005
3799.13	1.004
