Infrared Spectrum: Nicotinic acid
Formula: C6 H5 N O2
CAS: 59-67-6
State: SOLID (NUJOL MULL)
Melting point: 236.6 C
Class: COBLENTZ III
Instrument: PERKIN-ELMER 21 (GRATING)
Resolution: 2
Origin: THE SQUIBB INSTITUTE FOR MEDICAL RESEARCH
1/CM	TRANSMITTANCE
658	0.9577
667	0.9547
676	0.9586
685	0.9282
694	0.6315
703	0.9872
712	1.0008
721	0.9997
730	0.9849
739	0.9449
748	0.4642
757	0.9271
766	0.9424
775	0.9301
784	0.9098
793	0.8898
802	0.8504
811	0.4693
820	0.9394
829	0.856
838	0.9292
847	0.9668
856	0.9584
865	0.9464
874	0.9333
883	0.9244
892	0.9167
901	0.9066
910	0.8937
919	0.8844
928	0.8756
937	0.8589
946	0.8372
955	0.8108
964	0.8397
973	0.8251
982	0.8064
991	0.7837
1000	0.7548
1009	0.7188
1018	0.6388
1027	0.4777
1036	0.418
1045	0.5955
1054	0.7368
1063	0.7319
1072	0.708
1081	0.6238
1090	0.5676
1099	0.6618
1108	0.5892
1117	0.5788
1126	0.6657
1135	0.5862
1144	0.6757
1153	0.682
1162	0.6644
1171	0.6085
1180	0.4629
1189	0.5992
1198	0.7012
1207	0.6641
1216	0.6274
1225	0.5964
1234	0.5678
1243	0.5478
1252	0.528
1261	0.4855
1270	0.4283
1279	0.3775
1288	0.3
1297	0.1616
1306	0.2931
1315	0.2454
1324	0.2013
1333	0.5486
1342	0.683
1351	0.7319
1360	0.726
1369	0.7029
1378	0.7055
1387	0.7169
1396	0.6811
1405	0.5907
1414	0.4195
1423	0.6299
1432	0.7498
1441	0.7283
1450	0.7133
1459	0.7285
1468	0.7426
1477	0.7092
1486	0.7061
1495	0.7181
1504	0.744
1513	0.7433
1522	0.7415
1531	0.7381
1540	0.7337
1549	0.7264
1558	0.7149
1567	0.6978
1576	0.6657
1585	0.5596
1594	0.4379
1603	0.7779
1612	0.7736
1621	0.7567
1630	0.7338
1639	0.7107
1648	0.6787
1657	0.632
1666	0.5985
1675	0.5583
1684	0.3771
1693	0.3024
1702	0.2451
1711	0.2437
1720	0.2731
1729	0.333
1738	0.429
1747	0.4994
1756	0.5359
1765	0.5973
1774	0.6199
1783	0.6261
1792	0.6266
1801	0.6226
1810	0.6133
1819	0.6052
1828	0.5972
1837	0.5907
1846	0.5847
1855	0.58
1864	0.5767
1873	0.5744
1882	0.573
1891	0.5727
1900	0.5739
1909	0.5752
1918	0.5769
1927	0.5788
1936	0.5779
1945	0.5866
1954	0.6004
1963	0.615
1972	0.6307
1981	0.6554
1990	0.6769
1999	0.6836
2008	0.6884
2017	0.6933
2026	0.701
2035	0.7141
2044	0.7282
2053	0.7366
2062	0.744
2071	0.7511
2080	0.7572
2089	0.7634
2098	0.7676
2107	0.7703
2116	0.7718
2125	0.7699
2134	0.767
2143	0.7636
2152	0.7602
2161	0.7558
2170	0.7506
2179	0.7429
2188	0.7342
2197	0.7236
2206	0.7107
2215	0.6964
2224	0.6851
2233	0.6744
2242	0.665
2251	0.6557
2260	0.6445
2269	0.6304
2278	0.6157
2287	0.5992
2296	0.5828
2305	0.5667
2314	0.5534
2323	0.5433
2332	0.5381
2341	0.5341
2350	0.5313
2359	0.5285
2368	0.5271
2377	0.5261
2386	0.5255
2395	0.5254
2404	0.5264
2413	0.5268
2422	0.5289
2431	0.5325
2440	0.5374
2449	0.544
2458	0.5523
2467	0.562
2476	0.5723
2485	0.5826
2494	0.5928
2503	0.6035
2512	0.6147
2521	0.6261
2530	0.6379
2539	0.6502
2548	0.6647
2557	0.6771
2566	0.6875
2575	0.6958
2584	0.7003
2593	0.7036
2602	0.7081
2611	0.7149
2620	0.7219
2629	0.7339
2638	0.7453
2647	0.7548
2656	0.7609
2665	0.7649
2674	0.7665
2683	0.7669
2692	0.7668
2701	0.7661
2710	0.7655
2719	0.7641
2728	0.7618
2737	0.7587
2746	0.7535
2755	0.7465
2764	0.7379
2773	0.7246
2782	0.7085
2791	0.6739
2800	0.6315
2809	0.5892
2818	0.5473
2827	0.5234
2836	0.5194
2845	0.5117
2854	0.479
2863	0.4558
2872	0.4446
2881	0.4431
2890	0.4496
2899	0.4951
2908	0.5186
2917	0.5517
2926	0.6353
2935	0.7188
2944	0.7637
2953	0.7789
2962	0.7924
2971	0.802
2980	0.8072
2989	0.8096
2998	0.8108
3007	0.811
3016	0.8104
3025	0.8102
3034	0.8103
3043	0.8112
3052	0.8136
3061	0.8212
3070	0.8421
3079	0.853
3088	0.8544
3097	0.8545
3106	0.8543
3115	0.854
3124	0.8536
3133	0.8531
3142	0.8527
3151	0.8523
3160	0.8519
3169	0.8514
3178	0.8507
3187	0.8501
3196	0.8494
3205	0.8488
3214	0.8481
3223	0.8473
3232	0.8465
3241	0.8457
3250	0.8449
3259	0.8441
3268	0.8432
3277	0.8424
3286	0.8416
3295	0.8406
3304	0.8398
3313	0.839
3322	0.8383
3331	0.8379
3340	0.8375
3349	0.837
3358	0.8366
3367	0.8364
3376	0.836
3385	0.8358
3394	0.8358
3403	0.8359
3412	0.836
3421	0.8361
3430	0.8362
3439	0.8362
3448	0.836
3457	0.8356
3466	0.8352
3475	0.8348
3484	0.8341
3493	0.8332
3502	0.8325
3511	0.8318
3520	0.831
3529	0.8302
3538	0.8295
3547	0.8287
3556	0.8278
3565	0.8268
3574	0.8258
3583	0.8249
3592	0.8239
3601	0.8231
3610	0.8221
3619	0.8212
3628	0.8203
3637	0.8194
3646	0.8183
3655	0.8171
3664	0.816
3673	0.8149
3682	0.8138
3691	0.8127
3700	0.8116
3709	0.8105
3718	0.8094
3727	0.8084
3736	0.8073
3745	0.8062
3754	0.8051
3763	0.8041
3772	0.803
3781	0.8019
3790	0.8008
3799	0.7996
3808	0.7985
3817	0.7973
3826	0.7962
3835	0.7952
3844	0.794
3853	0.7929
3862	0.7918
3871	0.7907
3880	0.7896
3889	0.7885
3898	0.7875
3907	0.7864
3916	0.7852
3925	0.784
3934	0.7827
3943	0.7816
3952	0.7803
3961	0.7792
3970	0.7779
3979	0.7768
3988	0.7756
3997	0.7744
