Infrared Spectrum: PROPYL SULFONE
Formula: C6 H14 O2 S
CAS: 598-03-8
State: SOLUTION (10% CCl4 FOR 2-7.5, 10% CS2 FOR 7.5-16 MICRON) VS SOLVENT
Class: COBLENTZ III
Instrument: BAIRD (PRISM)
Instrument parameters: NaCl PRISM
Sampling: TRANSMISSION
Path length: 0.012 CM, 0.012 CM
Resolution: 2
Origin: DOW CHEMICAL COMPANY
MICROMETERS	TRANSMITTANCE
1.972	0.9
2.01099	0.9
2.04998	0.898
2.08898	0.899
2.12797	0.902
2.16696	0.903
2.20595	0.888
2.24495	0.859
2.28394	0.853
2.32293	0.874
2.36192	0.875
2.40092	0.875
2.43991	0.883
2.4789	0.891
2.51789	0.905
2.55688	0.913
2.59588	0.898
2.63487	0.898
2.67386	0.903
2.71285	0.883
2.75185	0.887
2.79084	0.878
2.82983	0.869
2.86882	0.892
2.90782	0.896
2.94681	0.894
2.9858	0.892
3.02479	0.886
3.06378	0.881
3.10278	0.88
3.14177	0.874
3.18076	0.883
3.21975	0.875
3.25875	0.854
3.29774	0.787
3.33673	0.503
3.37572	0.204
3.41472	0.468
3.45371	0.498
3.4927	0.817
3.53169	0.838
3.57068	0.87
3.60968	0.885
3.64867	0.878
3.68766	0.904
3.72665	0.898
3.76565	0.896
3.80464	0.908
3.84363	0.909
3.88262	0.911
3.92162	0.908
3.96061	0.91
3.9996	0.902
4.03859	0.899
4.07758	0.889
4.11658	0.883
4.15557	0.904
4.19456	0.911
4.23355	0.9
4.27255	0.911
4.31154	0.907
4.35053	0.908
4.38952	0.889
4.42852	0.898
4.46751	0.902
4.5065	0.914
4.54549	0.907
4.58448	0.908
4.62348	0.909
4.66247	0.907
4.70146	0.905
4.74045	0.905
4.77945	0.907
4.81844	0.913
4.85743	0.911
4.89642	0.907
4.93541	0.91
4.97441	0.909
5.0134	0.907
5.05239	0.916
5.09138	0.913
5.13038	0.915
5.16937	0.911
5.20836	0.914
5.24735	0.92
5.28635	0.915
5.32534	0.918
5.36433	0.92
5.40332	0.918
5.44231	0.915
5.48131	0.914
5.5203	0.918
5.55929	0.914
5.59828	0.91
5.63728	0.913
5.67627	0.91
5.71526	0.915
5.75425	0.904
5.79325	0.904
5.83224	0.91
5.87123	0.908
5.91022	0.902
5.94921	0.904
5.98821	0.904
6.0272	0.903
6.06619	0.891
6.10518	0.883
6.14418	0.886
6.18317	0.883
6.22216	0.902
6.26115	0.935
6.30015	0.942
6.33914	0.944
6.37813	0.948
6.41712	0.973
6.45611	0.981
6.49511	0.957
6.5341	0.957
6.57309	0.957
6.61208	0.903
6.65108	0.861
6.69007	0.825
6.72906	0.761
6.76805	0.561
6.80705	0.293
6.84604	0.355
6.88503	0.616
6.92402	0.738
6.96301	0.768
7.00201	0.733
7.041	0.568
7.07999	0.473
7.11898	0.661
7.15798	0.745
7.19697	0.65
7.23596	0.689
7.27495	0.784
7.31395	0.711
7.35294	0.523
7.39193	0.343
7.43092	0.402
7.46991	0.382
7.50891	0.198
7.5479	0.044
7.58689	0.03
7.62588	0.036
7.66488	0.072
7.70387	0.073
7.74286	0.046
7.78185	0.039
7.82085	0.193
7.85984	0.374
7.89883	0.427
7.93782	0.429
7.97681	0.385
8.01581	0.453
8.0548	0.57
8.09379	0.663
8.13278	0.69
8.17178	0.613
8.21077	0.555
8.24976	0.605
8.28875	0.654
8.32775	0.671
8.36674	0.732
8.40573	0.768
8.44472	0.776
8.48371	0.776
8.52271	0.766
8.5617	0.738
8.60069	0.7
8.63968	0.619
8.67868	0.475
8.71767	0.262
8.75666	0.075
8.79565	0.024
8.83465	0.017
8.87364	0.036
8.91263	0.168
8.95162	0.405
8.99061	0.536
9.02961	0.628
9.0686	0.628
9.10759	0.568
9.14658	0.522
9.18558	0.511
9.22457	0.547
9.26356	0.558
9.30255	0.537
9.34155	0.57
9.38054	0.575
9.41953	0.541
9.45852	0.533
9.49751	0.519
9.53651	0.523
9.5755	0.617
9.61449	0.683
9.65348	0.734
9.69248	0.787
9.73147	0.826
9.77046	0.843
9.80945	0.848
9.84845	0.856
9.88744	0.861
9.92643	0.869
9.96542	0.875
10.0044	0.88
10.0434	0.881
10.0824	0.882
10.1214	0.882
10.1604	0.883
10.1994	0.886
10.2384	0.887
10.2774	0.887
10.3164	0.887
10.3553	0.885
10.3943	0.883
10.4333	0.883
10.4723	0.887
10.5113	0.887
10.5503	0.881
10.5893	0.881
10.6283	0.881
10.6673	0.881
10.7063	0.881
10.7453	0.881
10.7843	0.88
10.8233	0.876
10.8622	0.866
10.9012	0.855
10.9402	0.815
10.9792	0.768
11.0182	0.724
11.0572	0.723
11.0962	0.771
11.1352	0.803
11.1742	0.82
11.2132	0.828
11.2522	0.843
11.2912	0.849
11.3302	0.854
11.3691	0.85
11.4081	0.838
11.4471	0.811
11.4861	0.759
11.5251	0.699
11.5641	0.625
11.6031	0.551
11.6421	0.477
11.6811	0.447
11.7201	0.492
11.7591	0.573
11.7981	0.619
11.8371	0.661
11.876	0.693
11.915	0.729
11.954	0.748
11.993	0.773
12.032	0.782
12.071	0.797
12.11	0.806
12.149	0.806
12.188	0.799
12.227	0.782
12.266	0.755
12.305	0.721
12.344	0.694
12.3829	0.672
12.4219	0.655
12.4609	0.654
12.4999	0.635
12.5389	0.605
12.5779	0.557
12.6169	0.49
12.6559	0.431
12.6949	0.382
12.7339	0.348
12.7729	0.359
12.8119	0.405
12.8509	0.469
12.8898	0.518
12.9288	0.573
12.9678	0.613
13.0068	0.639
13.0458	0.655
13.0848	0.667
13.1238	0.672
13.1628	0.673
13.2018	0.655
13.2408	0.633
13.2798	0.601
13.3188	0.559
13.3578	0.52
13.3967	0.484
13.4357	0.464
13.4747	0.455
13.5137	0.464
13.5527	0.496
13.5917	0.519
13.6307	0.551
13.6697	0.589
13.7087	0.621
13.7477	0.649
13.7867	0.666
13.8257	0.683
13.8647	0.696
13.9036	0.696
13.9426	0.695
13.9816	0.684
14.0206	0.674
14.0596	0.666
14.0986	0.663
14.1376	0.658
14.1766	0.641
14.2156	0.614
14.2546	0.586
14.2936	0.573
14.3326	0.569
14.3716	0.6
14.4105	0.65
14.4495	0.682
14.4885	0.732
14.5275	0.765
14.5665	0.792
14.6055	0.815
14.6445	0.825
14.6835	0.836
14.7225	0.843
14.7615	0.85
14.8005	0.86
14.8395	0.866
14.8785	0.871
14.9174	0.87
14.9564	0.867
14.9954	0.871
15.0344	0.874
15.0734	0.876
15.1124	0.876
15.1514	0.866
15.1904	0.85
15.2294	0.823
15.2684	0.81
15.3074	0.8
15.3464	0.797
15.3854	0.799
15.4243	0.801
15.4633	0.805
15.5023	0.817
15.5413	0.836
15.5803	0.849
15.6193	0.856
15.6583	0.858
15.6973	0.861
15.7363	0.866
15.7753	0.864
15.8143	0.865
15.8533	0.866
15.8923	0.867
