Infrared Spectrum: Diethyl ether
Formula: C 4 H 10 O
CAS: 60-29-7
State: liquid
Instrument: Bruker Tensor 27 FTIR
Resolution: 0.4821395
Origin: Pacific Northwest National Laboratory Under IARPA Contract
1/cm	dispersion index
7797.62	1.33831
7779.06	1.33831
7760.5	1.33831
7741.94	1.3383
7723.38	1.3383
7704.81	1.33829
7686.25	1.33828
7667.69	1.33827
7649.13	1.33827
7630.57	1.33826
7612.01	1.33825
7593.44	1.33824
7574.88	1.33823
7556.32	1.33822
7537.76	1.33822
7519.2	1.33821
7500.64	1.3382
7482.07	1.3382
7463.51	1.33819
7444.95	1.33818
7426.39	1.33817
7407.83	1.33816
7389.26	1.33815
7370.7	1.33814
7352.14	1.33813
7333.58	1.33812
7315.02	1.33811
7296.46	1.3381
7277.89	1.33809
7259.33	1.33808
7240.77	1.33806
7222.21	1.33805
7203.65	1.33804
7185.09	1.33803
7166.52	1.33801
7147.96	1.338
7129.4	1.33798
7110.84	1.33797
7092.28	1.33795
7073.71	1.33794
7055.15	1.33792
7036.59	1.3379
7018.03	1.33788
6999.47	1.33787
6980.91	1.33785
6962.34	1.33783
6943.78	1.3378
6925.22	1.33778
6906.66	1.33775
6888.1	1.33771
6869.54	1.33771
6850.97	1.33773
6832.41	1.3377
6813.85	1.33768
6795.29	1.33766
6776.73	1.33769
6758.16	1.33769
6739.6	1.33766
6721.04	1.33766
6702.48	1.33761
6683.92	1.33758
6665.36	1.33756
6646.79	1.33753
6628.23	1.33751
6609.67	1.33749
6591.11	1.33746
6572.55	1.33742
6553.99	1.33739
6535.42	1.33735
6516.86	1.33732
6498.3	1.33729
6479.74	1.33725
6461.18	1.33722
6442.61	1.33718
6424.05	1.33714
6405.49	1.3371
6386.93	1.33705
6368.37	1.33701
6349.81	1.33697
6331.24	1.33692
6312.68	1.33687
6294.12	1.33682
6275.56	1.33676
6257	1.33669
6238.44	1.33662
6219.87	1.33655
6201.31	1.33647
6182.75	1.33638
6164.19	1.33627
6145.63	1.33613
6127.06	1.33592
6108.5	1.33578
6089.94	1.33592
6071.38	1.33571
6052.82	1.33652
6034.26	1.3362
6015.69	1.33621
5997.13	1.33599
5978.57	1.33581
5960.01	1.33582
5941.45	1.33569
5922.89	1.33579
5904.32	1.33575
5885.76	1.33585
5867.2	1.33573
5848.64	1.33548
5830.08	1.33527
5811.51	1.33507
5792.95	1.3349
5774.39	1.33466
5755.83	1.33441
5737.27	1.33432
5718.71	1.33406
5700.14	1.33375
5681.58	1.33343
5663.02	1.33308
5644.46	1.33296
5625.9	1.33258
5607.34	1.33211
5588.77	1.33158
5570.21	1.33094
5551.65	1.33017
5533.09	1.32924
5514.53	1.32808
5495.96	1.32711
5477.4	1.32541
5458.84	1.32279
5440.28	1.31921
5421.72	1.31243
5403.16	1.29462
5384.59	1.35549
5366.03	1.33263
5347.47	1.31985
5328.91	1.35911
5310.35	1.37064
5291.79	1.36348
5273.22	1.35719
5254.66	1.35389
5236.1	1.35154
5217.54	1.34838
5198.98	1.3474
5180.41	1.34612
5161.85	1.3446
5143.29	1.34346
5124.73	1.34245
5106.17	1.34206
5087.61	1.34134
5069.04	1.3405
5050.48	1.33976
5031.92	1.33981
5013.36	1.33915
4994.8	1.33897
4976.24	1.33848
4957.67	1.338
4939.11	1.33741
4920.55	1.33652
4901.99	1.33544
4883.43	1.33485
4864.86	1.33625
4846.3	1.33568
4827.74	1.33459
4809.18	1.33354
4790.62	1.33242
4772.06	1.33168
4753.49	1.3303
4734.93	1.32909
4716.37	1.32733
4697.81	1.32497
4679.25	1.32183
4660.69	1.31621
4642.12	1.31448
4623.56	1.30835
4605	1.31524
4586.44	1.35171
4567.88	1.34834
4549.31	1.32028
4530.75	1.3212
4512.19	1.29911
4493.63	1.24972
4475.07	1.23495
4456.51	1.56393
4437.94	1.41024
4419.38	1.41215
4400.82	1.4
4382.26	1.37978
4363.7	1.37751
4345.14	1.37069
4326.57	1.35387
4308.01	1.37333
4289.45	1.37374
4270.89	1.36707
4252.33	1.36403
4233.76	1.36205
4215.2	1.36033
4196.64	1.35895
4178.08	1.35779
4159.52	1.35585
4140.96	1.35754
4122.39	1.35056
4103.83	1.35936
4085.27	5.02563e-05
4066.71	4.94774e-05
4048.15	4.98668e-05
4029.58	5.02563e-05
4011.02	4.86971e-05
3992.46	4.75288e-05
3973.9	4.86971e-05
3955.34	4.98668e-05
3936.78	4.83076e-05
3918.21	4.94774e-05
3899.65	5.64887e-05
3881.09	7.09037e-05
3862.53	6.9346e-05
3843.97	8.02546e-05
3825.41	9.15511e-05
3806.84	9.15511e-05
3788.28	9.38892e-05
3769.72	8.76553e-05
3751.16	8.0644e-05
3732.6	7.01248e-05
3714.03	6.9346e-05
3695.47	7.59678e-05
3676.91	7.32418e-05
3658.35	6.89565e-05
3639.79	6.46713e-05
3621.23	6.31121e-05
3602.66	5.96057e-05
3584.1	5.99951e-05
3565.54	5.76585e-05
3546.98	5.53204e-05
3528.42	5.33732e-05
3509.86	4.98668e-05
3491.29	4.79182e-05
3472.73	4.44118e-05
3454.17	4.09054e-05
3435.61	3.75172e-05
3417.05	3.58019e-05
3398.48	3.60367e-05
3379.92	3.60747e-05
3361.36	3.56079e-05
3342.8	3.53352e-05
3324.24	3.53746e-05
3305.68	3.78279e-05
3287.11	4.20752e-05
3268.55	4.12963e-05
3249.99	4.40224e-05
3231.43	4.98668e-05
3212.87	5.76585e-05
3194.31	8.57081e-05
3175.74	0.000333092
3157.18	0.000381401
3138.62	0.000231801
3120.06	0.000310498
3101.5	0.000380233
3082.93	0.000483082
3064.37	0.000357637
3045.81	0.000305821
3027.25	0.000239592
3008.69	0.00014921
2990.13	0.000157391
2971.56	0.000166352
2953	0.000157001
2934.44	0.000164793
2915.88	0.000158171
2897.32	0.000114537
2878.76	9.31103e-05
2860.19	8.49293e-05
2841.63	8.68764e-05
2823.07	9.93428e-05
2804.51	9.7785e-05
2785.95	0.000103239
2767.38	0.000101291
2748.82	9.62273e-05
2730.26	9.73956e-05
2711.7	8.49293e-05
2693.14	8.72659e-05
2674.58	0.000105577
2656.01	0.000104798
2637.45	0.000109083
2618.89	0.000109083
2600.33	9.31103e-05
2581.77	8.9604e-05
2563.21	8.14229e-05
2544.64	7.94742e-05
2526.08	9.66167e-05
2507.52	0.000125835
2488.96	0.000154275
2470.4	0.000179987
2451.83	0.000237645
2433.27	0.000436332
2414.71	0.00152327
2396.15	0.00188947
2377.59	0.0028907
2359.03	0.00337378
2340.46	0.00176481
2321.9	0.00189337
2303.34	0.00124277
2284.78	0.00153885
2266.22	0.00208037
2247.66	0.00209985
2229.09	0.00259462
2210.53	0.00246995
2191.97	0.00222062
2173.41	0.00135964
2154.85	0.000767477
2136.28	0.000701248
2117.72	0.000572686
2099.16	0.000681769
2080.6	0.000498665
2062.04	0.000635019
2043.48	0.00106356
2024.91	0.000596061
2006.35	0.000545415
1987.79	0.000650603
1969.23	0.00102071
1950.67	0.00151158
1932.11	0.000888248
1913.54	0.000845394
1894.98	0.000576582
1876.42	0.000557103
1857.86	0.00056879
1839.3	0.000736311
1820.73	0.00141029
1802.17	0.00257124
1783.61	0.00213881
1765.05	0.00236087
1746.49	0.00420749
1727.93	0.00642811
1709.36	0.0180766
1690.8	0.31712
1672.24	0.104798
1653.68	0.0911623
1635.12	0.29842
1616.56	0.0868769
1597.99	0.0572686
1579.43	0.0220504
1560.87	0.0163625
1542.31	0.0111421
1523.75	0.00584373
1505.18	0.00896039
1486.62	0.00278162
1468.06	0.0015817
1449.5	0.00135185
1430.94	0.00160898
1412.38	0.00282837
1393.81	0.00127783
1375.25	0.00116096
1356.69	0.00182714
1338.13	0.00375947
1319.57	0.00231022
1301.01	0.00257514
1282.44	0.00247385
1263.88	0.00169079
1245.32	0.00189337
1226.76	0.000888248
1208.2	0.00180766
1189.63	0.00673977
1171.07	0.00560999
1152.51	0.00349845
1133.95	0.00151548
1115.39	0.000786956
1096.83	0.001496
1078.26	0.00172975
1059.7	0.00178818
1041.14	0.00268812
1022.58	0.00249333
1004.02	0.00266864
985.455	0.00409061
966.894	0.00638915
948.332	0.0347507
929.77	0.0798644
911.208	0.0514249
892.647	0.276603
874.085	0.182325
855.523	0.023297
836.961	0.0384518
818.399	0.0160898
799.838	0.0416853
781.276	0.273487
762.714	1.47262
744.152	0.127393
725.591	0.100512
707.029	0.0541519
688.467	0.00880456
669.905	0.0393478
651.344	0.0142587
632.782	0.0145704
614.22	0.0436332
595.658	0.0420749
577.096	0.00436332
558.535	0.00200635
539.973	0.00172195
521.411	0.00092331
502.849	0.00107914
484.288	0.00133237
465.726	0.00184272
447.164	0.0109862
428.602	0.00693457
410.041	0.0020531
