Infrared Spectrum: DI-Beta-NAPHTHOL
Formula: C20 H14 O2
CAS: 602-09-5
State: SOLID (1.0% IN KBr PELLET)
Class: COBLENTZ
Instrument: Not specified, most likely a prism, grating, or hybrid spectrometer.
Sampling: TRANSMISSION
Path length: 0.0355 CM THICK
Resolution: 4
Origin: ANDERSON PHYSICAL LABORATORY
1/CM	TRANSMITTANCE
662.921	0.719
671.348	0.762
679.775	0.8179
688.202	0.872
696.629	0.87
705.056	0.851
713.483	0.818
721.91	0.755
730.337	0.764
738.764	0.758
747.191	0.441
755.618	0.3268
764.045	0.8508
772.472	0.7821
780.899	0.7739
789.326	0.8539
797.753	0.83
806.18	0.753
814.607	0.4151
823.034	0.25
831.461	0.364
839.888	0.9239
848.315	0.923
856.742	0.89
865.169	0.756
873.596	0.8989
882.023	0.933
890.45	0.926
898.877	0.918
907.304	0.899
915.731	0.875
924.158	0.84
932.585	0.779
941.012	0.849
949.439	0.795
957.866	0.71
966.293	0.698
974.72	0.78
983.147	0.725
991.574	0.83
1000	0.837
1008.43	0.837
1016.85	0.812
1025.28	0.786
1033.71	0.78
1042.14	0.771
1050.56	0.758
1058.99	0.749
1067.42	0.74
1075.84	0.747
1084.27	0.747
1092.7	0.65
1101.12	0.614
1109.55	0.548
1117.98	0.454
1126.41	0.3
1134.83	0.322
1143.26	0.165
1151.69	0.105
1160.11	0.303
1168.54	0.196
1176.97	0.108
1185.39	0.1359
1193.82	0.3579
1202.25	0.469
1210.68	0.3641
1219.1	0.162
1227.53	0.241
1235.96	0.71
1244.38	0.798
1252.81	0.6649
1261.24	0.5538
1269.66	0.732
1278.09	0.51
1286.52	0.794
1294.95	0.786
1303.37	0.749
1311.8	0.602
1320.23	0.484
1328.65	0.369
1337.08	0.632
1345.51	0.5551
1353.93	0.462
1362.36	0.524
1370.79	0.489
1379.22	0.366
1387.64	0.18
1396.07	0.4201
1404.5	0.647
1412.92	0.6981
1421.35	0.8491
1429.78	0.879
1438.2	0.795
1446.63	0.786
1455.06	0.807
1463.49	0.6001
1471.91	0.498
1480.34	0.722
1488.77	0.819
1497.19	0.791
1505.62	0.6619
1514.05	0.521
1522.47	0.551
1530.9	0.902
1539.33	0.891
1547.76	0.855
1556.18	0.839
1564.61	0.761
1573.04	0.71
1581.46	0.5329
1589.89	0.396
1598.32	0.264
1606.74	0.4178
1615.17	0.521
1623.6	0.3
1632.03	0.735
1640.45	0.866
1648.88	0.875
1657.31	0.887
1665.73	0.891
1674.16	0.89
1682.59	0.878
1691.01	0.87
1699.44	0.873
1707.87	0.876
1716.3	0.876
1724.72	0.876
1733.15	0.882
1741.58	0.881
1750	0.869
1758.43	0.86
1766.86	0.854
1775.28	0.854
1783.71	0.86
1792.14	0.857
1800.57	0.852
1808.99	0.84
1817.42	0.84
1825.85	0.84
1834.27	0.837
1842.7	0.846
1851.13	0.849
1859.55	0.851
1867.98	0.845
1876.41	0.834
1884.84	0.822
1893.26	0.804
1901.69	0.791
1910.12	0.791
1918.54	0.792
1926.97	0.797
1935.4	0.798
1943.82	0.798
1952.25	0.795
1960.68	0.782
1969.11	0.797
1977.53	0.816
1985.96	0.816
1994.39	0.797
2002.81	0.81
2011.24	0.807
2019.67	0.8
2028.09	0.7975
2036.52	0.7947
2044.95	0.7889
2053.38	0.7845
2061.8	0.783
2070.23	0.783
2078.66	0.783
2087.08	0.782
2095.51	0.7778
2103.94	0.7672
2112.36	0.767
2120.79	0.768
2129.22	0.7674
2137.65	0.7654
2146.07	0.7607
2154.5	0.7543
2162.93	0.753
2171.35	0.753
2179.78	0.7518
2188.21	0.75
2196.63	0.75
2205.06	0.75
2213.49	0.7469
2221.92	0.7453
2230.34	0.7418
2238.77	0.738
2247.2	0.735
2255.62	0.7303
2264.05	0.728
2272.48	0.7251
2280.9	0.7251
2289.33	0.728
2297.76	0.728
2306.19	0.728
2314.61	0.725
2323.04	0.7226
2331.47	0.7163
2339.89	0.716
2348.32	0.7135
2356.75	0.7106
2365.17	0.7073
2373.6	0.7041
2382.03	0.7018
2390.46	0.6997
2398.88	0.696
2407.31	0.6931
2415.74	0.6898
2424.16	0.6881
2432.59	0.6833
2441.02	0.681
2449.44	0.68
2457.87	0.678
2466.3	0.678
2474.73	0.678
2483.15	0.675
2491.58	0.6745
2500.01	0.674
2508.43	0.674
2516.86	0.6705
2525.29	0.6645
2533.71	0.6575
2542.14	0.654
2550.57	0.651
2559	0.6505
2567.42	0.648
2575.85	0.648
2584.28	0.6477
2592.7	0.6459
2601.13	0.6442
2609.56	0.6419
2617.98	0.6387
2626.41	0.6338
2634.84	0.6262
2643.27	0.626
2651.69	0.6254
2660.12	0.6223
2668.55	0.6184
2676.97	0.6149
2685.4	0.6133
2693.83	0.6098
2702.25	0.608
2710.68	0.609
2719.11	0.608
2727.53	0.6042
2735.96	0.6003
2744.39	0.5988
2752.82	0.596
2761.24	0.594
2769.67	0.5912
2778.1	0.5894
2786.52	0.5846
2794.95	0.5827
2803.38	0.5811
2811.8	0.5777
2820.23	0.575
2828.66	0.5723
2837.09	0.5672
2845.51	0.566
2853.94	0.5618
2862.37	0.5573
2870.79	0.5542
2879.22	0.5518
2887.65	0.5467
2896.07	0.543
2904.5	0.5401
2912.93	0.537
2921.36	0.5365
2929.78	0.5319
2938.21	0.5281
2946.64	0.5248
2955.06	0.5182
2963.49	0.5047
2971.92	0.501
2980.34	0.4938
2988.77	0.4801
2997.2	0.472
3005.63	0.469
3014.05	0.4675
3022.48	0.466
3030.91	0.466
3039.33	0.471
3047.76	0.4827
3056.19	0.4966
3064.61	0.5008
3073.04	0.503
3081.47	0.5024
3089.9	0.4978
3098.32	0.4926
3106.75	0.487
3115.18	0.4854
3123.6	0.4771
3132.03	0.4666
3140.46	0.4569
3148.88	0.4537
3157.31	0.4489
3165.74	0.4472
3174.17	0.4385
3182.59	0.4327
3191.02	0.4247
3199.45	0.4201
3207.87	0.4087
3216.3	0.4026
3224.73	0.3994
3233.15	0.3891
3241.58	0.3783
3250.01	0.3709
3258.44	0.3664
3266.86	0.356
3275.29	0.3446
3283.72	0.3378
3292.14	0.3211
3300.57	0.3019
3309	0.2897
3317.42	0.2742
3325.85	0.2594
3334.28	0.2497
3342.71	0.2309
3351.13	0.2096
3359.56	0.1839
3367.99	0.1655
3376.41	0.159
3384.84	0.1647
3393.27	0.1851
3401.69	0.222
3410.12	0.2572
3418.55	0.262
3426.98	0.2613
3435.4	0.2561
3443.83	0.2334
3452.26	0.2126
3460.68	0.2176
3469.11	0.2824
3477.54	0.3589
3485.96	0.4127
3494.39	0.4345
3502.82	0.439
3511.25	0.453
3519.67	0.4685
3528.1	0.4788
3536.53	0.483
3544.95	0.4875
3553.38	0.4895
3561.81	0.4915
3570.23	0.495
3578.66	0.498
3587.09	0.4991
3595.52	0.5
3603.94	0.5
3612.37	0.5
3620.8	0.5
3629.22	0.498
3637.65	0.498
3646.08	0.498
3654.5	0.4968
3662.93	0.496
3671.36	0.496
3679.79	0.495
3688.21	0.493
3696.64	0.4895
3705.07	0.4858
3713.49	0.4823
3721.92	0.4774
3730.35	0.4753
3738.77	0.474
3747.2	0.472
3755.63	0.4714
3764.06	0.471
3772.48	0.469
3780.91	0.468
3789.34	0.468
3797.76	0.466
3806.19	0.465
3814.62	0.463
3823.04	0.4624
3831.47	0.462
3839.9	0.462
3848.33	0.46
3856.75	0.458
3865.18	0.4542
3873.61	0.4526
3882.03	0.451
3890.46	0.4486
3898.89	0.4471
3907.31	0.445
3915.74	0.444
3924.17	0.4426
3932.6	0.4391
3941.02	0.4376
3949.45	0.435
3957.88	0.433
3966.3	0.433
3974.73	0.433
3983.16	0.433
