Infrared Spectrum: 17Alpha-HYDROXY PROGESTERONE
Formula: C21 H30 O3
CAS: 604-09-1
State: SOLID (KBr PELLET)
Class: COBLENTZ
Instrument: PERKIN-ELMER
Sampling: TRANSMISSION
Resolution: 4
Origin: ABBOTT LABORATORIES - WASHBURN
MICROMETERS	TRANSMITTANCE
2.526	0.678
2.55907	0.685
2.59214	0.6876
2.62521	0.6944
2.65828	0.7
2.69135	0.708
2.72442	0.711
2.75749	0.71
2.79056	0.716
2.82363	0.708
2.8567	0.6502
2.88977	0.4592
2.92284	0.3564
2.95591	0.3904
2.98898	0.458
3.02205	0.5248
3.05512	0.5778
3.08819	0.6095
3.12126	0.6354
3.15433	0.6439
3.1874	0.6526
3.22047	0.658
3.25354	0.659
3.28661	0.6581
3.31968	0.6119
3.35275	0.4835
3.38582	0.3682
3.41889	0.3479
3.45196	0.38
3.48503	0.405
3.5181	0.4364
3.55117	0.4767
3.58424	0.5507
3.61731	0.5851
3.65038	0.5967
3.68345	0.6039
3.71652	0.6138
3.74959	0.618
3.78266	0.624
3.81573	0.631
3.8488	0.634
3.88187	0.6428
3.91494	0.649
3.94801	0.654
3.98108	0.663
4.01415	0.663
4.04722	0.663
4.08029	0.6657
4.11336	0.6698
4.14643	0.673
4.1795	0.676
4.21257	0.676
4.24564	0.671
4.27871	0.6779
4.31178	0.681
4.34485	0.6829
4.37792	0.685
4.41099	0.685
4.44406	0.688
4.47713	0.69
4.5102	0.695
4.54327	0.698
4.57634	0.7
4.60941	0.701
4.64248	0.705
4.67555	0.7051
4.70862	0.7059
4.74169	0.7129
4.77476	0.715
4.80783	0.713
4.8409	0.716
4.87397	0.7199
4.90704	0.721
4.94011	0.723
4.97318	0.725
5.00625	0.725
5.03932	0.726
5.07239	0.7304
5.10546	0.7364
5.13853	0.739
5.1716	0.743
5.20467	0.745
5.23774	0.745
5.27081	0.745
5.30388	0.747
5.33695	0.75
5.37002	0.752
5.40309	0.7579
5.43616	0.7535
5.46923	0.75
5.5023	0.747
5.53537	0.747
5.56844	0.745
5.60151	0.7394
5.63458	0.725
5.66765	0.7103
5.70072	0.6764
5.73379	0.6353
5.76686	0.608
5.79993	0.5327
5.833	0.428
5.86607	0.2851
5.89914	0.416
5.93221	0.3819
5.96528	0.2589
5.99835	0.2174
6.03142	0.2525
6.06449	0.3307
6.09756	0.3697
6.13063	0.4375
6.1637	0.4631
6.19677	0.3928
6.22984	0.4485
6.26291	0.5098
6.29598	0.5322
6.32905	0.5495
6.36212	0.5574
6.39519	0.567
6.42826	0.5859
6.46133	0.6007
6.4944	0.6085
6.52747	0.6155
6.56054	0.6213
6.59361	0.6269
6.62668	0.631
6.65975	0.64
6.69282	0.634
6.72589	0.6277
6.75896	0.5913
6.79203	0.5328
6.8251	0.5141
6.85817	0.4777
6.89124	0.4701
6.92431	0.4693
6.95738	0.474
6.99045	0.4192
7.02352	0.4345
7.05659	0.4196
7.08966	0.4392
7.12273	0.509
7.1558	0.5319
7.18887	0.5296
7.22194	0.4619
7.25501	0.424
7.28808	0.4302
7.32115	0.4143
7.35422	0.3706
7.38729	0.3536
7.42036	0.3546
7.45343	0.4087
7.4865	0.4517
7.51957	0.4525
7.55264	0.4507
7.58571	0.508
7.61878	0.5508
7.65185	0.5708
7.68492	0.562
7.71799	0.522
7.75106	0.5613
7.78413	0.5419
7.8172	0.4944
7.85027	0.4601
7.88334	0.4888
7.91641	0.447
7.94948	0.5195
7.98255	0.506
8.01562	0.4755
8.04869	0.4591
8.08176	0.45
8.11483	0.453
8.1479	0.376
8.18097	0.4378
8.21404	0.4949
8.24711	0.4794
8.28018	0.455
8.31325	0.42
8.34632	0.4389
8.37939	0.4334
8.41246	0.4011
8.44553	0.3925
8.4786	0.3995
8.51167	0.4464
8.54474	0.4804
8.57781	0.5151
8.61088	0.5358
8.64395	0.5462
8.67702	0.5516
8.71009	0.552
8.74316	0.5414
8.77624	0.4987
8.80931	0.4674
8.84238	0.473
8.87545	0.4342
8.90852	0.4065
8.94159	0.386
8.97466	0.4307
9.00773	0.4608
9.0408	0.4713
9.07387	0.475
9.10694	0.4737
9.14001	0.4375
9.17308	0.4183
9.20615	0.4599
9.23922	0.4902
9.27229	0.514
9.30536	0.4974
9.33843	0.4715
9.3715	0.501
9.40457	0.5018
9.43764	0.4895
9.47071	0.516
9.50378	0.52
9.53685	0.5247
9.56992	0.551
9.60299	0.5611
9.63606	0.556
9.66913	0.5607
9.7022	0.5712
9.73527	0.5811
9.76834	0.5802
9.80141	0.5714
9.83448	0.573
9.86755	0.581
9.90062	0.5844
9.93369	0.5974
9.96676	0.5916
9.99983	0.5858
10.0329	0.598
10.066	0.623
10.099	0.6036
10.1321	0.5456
10.1652	0.5272
10.1982	0.5566
10.2313	0.5798
10.2644	0.5979
10.2975	0.6093
10.3305	0.6002
10.3636	0.5519
10.3967	0.5549
10.4297	0.563
10.4628	0.531
10.4959	0.5162
10.5289	0.5337
10.562	0.5326
10.5951	0.5262
10.6282	0.5539
10.6612	0.5729
10.6943	0.581
10.7274	0.5624
10.7604	0.537
10.7935	0.5039
10.8266	0.514
10.8596	0.5068
10.8927	0.5008
10.9258	0.5263
10.9589	0.5577
10.9919	0.581
11.025	0.5687
11.0581	0.5437
11.0911	0.5466
11.1242	0.5734
11.1573	0.5817
11.1903	0.5737
11.2234	0.542
11.2565	0.4938
11.2896	0.4356
11.3226	0.4265
11.3557	0.4274
11.3888	0.4076
11.4218	0.4166
11.4549	0.4522
11.488	0.4877
11.521	0.5112
11.5541	0.5274
11.5872	0.5437
11.6203	0.554
11.6533	0.5626
11.6864	0.5713
11.7195	0.5824
11.7525	0.587
11.7856	0.6008
11.8187	0.609
11.8517	0.6106
11.8848	0.6145
11.9179	0.5911
11.951	0.5715
11.984	0.5735
12.0171	0.5887
12.0502	0.6088
12.0832	0.6144
12.1163	0.6212
12.1494	0.626
12.1824	0.631
12.2155	0.6235
12.2486	0.6083
12.2817	0.609
12.3147	0.6184
12.3478	0.6292
12.3809	0.634
12.4139	0.643
12.447	0.639
12.4801	0.643
12.5131	0.6408
12.5462	0.6508
12.5793	0.656
12.6124	0.659
12.6454	0.659
12.6785	0.6621
12.7116	0.6586
12.7446	0.6373
12.7777	0.59
12.8108	0.5819
12.8438	0.5969
12.8769	0.6207
12.91	0.6381
12.9431	0.6488
12.9761	0.6575
13.0092	0.6693
13.0423	0.6651
13.0753	0.6667
13.1084	0.6716
13.1415	0.6771
13.1745	0.6799
13.2076	0.6849
13.2407	0.6813
13.2738	0.6901
13.3068	0.6868
13.3399	0.686
13.373	0.682
13.406	0.6722
13.4391	0.671
13.4722	0.6803
13.5052	0.6882
13.5383	0.688
13.5714	0.6949
13.6045	0.698
13.6375	0.703
13.6706	0.703
13.7037	0.701
13.7367	0.705
13.7698	0.703
13.8029	0.7091
13.8359	0.715
13.869	0.713
13.9021	0.7161
13.9352	0.716
13.9682	0.7209
14.0013	0.723
14.0344	0.7223
14.0674	0.7219
14.1005	0.72
14.1336	0.721
14.1666	0.72
14.1997	0.72
14.2328	0.7209
14.2659	0.718
14.2989	0.713
14.332	0.6803
14.3651	0.6595
14.3981	0.651
14.4312	0.6571
14.4643	0.6625
14.4973	0.6777
14.5304	0.6887
14.5635	0.6945
14.5966	0.6877
14.6296	0.68
14.6627	0.6513
14.6958	0.6091
14.7288	0.587
14.7619	0.5931
14.795	0.6138
14.828	0.6335
14.8611	0.6543
14.8942	0.6633
14.9273	0.671
14.9603	0.6761
14.9934	0.678
