Infrared Spectrum: 17Alpha-HYDROXYPREGNA-4-ENE-3,20-DIONE
Formula: C21 H30 O3
CAS: 604-09-1
State: SOLID (KBr DISC)
Class: COBLENTZ III
Instrument: BECKMAN IR-7
Sampling: TRANSMISSION
Resolution: 4
Origin: THE WORCESTER FOUNDATION FOR EXPERIMENTAL BIOLOGY, Neal L. McNiven
1/CM	TRANSMITTANCE
635.036	0.701
643.795	0.748
652.554	0.811
661.313	0.833
670.073	0.806
678.832	0.846
687.591	0.798
696.35	0.839
705.109	0.842
713.868	0.904
722.627	0.917
731.386	0.917
740.146	0.917
748.905	0.903
757.664	0.914
766.423	0.916
775.182	0.912
783.941	0.832
792.7	0.887
801.459	0.905
810.219	0.895
818.978	0.88
827.737	0.896
836.496	0.866
845.255	0.8619
854.014	0.885
862.773	0.842
871.532	0.806
880.292	0.4892
889.051	0.436
897.81	0.788
906.569	0.735
915.328	0.805
924.087	0.641
932.846	0.6409
941.605	0.765
950.365	0.673
959.124	0.633
967.883	0.679
976.642	0.801
985.401	0.732
994.16	0.787
1002.92	0.801
1011.68	0.814
1020.44	0.773
1029.2	0.782
1037.96	0.79
1046.71	0.79
1055.47	0.729
1064.23	0.6771
1072.99	0.695
1081.75	0.718
1090.51	0.6791
1099.27	0.5559
1108.03	0.639
1116.79	0.602
1125.55	0.456
1134.31	0.62
1143.07	0.6309
1151.82	0.769
1160.58	0.781
1169.34	0.768
1178.1	0.623
1186.86	0.465
1195.62	0.4799
1204.38	0.488
1213.14	0.575
1221.9	0.67
1230.66	0.347
1239.42	0.515
1248.17	0.498
1256.93	0.62
1265.69	0.5541
1274.45	0.6191
1283.21	0.6199
1291.97	0.774
1300.73	0.689
1309.49	0.821
1318.25	0.783
1327.01	0.6152
1335.77	0.632
1344.53	0.502
1353.28	0.341
1362.04	0.405
1370.8	0.549
1379.56	0.466
1388.32	0.625
1397.08	0.721
1405.84	0.6761
1414.6	0.48
1423.36	0.494
1432.12	0.406
1440.88	0.525
1449.63	0.575
1458.39	0.5449
1467.15	0.644
1475.91	0.727
1484.67	0.827
1493.43	0.851
1502.19	0.864
1510.95	0.869
1519.71	0.87
1528.47	0.866
1537.23	0.86
1545.99	0.859
1554.74	0.848
1563.5	0.813
1572.26	0.797
1581.02	0.782
1589.78	0.755
1598.54	0.692
1607.3	0.403
1616.06	0.4819
1624.82	0.602
1633.58	0.5191
1642.34	0.312
1651.09	0.244
1659.85	0.035
1668.61	0.071
1677.37	0.2199
1686.13	0.459
1694.89	0.3761
1703.65	0.2399
1712.41	0.5529
1721.17	0.72
1729.93	0.797
1738.69	0.82
1747.44	0.834
1756.2	0.881
1764.96	0.901
1773.72	0.91
1782.48	0.916
1791.24	0.917
1800	0.926
1808.76	0.929
1817.52	0.931
1826.28	0.93
1835.04	0.932
1843.8	0.936
1852.55	0.943
1861.31	0.941
1870.07	0.943
1878.83	0.941
1887.59	0.94
1896.35	0.94
1905.11	0.94
1913.87	0.941
1922.63	0.943
1931.39	0.941
1940.15	0.94
1948.9	0.94
1957.66	0.933
1966.42	0.936
1975.18	0.938
1983.94	0.935
1992.7	0.932
2001.46	0.936
2010.22	0.937
2018.98	0.9376
2027.74	0.937
2036.5	0.937
2045.26	0.936
2054.01	0.936
2062.77	0.936
2071.53	0.935
2080.29	0.935
2089.05	0.935
2097.81	0.934
2106.57	0.933
2115.33	0.933
2124.09	0.933
2132.85	0.933
2141.61	0.933
2150.36	0.933
2159.12	0.933
2167.88	0.933
2176.64	0.934
2185.4	0.934
2194.16	0.933
2202.92	0.931
2211.68	0.9284
2220.44	0.9244
2229.2	0.9216
2237.96	0.92
2246.72	0.9196
2255.47	0.9186
2264.23	0.9175
2272.99	0.917
2281.75	0.9159
2290.51	0.915
2299.27	0.9166
2308.03	0.917
2316.79	0.917
2325.55	0.917
2334.31	0.916
2343.07	0.9152
2351.82	0.915
2360.58	0.9122
2369.34	0.9111
2378.1	0.909
2386.86	0.9071
2395.62	0.906
2404.38	0.904
2413.14	0.902
2421.9	0.901
2430.66	0.9009
2439.42	0.8999
2448.17	0.899
2456.93	0.8988
2465.69	0.8968
2474.45	0.8925
2483.21	0.889
2491.97	0.888
2500.73	0.887
2509.49	0.887
2518.25	0.886
2527.01	0.885
2535.77	0.8845
2544.53	0.883
2553.28	0.8814
2562.04	0.88
2570.8	0.8794
2579.56	0.8763
2588.32	0.8726
2597.08	0.8703
2605.84	0.8682
2614.6	0.8632
2623.36	0.861
2632.12	0.8563
2640.88	0.8492
2649.63	0.8461
2658.39	0.845
2667.15	0.843
2675.91	0.843
2684.67	0.8379
2693.43	0.8329
2702.19	0.83
2710.95	0.8277
2719.71	0.8202
2728.47	0.813
2737.23	0.816
2745.99	0.8163
2754.74	0.819
2763.5	0.819
2772.26	0.8186
2781.02	0.8166
2789.78	0.8092
2798.54	0.7921
2807.3	0.7495
2816.06	0.6468
2824.82	0.6097
2833.58	0.6747
2842.34	0.5379
2851.09	0.3925
2859.85	0.3713
2868.61	0.465
2877.37	0.4231
2886.13	0.464
2894.89	0.4094
2903.65	0.3172
2912.41	0.2757
2921.17	0.2318
2929.93	0.2162
2938.69	0.2252
2947.45	0.2816
2956.2	0.3039
2964.96	0.5071
2973.72	0.4581
2982.48	0.5695
2991.24	0.6041
3000	0.6848
3008.76	0.7423
3017.52	0.7683
3026.28	0.7707
3035.04	0.798
3043.8	0.8167
3052.55	0.8264
3061.31	0.8305
3070.07	0.832
3078.83	0.833
3087.59	0.832
3096.35	0.83
3105.11	0.828
3113.87	0.827
3122.63	0.8206
3131.39	0.819
3140.15	0.8172
3148.91	0.816
3157.66	0.815
3166.42	0.8123
3175.18	0.8081
3183.94	0.8031
3192.7	0.7991
3201.46	0.795
3210.22	0.7899
3218.98	0.7849
3227.74	0.7798
3236.5	0.7737
3245.26	0.7685
3254.01	0.757
3262.77	0.7409
3271.53	0.7244
3280.29	0.7085
3289.05	0.6947
3297.81	0.6672
3306.57	0.6518
3315.33	0.6269
3324.09	0.5904
3332.85	0.5591
3341.61	0.5228
3350.36	0.4863
3359.12	0.4287
3367.88	0.3656
3376.64	0.3272
3385.4	0.2924
3394.16	0.2556
3402.92	0.213
3411.68	0.1737
3420.44	0.1753
3429.2	0.1994
3437.96	0.2279
3446.72	0.2553
3455.47	0.2884
3464.23	0.3307
3472.99	0.3896
3481.75	0.4707
3490.51	0.5508
3499.27	0.6141
3508.03	0.6674
3516.79	0.7125
3525.55	0.7481
3534.31	0.7758
3543.07	0.7941
3551.82	0.8036
3560.58	0.8188
3569.34	0.8321
3578.1	0.8408
3586.86	0.8469
3595.62	0.8524
3604.38	0.861
3613.14	0.867
3621.9	0.8707
3630.66	0.874
3639.42	0.875
3648.18	0.8767
3656.93	0.8777
3665.69	0.8787
3674.45	0.879
3683.21	0.88
3691.97	0.88
3700.73	0.88
3709.49	0.88
3718.25	0.88
3727.01	0.88
3735.77	0.879
3744.53	0.878
3753.28	0.877
3762.04	0.8739
3770.8	0.872
3779.56	0.871
3788.32	0.871
3797.08	0.872
3805.84	0.872
3814.6	0.871
3823.36	0.87
3832.12	0.87
3840.88	0.869
3849.64	0.8676
3858.39	0.867
3867.15	0.867
3875.91	0.8665
3884.67	0.864
3893.43	0.862
3902.19	0.8604
3910.95	0.859
3919.71	0.858
3928.47	0.8573
3937.23	0.856
3945.99	0.855
3954.74	0.855
3963.5	0.855
3972.26	0.8541
3981.02	0.8531
3989.78	0.853
3998.54	0.851
