Infrared Spectrum: 17Alpha-HYDROXY PROGESTERONE
Formula: C21 H30 O3
CAS: 604-09-1
State: SOLUTION (0.2M IN CHCl3)
Class: COBLENTZ
Instrument: PERKIN-ELMER
Sampling: TRANSMISSION
Path length: 0.010 CM CELL
Resolution: 4
Origin: ABBOTT LABORATORIES - WASHBURN
MICROMETERS	TRANSMITTANCE
2.533	0.935
2.56616	0.936
2.59931	0.9462
2.63247	0.951
2.66562	0.9461
2.69878	0.9559
2.73193	0.946
2.76509	0.9352
2.79824	0.8778
2.8314	0.8476
2.86455	0.7848
2.89771	0.7541
2.93086	0.7618
2.96402	0.7886
2.99717	0.8152
3.03033	0.842
3.06348	0.8676
3.09664	0.8966
3.12979	0.9099
3.16295	0.916
3.1961	0.911
3.22926	0.901
3.26241	0.8787
3.29557	0.8192
3.32872	0.6634
3.36188	0.4772
3.39503	0.318
3.42819	0.3868
3.46134	0.5121
3.4945	0.553
3.52765	0.7064
3.56081	0.851
3.59396	0.897
3.62712	0.92
3.66027	0.926
3.69343	0.9311
3.72658	0.9329
3.75974	0.9348
3.79289	0.936
3.82605	0.941
3.8592	0.945
3.89236	0.943
3.92551	0.943
3.95867	0.9412
3.99182	0.941
4.02498	0.9351
4.05813	0.92
4.09129	0.913
4.12444	0.911
4.1576	0.9196
4.19075	0.9406
4.22391	0.9509
4.25706	0.95
4.29022	0.95
4.32337	0.9509
4.35653	0.9559
4.38968	0.9581
4.42284	0.9582
4.456	0.96
4.48915	0.963
4.52231	0.9612
4.55546	0.9656
4.58862	0.965
4.62177	0.963
4.65493	0.965
4.68808	0.963
4.72124	0.968
4.75439	0.966
4.78755	0.971
4.8207	0.971
4.85386	0.9711
4.88701	0.97
4.92017	0.966
4.95332	0.966
4.98648	0.9709
5.01963	0.958
5.05279	0.966
5.08594	0.97
5.1191	0.97
5.15225	0.971
5.18541	0.9706
5.21856	0.971
5.25172	0.9705
5.28487	0.9693
5.31803	0.966
5.35118	0.9635
5.38434	0.965
5.41749	0.965
5.45065	0.9648
5.4838	0.9598
5.51696	0.95
5.55011	0.95
5.58327	0.943
5.61642	0.933
5.64958	0.9264
5.68273	0.9188
5.71589	0.8948
5.74904	0.8641
5.7822	0.8183
5.81535	0.6871
5.84851	0.3747
5.88166	0.2913
5.91482	0.3277
5.94797	0.2498
5.98113	0.1228
6.01428	0.0908
6.04744	0.1828
6.08059	0.4116
6.11375	0.5389
6.1469	0.6667
6.18006	0.5585
6.21321	0.6162
6.24637	0.8287
6.27953	0.8751
6.31268	0.8939
6.34584	0.91
6.37899	0.913
6.41215	0.9136
6.4453	0.9215
6.47846	0.926
6.51161	0.93
6.54477	0.9261
6.57792	0.9182
6.61108	0.911
6.64423	0.911
6.67739	0.9037
6.71054	0.8829
6.7437	0.8566
6.77685	0.7953
6.81001	0.7436
6.84316	0.7096
6.87632	0.6515
6.90947	0.601
6.94263	0.657
6.97578	0.6254
7.00894	0.6335
7.04209	0.6689
7.07525	0.6569
7.1084	0.7257
7.14156	0.7713
7.17471	0.7824
7.20787	0.6938
7.24102	0.6062
7.27418	0.595
7.30733	0.6329
7.34049	0.5551
7.37364	0.4051
7.4068	0.4178
7.43995	0.5399
7.47311	0.6516
7.50626	0.6428
7.53942	0.6393
7.57257	0.7624
7.60573	0.795
7.63888	0.8149
7.67204	0.817
7.70519	0.7964
7.73835	0.7681
7.7715	0.7566
7.80466	0.7196
7.83781	0.6515
7.87097	0.6073
7.90412	0.6178
7.93728	0.654
7.97043	0.6739
8.00359	0.6428
8.03674	0.5808
8.0699	0.4921
8.10305	0.4654
8.13621	0.4434
8.16937	0.4555
8.20252	0.4812
8.23568	0.4989
8.26883	0.5167
8.30199	0.5349
8.33514	0.544
8.3683	0.546
8.40145	0.5563
8.43461	0.5723
8.46776	0.6132
8.50092	0.6878
8.53407	0.7134
8.56723	0.7776
8.60038	0.827
8.63354	0.8519
8.66669	0.857
8.69985	0.8533
8.733	0.8288
8.76616	0.807
8.79931	0.8029
8.83247	0.7824
8.86562	0.7422
8.89878	0.7232
8.93193	0.6738
8.96509	0.6586
8.99824	0.7054
9.0314	0.7497
9.06455	0.7973
9.09771	0.8234
9.13086	0.8165
9.16402	0.739
9.19717	0.6569
9.23033	0.6732
9.26348	0.7373
9.29664	0.759
9.32979	0.7433
9.36295	0.7436
9.3961	0.7808
9.42926	0.7882
9.46241	0.7796
9.49557	0.785
9.52872	0.7925
9.56188	0.8131
9.59503	0.8253
9.62819	0.8285
9.66134	0.8525
9.6945	0.87
9.72765	0.877
9.76081	0.8771
9.79396	0.8452
9.82712	0.8148
9.86027	0.8212
9.89343	0.8474
9.92658	0.86
9.95974	0.862
9.99289	0.862
10.0261	0.867
10.0592	0.87
10.0924	0.8293
10.1255	0.8116
10.1587	0.8153
10.1918	0.8367
10.225	0.8468
10.2581	0.848
10.2913	0.8422
10.3244	0.8308
10.3576	0.795
10.3908	0.7431
10.4239	0.7346
10.4571	0.739
10.4902	0.7182
10.5234	0.7011
10.5565	0.704
10.5897	0.7249
10.6228	0.7441
10.656	0.7576
10.6892	0.775
10.7223	0.78
10.7555	0.777
10.7886	0.7717
10.8218	0.7836
10.8549	0.79
10.8881	0.7826
10.9212	0.7967
10.9544	0.835
10.9875	0.8497
11.0207	0.8574
11.0539	0.8606
11.087	0.8847
11.1202	0.895
11.1533	0.892
11.1865	0.8929
11.2196	0.8665
11.2528	0.7989
11.2859	0.7255
11.3191	0.7138
11.3523	0.7625
11.3854	0.8076
11.4186	0.8299
11.4517	0.8184
11.4849	0.7509
11.518	0.6793
11.5512	0.6828
11.5843	0.7489
11.6175	0.7948
11.6506	0.8357
11.6838	0.8746
11.717	0.8983
11.7501	0.9152
11.7833	0.9245
11.8164	0.9252
11.8496	0.9202
11.8827	0.8964
11.9159	0.8757
11.949	0.8788
11.9822	0.8978
12.0154	0.918
12.0485	0.92
12.0817	0.9218
12.1148	0.9287
12.148	0.933
12.1811	0.9319
12.2143	0.933
12.2474	0.933
12.2806	0.93
12.3138	0.9251
12.3469	0.9101
12.3801	0.9034
12.4132	0.897
12.4464	0.8906
12.4795	0.885
12.5127	0.8892
12.5458	0.892
12.579	0.89
12.6121	0.89
12.6453	0.8904
12.6785	0.9002
12.7116	0.9032
12.7448	0.9082
12.7779	0.911
12.8111	0.908
12.8442	0.9159
12.8774	0.916
12.9105	0.921
12.9437	0.925
12.9769	0.926
13.01	0.928
13.0432	0.9305
13.0763	0.936
13.1095	0.936
13.1426	0.9386
13.1758	0.9395
13.2089	0.938
13.2421	0.935
13.2752	0.941
13.3084	0.9429
13.3416	0.9361
13.3747	0.9459
13.4079	0.9495
13.441	0.9503
13.4742	0.955
13.5073	0.953
13.5405	0.958
13.5736	0.96
13.6068	0.955
13.64	0.956
13.6731	0.956
13.7063	0.958
13.7394	0.961
13.7726	0.96
13.8057	0.961
13.8389	0.963
13.872	0.9582
13.9052	0.953
13.9384	0.95
13.9715	0.943
14.0047	0.935
14.0378	0.9406
14.071	0.9418
14.1041	0.934
14.1373	0.934
14.1704	0.9306
14.2036	0.9256
14.2367	0.9107
14.2699	0.9006
14.3031	0.8879
14.3362	0.885
14.3694	0.883
14.4025	0.885
14.4357	0.887
14.4688	0.893
14.502	0.8965
14.5351	0.8994
14.5683	0.9
14.6015	0.9004
14.6346	0.9
14.6678	0.893
14.7009	0.8815
14.7341	0.8673
14.7672	0.853
14.8004	0.858
14.8335	0.8652
