Infrared Spectrum: 9,10-DICHLOROANTHRACENE
Formula: C14 H8 Cl2
CAS: 605-48-1
State: SOLID (MINERAL OIL MULL)
Melting point: 209-211 C
Class: COBLENTZ
Instrument: Not specified, most likely a prism, grating, or hybrid spectrometer.
Sampling: TRANSMISSION
Resolution: 4
Origin: WYANDOTTE CHEMICALS CORP., WYANDOTTE, MICHIGAN, USA
MICROMETERS	TRANSMITTANCE
2.027	0.466
2.06679	0.452
2.10658	0.449
2.14637	0.452
2.18617	0.457
2.22596	0.462
2.26575	0.467
2.30554	0.474
2.34533	0.484
2.38512	0.495
2.42491	0.504
2.46471	0.514
2.5045	0.522
2.54429	0.527
2.58408	0.532
2.62387	0.543
2.66366	0.552
2.70345	0.558
2.74325	0.563
2.78304	0.566
2.82283	0.571
2.86262	0.578
2.90241	0.586
2.9422	0.59
2.98199	0.593
3.02179	0.598
3.06158	0.601
3.10137	0.608
3.14116	0.614
3.18095	0.619
3.22074	0.623
3.26054	0.603
3.30033	0.558
3.34012	0.319
3.37991	0.029
3.4197	0.046
3.45949	0.084
3.49928	0.112
3.53908	0.333
3.57887	0.424
3.61866	0.449
3.65845	0.449
3.69824	0.449
3.73803	0.456
3.77782	0.461
3.81762	0.462
3.85741	0.476
3.8972	0.485
3.93699	0.492
3.97678	0.499
4.01657	0.507
4.05636	0.51
4.09616	0.512
4.13595	0.519
4.17574	0.52
4.21553	0.523
4.25532	0.528
4.29511	0.528
4.3349	0.527
4.3747	0.527
4.41449	0.548
4.45428	0.553
4.49407	0.558
4.53386	0.565
4.57365	0.568
4.61344	0.571
4.65324	0.575
4.69303	0.583
4.73282	0.591
4.77261	0.6
4.8124	0.603
4.85219	0.611
4.89198	0.611
4.93178	0.614
4.97157	0.618
5.01136	0.628
5.05115	0.629
5.09094	0.631
5.13073	0.636
5.17052	0.641
5.21032	0.626
5.25011	0.633
5.2899	0.638
5.32969	0.651
5.36948	0.657
5.40927	0.661
5.44906	0.666
5.48886	0.672
5.52865	0.671
5.56844	0.661
5.60823	0.649
5.64802	0.669
5.68781	0.679
5.72761	0.685
5.7674	0.689
5.80719	0.689
5.84698	0.68
5.88677	0.672
5.92656	0.679
5.96635	0.69
6.00615	0.7
6.04594	0.709
6.08573	0.715
6.12552	0.613
6.16531	0.608
6.2051	0.68
6.24489	0.697
6.28469	0.712
6.32448	0.72
6.36427	0.727
6.40406	0.732
6.44385	0.725
6.48364	0.733
6.52343	0.671
6.56323	0.69
6.60302	0.707
6.64281	0.704
6.6826	0.694
6.72239	0.639
6.76218	0.523
6.80197	0.302
6.84177	0.33
6.88156	0.409
6.92135	0.4
6.96114	0.583
7.00093	0.69
7.04072	0.717
7.08051	0.738
7.12031	0.74
7.1601	0.719
7.19989	0.624
7.23968	0.469
7.27947	0.517
7.31926	0.596
7.35905	0.7
7.39885	0.728
7.43864	0.753
7.47843	0.76
7.51822	0.776
7.55801	0.808
7.5978	0.576
7.63759	0.31
7.67739	0.532
7.71718	0.669
7.75697	0.737
7.79676	0.761
7.83655	0.776
7.87634	0.537
7.91614	0.274
7.95593	0.525
7.99572	0.629
8.03551	0.672
8.0753	0.694
8.11509	0.715
8.15488	0.727
8.19468	0.737
8.23447	0.727
8.27426	0.74
8.31405	0.752
8.35384	0.766
8.39363	0.752
8.43342	0.766
8.47322	0.776
8.51301	0.748
8.5528	0.752
8.59259	0.77
8.63238	0.788
8.67217	0.793
8.71196	0.801
8.75176	0.818
8.79155	0.834
8.83134	0.844
8.87113	0.849
8.91092	0.851
8.95071	0.852
8.9905	0.852
9.0303	0.849
9.07009	0.851
9.10988	0.856
9.14967	0.857
9.18946	0.857
9.22925	0.854
9.26904	0.851
9.30884	0.851
9.34863	0.851
9.38842	0.851
9.42821	0.847
9.468	0.847
9.50779	0.852
9.54758	0.852
9.58738	0.856
9.62717	0.857
9.66696	0.866
9.70675	0.795
9.74654	0.636
9.78633	0.725
9.82612	0.809
9.86592	0.833
9.90571	0.846
9.9455	0.856
9.98529	0.854
10.0251	0.861
10.0649	0.866
10.1047	0.869
10.1445	0.871
10.1842	0.867
10.224	0.876
10.2638	0.859
10.3036	0.844
10.3434	0.856
10.3832	0.877
10.423	0.889
10.4628	0.874
10.5026	0.819
10.5424	0.728
10.5822	0.314
10.622	0.307
10.6617	0.48
10.7015	0.631
10.7413	0.705
10.7811	0.755
10.8209	0.785
10.8607	0.796
10.9005	0.809
10.9403	0.819
10.9801	0.824
11.0199	0.826
11.0597	0.829
11.0995	0.831
11.1392	0.834
11.179	0.836
11.2188	0.838
11.2586	0.839
11.2984	0.846
11.3382	0.849
11.378	0.856
11.4178	0.839
11.4576	0.795
11.4974	0.826
11.5372	0.851
11.5769	0.861
11.6167	0.864
11.6565	0.866
11.6963	0.866
11.7361	0.861
11.7759	0.866
11.8157	0.866
11.8555	0.871
11.8953	0.871
11.9351	0.869
11.9749	0.859
12.0147	0.874
12.0544	0.879
12.0942	0.877
12.134	0.882
12.1738	0.885
12.2136	0.887
12.2534	0.885
12.2932	0.884
12.333	0.889
12.3728	0.887
12.4126	0.885
12.4524	0.885
12.4922	0.885
12.5319	0.884
12.5717	0.885
12.6115	0.887
12.6513	0.885
12.6911	0.879
12.7309	0.877
12.7707	0.874
12.8105	0.869
12.8503	0.864
12.8901	0.859
12.9299	0.847
12.9696	0.831
13.0094	0.814
13.0492	0.798
13.089	0.778
13.1288	0.752
13.1686	0.719
13.2084	0.667
13.2482	0.601
13.288	0.514
13.3278	0.37
13.3676	0.206
13.4074	0.147
13.4471	0.137
13.4869	0.238
13.5267	0.421
13.5665	0.59
13.6063	0.682
13.6461	0.74
13.6859	0.757
13.7257	0.78
13.7655	0.795
13.8053	0.813
13.8451	0.838
13.8849	0.852
13.9246	0.866
13.9644	0.885
14.0042	0.907
14.044	0.917
14.0838	0.927
14.1236	0.938
14.1634	0.942
14.2032	0.945
14.243	0.948
14.2828	0.95
14.3226	0.945
14.3624	0.899
14.4021	0.79
14.4419	0.727
14.4817	0.758
14.5215	0.834
14.5613	0.871
14.6011	0.884
14.6409	0.892
14.6807	0.895
14.7205	0.884
14.7603	0.88
14.8001	0.879
14.8398	0.876
14.8796	0.869
14.9194	0.867
14.9592	0.859
14.999	0.842
15.0388	0.808
15.0786	0.765
15.1184	0.763
15.1582	0.804
15.198	0.826
15.2378	0.816
15.2776	0.801
15.3173	0.791
15.3571	0.776
15.3969	0.765
15.4367	0.755
15.4765	0.737
15.5163	0.72
15.5561	0.709
15.5959	0.7
15.6357	0.694
15.6755	0.684
15.7153	0.667
15.7551	0.656
15.7948	0.642
15.8346	0.628
15.8744	0.616
15.9142	0.608
15.954	0.596
15.9938	0.568
