Infrared Spectrum: BENZENE, PENTACHLORO-
Formula: C6 H Cl5
CAS: 608-93-5
Class: COBLENTZ III
Instrument: PERKIN-ELMER 283
Sampling: TRANSMISSION
Path length: HOT PRESSED FILM
Resolution: 4
Origin: PERKIN-ELMER
1/CM	TRANSMITTANCE
202.141	0.027
211.875	0.016
221.609	0.024
231.343	0.02
241.077	0.021
250.811	0.021
260.545	0.041
270.279	0.096
280.013	0.174
289.747	0.261
299.481	0.349
309.215	0.416
318.949	0.465
328.683	0.534
338.416	0.612
348.15	0.672
357.884	0.727
367.618	0.774
377.352	0.812
387.086	0.845
396.82	0.868
406.554	0.898
416.288	0.909
426.022	0.92
435.756	0.93
445.49	0.943
455.224	0.95
464.958	0.956
474.692	0.957
484.426	0.958
494.16	0.958
503.894	0.953
513.628	0.943
523.362	0.7049
533.096	0.917
542.83	0.763
552.564	0.698
562.298	0.409
572.032	0.805
581.766	0.934
591.5	0.944
601.233	0.913
610.967	0.909
620.701	0.904
630.435	0.907
640.169	0.905
649.903	0.899
659.637	0.887
669.371	0.864
679.105	0.5669
688.839	0.789
698.573	0.641
708.307	0.886
718.041	0.912
727.775	0.913
737.509	0.913
747.243	0.913
756.977	0.909
766.711	0.901
776.445	0.887
786.179	0.876
795.913	0.819
805.647	0.754
815.381	0.455
825.115	0.3711
834.849	0.797
844.583	0.886
854.317	0.861
864.05	0.171
873.784	0.78
883.518	0.877
893.252	0.889
902.986	0.889
912.72	0.89
922.454	0.89
932.188	0.882
941.922	0.775
951.656	0.885
961.39	0.88
971.124	0.859
980.858	0.878
990.592	0.883
1000.33	0.894
1010.06	0.891
1019.79	0.885
1029.53	0.886
1039.26	0.883
1049	0.864
1058.73	0.878
1068.46	0.868
1078.2	0.771
1087.93	0.3601
1097.67	0.858
1107.4	0.87
1117.13	0.872
1126.87	0.861
1136.6	0.873
1146.34	0.865
1156.07	0.849
1165.8	0.767
1175.54	0.6322
1185.27	0.823
1195.01	0.843
1204.74	0.846
1214.47	0.771
1224.21	0.6047
1233.94	0.829
1243.68	0.851
1253.41	0.851
1263.14	0.851
1272.88	0.849
1282.61	0.837
1292.34	0.811
1302.08	0.676
1311.81	0.654
1321.55	0.3259
1331.28	0.104
1341.01	0.3391
1350.75	0.731
1360.48	0.758
1370.22	0.748
1379.95	0.696
1389.68	0.4899
1399.42	0.379
1409.15	0.6541
1418.89	0.738
1428.62	0.734
1438.35	0.79
1448.09	0.823
1457.82	0.83
1467.56	0.836
1477.29	0.856
1487.02	0.854
1496.76	0.85
1506.49	0.823
1516.23	0.6769
1525.96	0.3431
1535.69	0.6011
1545.43	0.736
1555.16	0.691
1564.9	0.829
1574.63	0.846
1584.36	0.847
1594.1	0.847
1603.83	0.845
1613.57	0.842
1623.3	0.841
1633.03	0.828
1642.77	0.825
1652.5	0.843
1662.24	0.845
1671.97	0.836
1681.7	0.836
1691.44	0.838
1701.17	0.84
1710.91	0.823
1720.64	0.79
1730.37	0.516
1740.11	0.7411
1749.84	0.823
1759.58	0.838
1769.31	0.84
1779.04	0.842
1788.78	0.842
1798.51	0.842
1808.24	0.842
1817.98	0.842
1827.71	0.841
1837.45	0.837
1847.18	0.834
1856.91	0.833
1866.65	0.836
1876.38	0.83
1886.12	0.828
1895.85	0.825
1905.58	0.821
1915.32	0.828
1925.05	0.828
1934.79	0.829
1944.52	0.829
1954.25	0.827
1963.99	0.829
1973.72	0.828
1983.46	0.825
1993.19	0.823
2002.92	0.817
2012.66	0.817
2022.39	0.8155
2032.13	0.8171
2041.86	0.814
2051.59	0.816
2061.33	0.816
2071.06	0.8156
2080.8	0.812
2090.53	0.8132
2100.26	0.8102
2110	0.807
2119.73	0.812
2129.47	0.8107
2139.2	0.8083
2148.93	0.805
2158.67	0.81
2168.4	0.81
2178.14	0.81
2187.87	0.809
2197.6	0.8057
2207.34	0.8035
2217.07	0.806
2226.81	0.805
2236.54	0.803
2246.27	0.802
2256.01	0.7968
2265.74	0.7888
2275.48	0.7927
2285.21	0.802
2294.94	0.802
2304.68	0.805
2314.41	0.803
2324.14	0.798
2333.88	0.7373
2343.61	0.7754
2353.35	0.7961
2363.08	0.7979
2372.81	0.7939
2382.55	0.793
2392.28	0.792
2402.02	0.79
2411.75	0.789
2421.48	0.789
2431.22	0.79
2440.95	0.79
2450.69	0.789
2460.42	0.788
2470.15	0.788
2479.89	0.787
2489.62	0.788
2499.36	0.788
2509.09	0.788
2518.82	0.789
2528.56	0.788
2538.29	0.7844
2548.03	0.7756
2557.76	0.7552
2567.49	0.7607
2577.23	0.7791
2586.96	0.7802
2596.7	0.7782
2606.43	0.7788
2616.16	0.78
2625.9	0.778
2635.63	0.776
2645.37	0.781
2655.1	0.7793
2664.83	0.778
2674.57	0.7766
2684.3	0.7743
2694.04	0.7703
2703.77	0.7613
2713.5	0.7527
2723.24	0.7567
2732.97	0.7643
2742.71	0.769
2752.44	0.7638
2762.17	0.761
2771.91	0.763
2781.64	0.7474
2791.38	0.7423
2801.11	0.7637
2810.84	0.7696
2820.58	0.77
2830.31	0.767
2840.04	0.767
2849.78	0.7705
2859.51	0.7695
2869.25	0.768
2878.98	0.768
2888.71	0.763
2898.45	0.762
2908.18	0.7606
2917.92	0.7553
2927.65	0.7339
2937.38	0.7153
2947.12	0.736
2956.85	0.7542
2966.59	0.758
2976.32	0.761
2986.05	0.758
2995.79	0.7553
3005.52	0.753
3015.26	0.753
3024.99	0.754
3034.72	0.7494
3044.46	0.7199
3054.19	0.6192
3063.93	0.3948
3073.66	0.4658
3083.39	0.5755
3093.13	0.5912
3102.86	0.5
3112.6	0.4495
3122.33	0.6114
3132.06	0.7087
3141.8	0.7203
3151.53	0.729
3161.27	0.7323
3171	0.7401
3180.73	0.747
3190.47	0.7481
3200.2	0.7502
3209.94	0.7491
3219.67	0.7521
3229.4	0.752
3239.14	0.752
3248.87	0.753
3258.61	0.7569
3268.34	0.752
3278.07	0.752
3287.81	0.75
3297.54	0.75
3307.28	0.75
3317.01	0.7529
3326.74	0.749
3336.48	0.7492
3346.21	0.7518
3355.95	0.75
3365.68	0.749
3375.41	0.75
3385.15	0.7502
3394.88	0.7517
3404.61	0.753
3414.35	0.75
3424.08	0.7503
3433.82	0.7492
3443.55	0.748
3453.28	0.749
3463.02	0.74
3472.75	0.7466
3482.49	0.749
3492.22	0.75
3501.95	0.75
3511.69	0.752
3521.42	0.752
3531.16	0.752
3540.89	0.752
3550.62	0.752
3560.36	0.752
3570.09	0.752
3579.83	0.752
3589.56	0.752
3599.29	0.752
3609.03	0.752
3618.76	0.749
3628.5	0.747
3638.23	0.747
3647.96	0.747
3657.7	0.748
3667.43	0.7486
3677.17	0.749
3686.9	0.749
3696.63	0.7495
3706.37	0.749
3716.1	0.749
3725.84	0.75
3735.57	0.749
3745.3	0.749
3755.04	0.749
3764.77	0.749
3774.51	0.749
3784.24	0.75
3793.97	0.7486
3803.71	0.749
3813.44	0.749
3823.18	0.749
3832.91	0.7494
3842.64	0.749
3852.38	0.749
3862.11	0.7487
3871.85	0.7464
3881.58	0.744
3891.31	0.741
3901.05	0.743
3910.78	0.743
3920.51	0.7397
3930.25	0.7352
3939.98	0.7415
3949.72	0.745
3959.45	0.745
3969.18	0.745
3978.92	0.747
3988.65	0.747
3998.39	0.747
