Infrared Spectrum: PROMETHAZINE
Formula: C17 H20 N2 S
CAS: 60-87-7
State: SOLUTION 1.3% (CS2 FOR 2-15 microns, AND C2Cl4 FOR 5-7.7 microns)
Melting point: 60 C
Boiling point: 190-192 C AT 3 mmHg
Class: COBLENTZ III
Instrument: PERKIN-ELMER 21 (GRATING)
Instrument parameters: FILTER AT ABOUT 10 MICRONS
Sampling: TRANSMISSION
Path length: 0.1 CM
Resolution: 2
1/CM	TRANSMITTANCE
4000	0.9575
3991	0.9578
3982	0.9582
3973	0.9585
3964	0.9588
3955	0.9592
3946	0.9595
3937	0.9598
3928	0.96
3919	0.9603
3910	0.9605
3901	0.9606
3892	0.9608
3883	0.9608
3874	0.961
3865	0.9611
3856	0.9612
3847	0.9613
3838	0.9614
3829	0.9615
3820	0.9616
3811	0.9617
3802	0.9618
3793	0.9618
3784	0.9618
3775	0.9618
3766	0.9618
3757	0.9618
3748	0.9616
3739	0.9612
3730	0.9608
3721	0.9603
3712	0.9598
3703	0.9596
3694	0.9596
3685	0.9595
3676	0.9595
3667	0.9598
3658	0.9604
3649	0.961
3640	0.9617
3631	0.9624
3622	0.9633
3613	0.9641
3604	0.965
3595	0.9659
3586	0.9667
3577	0.9675
3568	0.9685
3559	0.9689
3550	0.969
3541	0.969
3532	0.9687
3523	0.9682
3514	0.9675
3505	0.9671
3496	0.9665
3487	0.966
3478	0.9653
3469	0.965
3460	0.965
3451	0.9649
3442	0.9649
3433	0.9649
3424	0.9649
3415	0.9647
3406	0.9646
3397	0.9644
3388	0.9642
3379	0.964
3370	0.9638
3361	0.9636
3352	0.9633
3343	0.963
3334	0.9625
3325	0.9623
3316	0.962
3307	0.9617
3298	0.961
3289	0.9604
3280	0.9598
3271	0.9591
3262	0.9584
3253	0.9575
3244	0.9561
3235	0.9545
3226	0.9531
3217	0.9518
3208	0.9515
3199	0.9513
3190	0.951
3181	0.9507
3172	0.9504
3163	0.95
3154	0.9489
3145	0.9475
3136	0.9443
3127	0.9375
3118	0.9267
3109	0.9082
3100	0.8363
3091	0.7618
3082	0.721
3073	0.7383
3064	0.7811
3055	0.8232
3046	0.8392
3037	0.8444
3028	0.8457
3019	0.8427
3010	0.7868
3001	0.6735
2992	0.5773
2983	0.4809
2974	0.4557
2965	0.4864
2956	0.5185
2947	0.5312
2938	0.527
2929	0.5189
2920	0.5494
2911	0.6105
2902	0.6621
2893	0.6618
2884	0.6272
2875	0.5839
2866	0.5725
2857	0.6151
2848	0.6592
2839	0.6465
2830	0.61
2821	0.5966
2812	0.6204
2803	0.6419
2794	0.6284
2785	0.5925
2776	0.58
2767	0.6498
2758	0.7331
2749	0.8209
2740	0.8549
2731	0.8736
2722	0.8917
2713	0.9064
2704	0.9163
2695	0.9241
2686	0.9315
2677	0.9368
2668	0.9371
2659	0.9371
2650	0.937
2641	0.9375
2632	0.9378
2623	0.9381
2614	0.937
2605	0.9331
2596	0.9287
2587	0.9258
2578	0.9268
2569	0.929
2560	0.9313
2551	0.9339
2542	0.9366
2533	0.9394
2524	0.9418
2515	0.944
2506	0.9457
2497	0.9462
2488	0.9462
2479	0.9457
2470	0.9458
2461	0.9473
2452	0.9506
2443	0.9539
2434	0.9559
2425	0.9577
2416	0.9584
2407	0.958
2398	0.9577
2389	0.9575
2380	0.9574
2371	0.9573
2362	0.9571
2353	0.9568
2344	0.9563
2335	0.9558
2326	0.9553
2317	0.9549
2308	0.9546
2299	0.9544
2290	0.9543
2281	0.9543
2272	0.955
2263	0.9558
2254	0.9571
2245	0.9589
2236	0.9601
2227	0.9605
2218	0.9603
2209	0.9601
2200	0.9596
2191	0.9591
2182	0.9587
2173	0.958
2164	0.9568
2155	0.9558
2146	0.9546
2137	0.9532
2128	0.9518
2119	0.9502
2110	0.9492
2101	0.9516
2092	0.9558
2083	0.9588
2074	0.9623
2065	0.9646
2056	0.9608
2047	0.9571
2038	0.9585
2029	0.9613
2020	0.9623
2011	0.9625
2002	0.963
1993	0.9636
1984	0.9644
1975	0.9648
1966	0.965
1957	0.9654
1948	0.9638
1939	0.9531
1930	0.9204
1921	0.9231
1912	0.9465
1903	0.953
1894	0.9245
1885	0.9183
1876	0.9437
1867	0.959
1858	0.9554
1849	0.9459
1840	0.9603
1831	0.971
1822	0.9725
1813	0.9607
1804	0.9621
1795	0.9657
1786	0.9597
1777	0.9378
1768	0.9316
1759	0.9523
1750	0.9581
1741	0.9598
1732	0.9615
1723	0.962
1714	0.9578
1705	0.9523
1696	0.9478
1687	0.9449
1678	0.9415
1669	0.9463
1660	0.951
1651	0.9528
1642	0.9521
1633	0.9514
1624	0.9485
1615	0.9196
1606	0.7136
1597	0.5226
1588	0.7061
1579	0.5714
1570	0.7078
1561	0.8556
1552	0.9268
1543	0.9375
1534	0.9404
1525	0.94
1516	0.916
1507	0.7712
1498	0.6081
1489	0.4242
1480	0.4366
1471	0.1749
1462	0.0462
1453	0.1071
1444	0.239
1435	0.7525
1426	0.866
1417	0.8875
1408	0.8734
1399	0.8777
1390	0.7964
1381	0.7
1372	0.6024
1363	0.5434
1354	0.6064
1345	0.4931
1336	0.3584
1327	0.6824
1318	0.5827
1309	0.7295
1300	0.7386
1291	0.5947
1282	0.4685
1273	0.6517
1264	0.6489
1255	0.436
1246	0.4425
1237	0.6799
1228	0.4931
1219	0.6908
1210	0.7764
1201	0.6737
1192	0.476
1183	0.6761
1174	0.8386
1165	0.8083
1156	0.6526
1147	0.7951
1138	0.6875
1129	0.3897
1120	0.624
1111	0.7532
1102	0.5931
1093	0.6825
1084	0.8228
1075	0.7925
1066	0.7103
1057	0.7233
1048	0.5858
1039	0.4596
1030	0.7871
1021	0.9209
1012	0.9403
1003	0.9471
994	0.947
985	0.9115
976	0.8125
967	0.8659
958	0.9121
949	0.9362
940	0.9153
931	0.8762
922	0.7839
913	0.9297
904	0.943
895	0.9387
886	0.9316
877	0.8778
868	0.8618
859	0.8505
850	0.8381
841	0.8839
832	0.9394
823	0.9544
814	0.9581
805	0.9421
796	0.9256
787	0.9285
778	0.9236
769	0.8225
760	0.7793
751	0.0709
742	0.1833
733	0.7725
724	0.5122
715	0.8994
706	0.9449
697	0.921
688	0.9454
679	0.9435
