Infrared Spectrum: 1-Iodo-2-nitrobenzene
Formula: C6 H4 I N O2
CAS: 609-73-4
State: SOLUTION (10% CCl4 FOR 3800-1330, 10% CS2 FOR 1330-420 CM^-^1)
Melting point: 51 C
Class: COBLENTZ III
Instrument: DOW KBr FOREPRISM-GRATING
Instrument parameters: BLAZED AT 3.5, 12.0, 20.0 MICRON AND CHANGED AT 5.0, 7.5, 14.9 MICRON
Sampling: TRANSMISSION
Path length: 0.011 CM, 0.011 CM
Resolution: 2
Origin: DOW CHEMICAL COMPANY
1/CM	TRANSMITTANCE
3814	0.9459
3805	0.9469
3796	0.9468
3787	0.9471
3778	0.9468
3769	0.9471
3760	0.9491
3751	0.9462
3742	0.9418
3733	0.9399
3724	0.9423
3715	0.9446
3706	0.9483
3697	0.9475
3688	0.947
3679	0.9451
3670	0.9446
3661	0.943
3652	0.9435
3643	0.9439
3634	0.9444
3625	0.9469
3616	0.9482
3607	0.9496
3598	0.9477
3589	0.9474
3580	0.9465
3571	0.9446
3562	0.9447
3553	0.945
3544	0.9453
3535	0.9458
3526	0.9435
3517	0.9429
3508	0.9426
3499	0.9426
3490	0.9426
3481	0.9426
3472	0.9426
3463	0.9429
3454	0.9433
3445	0.9437
3436	0.944
3427	0.9438
3418	0.9437
3409	0.9437
3400	0.9439
3391	0.9441
3382	0.9445
3373	0.9449
3364	0.9456
3355	0.9462
3346	0.9464
3337	0.9484
3328	0.9466
3319	0.9466
3310	0.9484
3301	0.9462
3292	0.9462
3283	0.9482
3274	0.9484
3265	0.9491
3256	0.9485
3247	0.9512
3238	0.9501
3229	0.9473
3220	0.9469
3211	0.9461
3202	0.9433
3193	0.9449
3184	0.9425
3175	0.9405
3166	0.9351
3157	0.9371
3148	0.9364
3139	0.9379
3130	0.9375
3121	0.9356
3112	0.9318
3103	0.9188
3094	0.9017
3085	0.8999
3076	0.8549
3067	0.8539
3058	0.8938
3049	0.9188
3040	0.9392
3031	0.9309
3022	0.9267
3013	0.9266
3004	0.9268
2995	0.9253
2986	0.9299
2977	0.9365
2968	0.9444
2959	0.9488
2950	0.9494
2941	0.9443
2932	0.934
2923	0.9322
2914	0.9291
2905	0.927
2896	0.9246
2887	0.9089
2878	0.8895
2869	0.8774
2860	0.8892
2851	0.9041
2842	0.9229
2833	0.9297
2824	0.9322
2815	0.9329
2806	0.935
2797	0.9352
2788	0.9336
2779	0.9359
2770	0.9369
2761	0.9382
2752	0.9395
2743	0.9399
2734	0.9397
2725	0.9386
2716	0.9373
2707	0.9353
2698	0.9333
2689	0.9313
2680	0.9319
2671	0.9327
2662	0.9365
2653	0.9405
2644	0.9398
2635	0.9402
2626	0.941
2617	0.9395
2608	0.9348
2599	0.9314
2590	0.9317
2581	0.9319
2572	0.9332
2563	0.9351
2554	0.9373
2545	0.94
2536	0.9419
2527	0.9434
2518	0.9445
2509	0.944
2500	0.9431
2491	0.9417
2482	0.941
2473	0.9422
2464	0.9417
2455	0.9395
2446	0.9413
2437	0.9412
2428	0.9409
2419	0.9407
2410	0.9427
2401	0.9465
2392	0.9388
2383	0.9363
2374	0.9364
2365	0.9484
2356	0.9302
2347	0.9516
2338	0.9452
2329	0.9462
2320	0.9488
2311	0.9477
2302	0.9453
2293	0.9467
2284	0.9447
2275	0.9394
2266	0.9405
2257	0.9406
2248	0.9401
2239	0.9409
2230	0.9409
2221	0.9411
2212	0.9428
2203	0.9442
2194	0.944
2185	0.9384
2176	0.94
2167	0.9409
2158	0.9431
2149	0.9442
2140	0.9447
2131	0.9453
2122	0.9439
2113	0.9458
2104	0.9459
2095	0.9461
2086	0.9464
2077	0.9468
2068	0.9464
2059	0.9428
2050	0.9393
2041	0.9391
2032	0.9429
2023	0.9439
2014	0.9449
2005	0.9466
1996	0.9375
1987	0.9384
1978	0.9303
1969	0.9146
1960	0.9223
1951	0.9303
1942	0.9324
1933	0.9041
1924	0.9104
1915	0.9288
1906	0.932
1897	0.9263
1888	0.9277
1879	0.9339
1870	0.938
1861	0.9315
1852	0.923
1843	0.9208
1834	0.9261
1825	0.9226
1816	0.9063
1807	0.9113
1798	0.9233
1789	0.9283
1780	0.9343
1771	0.9404
1762	0.9312
1753	0.9283
1744	0.9304
1735	0.9266
1726	0.9206
1717	0.9217
1708	0.9266
1699	0.931
1690	0.9301
1681	0.9324
1672	0.9271
1663	0.9252
1654	0.9188
1645	0.9056
1636	0.9004
1627	0.9015
1618	0.8826
1609	0.8794
1600	0.8657
1591	0.4959
1582	0.217
1573	0.3749
1564	0.6374
1555	0.6389
1546	0.1067
1537	0.0297
1528	0.0112
1519	0.408
1510	0.6462
1501	0.7073
1492	0.7564
1483	0.8099
1474	0.8364
1465	0.801
1456	0.3961
1447	0.8232
1438	0.8212
1429	0.7877
1420	0.8606
1411	0.8862
1402	0.8922
1393	0.8915
1384	0.8624
1375	0.7968
1366	0.5545
1357	0.2108
1348	0.0681
1339	0.1436
1330	0.5421
1321	0.7185
1312	0.798
1303	0.8201
1294	0.7185
1285	0.7146
1276	0.8521
1267	0.8598
1258	0.8219
1249	0.6972
1240	0.8831
1231	0.9149
1222	0.9213
1213	0.9322
1204	0.9361
1195	0.9329
1186	0.9299
1177	0.9114
1168	0.9088
1159	0.846
1150	0.9042
1141	0.8677
1132	0.9113
1123	0.9257
1114	0.9336
1105	0.8943
1096	0.9084
1087	0.9163
1078	0.9171
1069	0.922
1060	0.9283
1051	0.9251
1042	0.9066
1033	0.8233
1024	0.5064
1015	0.6915
1006	0.8558
997	0.8987
988	0.9072
979	0.9092
970	0.9121
961	0.9145
952	0.8994
943	0.8307
934	0.9105
925	0.9193
916	0.9246
907	0.9289
898	0.9312
889	0.9424
880	0.9402
871	0.904
862	0.8572
853	0.4721
844	0.6058
835	0.8727
826	0.9064
817	0.9138
808	0.9226
799	0.9189
790	0.9063
781	0.7302
772	0.4492
763	0.8059
754	0.8487
745	0.8458
736	0.776
727	0.0328
718	0.6609
709	0.8386
700	0.8602
691	0.5083
682	0.8421
673	0.9078
664	0.9336
655	0.9425
646	0.908
637	0.7449
628	0.8849
619	0.9373
610	0.9485
601	0.9496
592	0.9506
583	0.9417
574	0.9314
565	0.9268
556	0.9263
547	0.9312
538	0.9387
529	0.9436
520	0.9437
511	0.9399
502	0.9334
493	0.9216
484	0.9079
475	0.8916
466	0.872
457	0.845
448	0.7947
439	0.7836
430	0.7807
