Infrared Spectrum: Benzene, 1-iodo-2-nitro-,
Formula: C6 H4 I N O2
CAS: 609-73-4
State: SOLUTION (10% CCl4 FOR 3800-1330, 10% CS2 FOR 1330-450 CM^-^1)
Class: COBLENTZ III
Instrument: DOW KBr FOREPRISM-GRATING
Instrument parameters: BLAZED AT 3.5, 12.0, 20.0 MICRON AND CHANGED AT 5.0, 7.5, 14.9 MICRON
Path length: 0.0112 CM, 0.0109 CM
Resolution: 2
Origin: DOW CHEMICAL COMPANY
1/CM	TRANSMITTANCE
424	0.7382
433	0.7394
442	0.7424
451	0.7498
460	0.7885
469	0.8268
478	0.8472
487	0.8599
496	0.8695
505	0.8779
514	0.8843
523	0.8903
532	0.8931
541	0.8928
550	0.8886
559	0.8805
568	0.8781
577	0.881
586	0.8894
595	0.8967
604	0.8983
613	0.8958
622	0.8882
631	0.8098
640	0.7746
649	0.8139
658	0.8385
667	0.8527
676	0.8402
685	0.7707
694	0.4495
703	0.8067
712	0.7723
721	0.5389
730	0.0979
739	0.7331
748	0.7944
757	0.8021
766	0.75
775	0.3815
784	0.7418
793	0.8442
802	0.8531
811	0.8555
820	0.8573
829	0.8341
838	0.7738
847	0.4974
856	0.5529
865	0.7118
874	0.7701
883	0.8155
892	0.848
901	0.8657
910	0.8713
919	0.8729
928	0.8696
937	0.862
946	0.796
955	0.8516
964	0.8639
973	0.8637
982	0.86
991	0.8556
1000	0.8526
1009	0.7846
1018	0.6478
1027	0.4855
1036	0.7621
1045	0.8513
1054	0.8618
1063	0.8688
1072	0.866
1081	0.8611
1090	0.8555
1099	0.8477
1108	0.8346
1117	0.8679
1126	0.8662
1135	0.8518
1144	0.8197
1153	0.8491
1162	0.7926
1171	0.8551
1180	0.8535
1189	0.8721
1198	0.8753
1207	0.876
1216	0.8712
1225	0.8641
1234	0.8545
1243	0.8271
1252	0.6522
1261	0.7944
1270	0.8149
1279	0.803
1288	0.6808
1297	0.6952
1306	0.7743
1315	0.7478
1324	0.6664
1333	0.4522
1342	0.1792
1351	0.073
1360	0.2615
1369	0.5852
1378	0.7486
1387	0.7918
1396	0.8237
1405	0.8311
1414	0.8282
1423	0.8012
1432	0.735
1441	0.7699
1450	0.7636
1459	0.3698
1468	0.7503
1477	0.7601
1486	0.7109
1495	0.6513
1504	0.5575
1513	0.4731
1522	0.2764
1531	0.007
1540	0.0302
1549	0.089
1558	0.3141
1567	0.3495
1576	0.2419
1585	0.1395
1594	0.3955
1603	0.6345
1612	0.7499
1621	0.7998
1630	0.8261
1639	0.8337
1648	0.8452
1657	0.8586
1666	0.866
1675	0.8716
1684	0.8727
1693	0.878
1702	0.8772
1711	0.8747
1720	0.8679
1729	0.8676
1738	0.8746
1747	0.8797
1756	0.8761
1765	0.8823
1774	0.8872
1783	0.8818
1792	0.8789
1801	0.8686
1810	0.855
1819	0.8564
1828	0.8696
1837	0.8724
1846	0.8645
1855	0.8698
1864	0.8752
1873	0.8825
1882	0.8799
1891	0.8757
1900	0.872
1909	0.8792
1918	0.8745
1927	0.857
1936	0.8563
1945	0.8791
1954	0.8757
1963	0.8565
1972	0.8664
1981	0.8752
1990	0.8775
1999	0.8782
2008	0.8844
2017	0.8815
2026	0.8843
2035	0.8831
2044	0.8789
2053	0.8762
2062	0.8803
2071	0.8831
2080	0.8834
2089	0.8837
2098	0.8828
2107	0.8819
2116	0.8812
2125	0.8806
2134	0.8809
2143	0.8812
2152	0.8814
2161	0.8812
2170	0.8811
2179	0.8801
2188	0.8808
2197	0.8823
2206	0.8818
2215	0.8808
2224	0.8792
2233	0.8769
2242	0.8747
2251	0.8717
2260	0.8684
2269	0.8646
2278	0.8601
2287	0.8593
2296	0.8597
2305	0.8624
2314	0.8651
2323	0.8635
2332	0.8641
2341	0.8727
2350	0.857
2359	0.8628
2368	0.8675
2377	0.8634
2386	0.8678
2395	0.8743
2404	0.8773
2413	0.877
2422	0.8767
2431	0.877
2440	0.8775
2449	0.8779
2458	0.8781
2467	0.8775
2476	0.8769
2485	0.8769
2494	0.8769
2503	0.8782
2512	0.88
2521	0.8799
2530	0.8796
2539	0.8788
2548	0.8777
2557	0.876
2566	0.8744
2575	0.8723
2584	0.8703
2593	0.8699
2602	0.8702
2611	0.8754
2620	0.8777
2629	0.8797
2638	0.8795
2647	0.8789
2656	0.8769
2665	0.8737
2674	0.8705
2683	0.8692
2692	0.8701
2701	0.8721
2710	0.874
2719	0.8747
2728	0.8755
2737	0.8761
2746	0.8769
2755	0.877
2764	0.8759
2773	0.8758
2782	0.8758
2791	0.8754
2800	0.875
2809	0.8745
2818	0.8738
2827	0.8721
2836	0.8695
2845	0.8549
2854	0.8319
2863	0.8222
2872	0.8299
2881	0.8471
2890	0.8615
2899	0.8665
2908	0.868
2917	0.8699
2926	0.8732
2935	0.8777
2944	0.8834
2953	0.882
2962	0.8798
2971	0.8772
2980	0.874
2989	0.8709
2998	0.8692
3007	0.8686
3016	0.8686
3025	0.8694
3034	0.8682
3043	0.8603
3052	0.8529
3061	0.7982
3070	0.812
3079	0.8451
3088	0.8441
3097	0.8599
3106	0.8712
3115	0.8761
3124	0.8793
3133	0.881
3142	0.8815
3151	0.8817
3160	0.8817
3169	0.8832
3178	0.8896
3187	0.8907
3196	0.8897
3205	0.8885
3214	0.8879
3223	0.8905
3232	0.8933
3241	0.8944
3250	0.8942
3259	0.8942
3268	0.8942
3277	0.8943
3286	0.8949
3295	0.8948
3304	0.8946
3313	0.8942
3322	0.8934
3331	0.8926
3340	0.8918
3349	0.891
3358	0.8907
3367	0.8904
3376	0.8902
3385	0.8899
3394	0.8897
3403	0.8896
3412	0.8897
3421	0.8897
3430	0.8898
3439	0.8898
3448	0.89
3457	0.8902
3466	0.8905
3475	0.8907
3484	0.891
3493	0.891
3502	0.8909
3511	0.8908
3520	0.8907
3529	0.8906
3538	0.8904
3547	0.89
3556	0.8896
3565	0.8892
3574	0.8888
3583	0.8884
3592	0.8882
3601	0.8879
3610	0.8877
3619	0.8874
3628	0.8872
3637	0.887
3646	0.8867
3655	0.8864
3664	0.8866
3673	0.8872
3682	0.8863
3691	0.8861
3700	0.8847
3709	0.8819
3718	0.8827
3727	0.8866
3736	0.8949
3745	0.895
3754	0.894
3763	0.8932
3772	0.8927
3781	0.892
3790	0.8915
3799	0.8909
