Infrared Spectrum: BENZOIC ACID, o-NITRO-, ETHYL ESTER
Formula: C9 H9 N O4
CAS: 610-34-4
State: SOLUTION (2% CCl4 FOR 3800-1330, 2% CS2 FOR 1330-400 CM^-^1)
Class: COBLENTZ III
Instrument: DOW KBr FOREPRISM-GRATING
Instrument parameters: BLAZED AT 3.5, 12.0, 20.0 MICRON AND CHANGED AT 5.0, 7.5, 14.9 MICRON
Sampling: TRANSMISSION
Path length: 0.011 CM, 0.010 CM
Resolution: 2
Origin: DOW CHEMICAL COMPANY
1/CM	TRANSMITTANCE
384	0.2164
393	0.2392
402	0.3777
411	0.6167
420	0.6775
429	0.7106
438	0.7269
447	0.7353
456	0.7408
465	0.7493
474	0.7539
483	0.7582
492	0.7618
501	0.7665
510	0.7725
519	0.7797
528	0.7861
537	0.7871
546	0.7854
555	0.7821
564	0.7775
573	0.7785
582	0.7938
591	0.7953
600	0.7961
609	0.7901
618	0.7815
627	0.7918
636	0.7855
645	0.7351
654	0.7867
663	0.8068
672	0.8106
681	0.8035
690	0.7672
699	0.6578
708	0.8012
717	0.7958
726	0.7171
735	0.592
744	0.7654
753	0.8291
762	0.8295
771	0.7911
780	0.7208
789	0.7881
798	0.857
807	0.8638
816	0.8713
825	0.8682
834	0.8387
843	0.6744
852	0.7014
861	0.7118
870	0.7581
879	0.8217
888	0.8639
897	0.8891
906	0.896
915	0.8974
924	0.8967
933	0.8937
942	0.8899
951	0.8651
960	0.8825
969	0.8835
978	0.8744
987	0.8609
996	0.8371
1005	0.7898
1014	0.7608
1023	0.8165
1032	0.7868
1041	0.8065
1050	0.8205
1059	0.8008
1068	0.6388
1077	0.6265
1086	0.7725
1095	0.7307
1104	0.726
1113	0.6522
1122	0.4849
1131	0.57
1140	0.7291
1149	0.7565
1158	0.7646
1167	0.7578
1176	0.7446
1185	0.7934
1194	0.8045
1203	0.8091
1212	0.8078
1221	0.8007
1230	0.7869
1239	0.7512
1248	0.6338
1257	0.4253
1266	0.6202
1275	0.5229
1284	0.4434
1293	0.3223
1302	0.4935
1311	0.6686
1320	0.7597
1329	0.7665
1338	0.7345
1347	0.5493
1356	0.4433
1365	0.5223
1374	0.6751
1383	0.7475
1392	0.7495
1401	0.7838
1410	0.7978
1419	0.8022
1428	0.8034
1437	0.7875
1446	0.6668
1455	0.7701
1464	0.751
1473	0.7493
1482	0.7212
1491	0.7417
1500	0.7028
1509	0.6321
1518	0.5678
1527	0.4402
1536	0.2019
1545	0.0801
1554	0.2448
1563	0.4553
1572	0.5264
1581	0.5146
1590	0.5904
1599	0.6639
1608	0.7108
1617	0.7517
1626	0.7971
1635	0.8211
1644	0.8303
1653	0.831
1662	0.8281
1671	0.8216
1680	0.8134
1689	0.8025
1698	0.7884
1707	0.7708
1716	0.6971
1725	0.5657
1734	0.241
1743	0.2363
1752	0.59
1761	0.7582
1770	0.8001
1779	0.8165
1788	0.8261
1797	0.8292
1806	0.8313
1815	0.832
1824	0.8314
1833	0.8293
1842	0.8287
1851	0.8328
1860	0.8356
1869	0.8378
1878	0.8411
1887	0.843
1896	0.8427
1905	0.8427
1914	0.8436
1923	0.8453
1932	0.843
1941	0.8373
1950	0.8539
1959	0.9678
1968	0.84
1977	0.8363
1986	0.8363
1995	0.8328
2004	0.8339
2013	0.8331
2022	0.8314
2031	0.8368
2040	0.8371
2049	0.8368
2058	0.8313
2067	0.8374
2076	0.8421
2085	0.8418
2094	0.8414
2103	0.8413
2112	0.8412
2121	0.841
2130	0.8408
2139	0.8405
2148	0.8407
2157	0.8412
2166	0.8417
2175	0.8425
2184	0.8434
2193	0.8439
2202	0.8441
2211	0.8431
2220	0.8408
2229	0.8408
2238	0.8398
2247	0.837
2256	0.8339
2265	0.83
2274	0.8255
2283	0.8212
2292	0.8188
2301	0.8194
2310	0.8263
2319	0.8349
2328	0.8308
2337	0.8357
2346	0.8383
2355	0.8395
2364	0.8399
2373	0.8391
2382	0.8402
2391	0.8434
2400	0.8459
2409	0.8474
2418	0.8478
2427	0.8481
2436	0.8485
2445	0.8489
2454	0.8496
2463	0.8502
2472	0.8506
2481	0.8506
2490	0.8506
2499	0.8506
2508	0.8507
2517	0.8508
2526	0.8509
2535	0.8509
2544	0.8509
2553	0.8509
2562	0.8509
2571	0.8509
2580	0.8513
2589	0.8516
2598	0.8518
2607	0.8521
2616	0.8523
2625	0.8524
2634	0.8525
2643	0.8523
2652	0.8518
2661	0.8517
2670	0.8521
2679	0.8524
2688	0.8528
2697	0.8534
2706	0.8541
2715	0.8549
2724	0.856
2733	0.8568
2742	0.8575
2751	0.857
2760	0.8566
2769	0.8562
2778	0.8566
2787	0.8573
2796	0.8585
2805	0.8586
2814	0.8581
2823	0.8575
2832	0.8568
2841	0.8546
2850	0.8443
2859	0.8353
2868	0.8335
2877	0.8374
2886	0.8318
2895	0.8249
2904	0.8323
2913	0.8432
2922	0.8332
2931	0.8195
2940	0.8342
2949	0.8321
2958	0.8151
2967	0.8005
2976	0.7645
2985	0.7535
2994	0.7939
3003	0.8317
3012	0.8513
3021	0.8593
3030	0.8606
3039	0.8617
3048	0.8601
3057	0.8561
3066	0.853
3075	0.8578
3084	0.8653
3093	0.8691
3102	0.8715
3111	0.873
3120	0.8741
3129	0.8748
3138	0.8755
3147	0.8762
3156	0.8768
3165	0.8773
3174	0.8777
3183	0.878
3192	0.8786
3201	0.8791
3210	0.8796
3219	0.88
3228	0.8805
3237	0.881
3246	0.8818
3255	0.8824
3264	0.8833
3273	0.8841
3282	0.8846
3291	0.8849
3300	0.8853
3309	0.885
3318	0.8847
3327	0.8843
3336	0.8835
3345	0.8821
3354	0.8823
3363	0.8833
3372	0.8849
3381	0.8859
3390	0.8866
3399	0.8868
3408	0.8868
3417	0.8857
3426	0.8836
3435	0.8809
3444	0.8788
3453	0.8778
3462	0.878
3471	0.8794
3480	0.8816
3489	0.8834
3498	0.8841
3507	0.8835
3516	0.8831
3525	0.8828
3534	0.8825
3543	0.8821
3552	0.882
3561	0.8818
3570	0.8817
3579	0.8817
3588	0.8818
3597	0.8815
3606	0.8811
3615	0.8806
3624	0.8803
3633	0.8799
3642	0.8798
3651	0.88
3660	0.8802
3669	0.8804
3678	0.8808
3687	0.8811
3696	0.8815
3705	0.8814
3714	0.8813
3723	0.8811
3732	0.881
3741	0.8806
3750	0.8802
3759	0.8802
3768	0.8806
3777	0.8806
3786	0.8805
3795	0.8803
