Infrared Spectrum: 2,Alpha-Dichlorotoluene
Formula: C7 H6 Cl2
CAS: 611-19-8
State: SOLUTION (10% CCl4 FOR 3800-1335, 10% CS2 FOR 1335-450 CM^-^1)
Class: COBLENTZ III
Instrument: DOW KBr FOREPRISM-GRATING
Instrument parameters: BLAZED AT 3.5, 12.0, 20.0 MICRON AND CHANGED AT 5.0, 7.5, 14.9 MICRON
Sampling: TRANSMISSION
Path length: 0.011 CM, 0.011 CM
Resolution: 2
Origin: DOW CHEMICAL COMPANY
1/CM	TRANSMITTANCE
3816	0.9252
3807	0.9244
3798	0.9232
3789	0.9236
3780	0.9237
3771	0.9238
3762	0.9241
3753	0.9244
3744	0.9247
3735	0.9256
3726	0.9251
3717	0.9247
3708	0.9254
3699	0.9253
3690	0.9243
3681	0.9233
3672	0.9233
3663	0.923
3654	0.9227
3645	0.9222
3636	0.922
3627	0.9231
3618	0.923
3609	0.9232
3600	0.9232
3591	0.9241
3582	0.9246
3573	0.9251
3564	0.9246
3555	0.9262
3546	0.9273
3537	0.9279
3528	0.9282
3519	0.9291
3510	0.9309
3501	0.9329
3492	0.9353
3483	0.9376
3474	0.9404
3465	0.9429
3456	0.9458
3447	0.9484
3438	0.951
3429	0.954
3420	0.9571
3411	0.9592
3402	0.9613
3393	0.9605
3384	0.9573
3375	0.9545
3366	0.9517
3357	0.9489
3348	0.9483
3339	0.9485
3330	0.9483
3321	0.9475
3312	0.947
3303	0.9441
3294	0.9423
3285	0.9401
3276	0.9379
3267	0.9358
3258	0.9329
3249	0.9313
3240	0.9299
3231	0.9285
3222	0.9265
3213	0.9244
3204	0.9212
3195	0.9198
3186	0.9167
3177	0.9137
3168	0.9112
3159	0.9085
3150	0.9043
3141	0.9058
3132	0.9066
3123	0.9037
3114	0.9006
3105	0.8955
3096	0.8644
3087	0.8029
3078	0.7351
3069	0.7355
3060	0.7854
3051	0.8551
3042	0.8621
3033	0.8255
3024	0.8314
3015	0.8579
3006	0.8673
2997	0.868
2988	0.859
2979	0.7586
2970	0.7642
2961	0.8363
2952	0.8616
2943	0.877
2934	0.8872
2925	0.8947
2916	0.8971
2907	0.9001
2898	0.8991
2889	0.897
2880	0.8859
2871	0.8663
2862	0.87
2853	0.8881
2844	0.8943
2835	0.8956
2826	0.8987
2817	0.8995
2808	0.9017
2799	0.9028
2790	0.903
2781	0.9027
2772	0.9029
2763	0.9023
2754	0.9008
2745	0.899
2736	0.8972
2727	0.8958
2718	0.8939
2709	0.8929
2700	0.8934
2691	0.8957
2682	0.8977
2673	0.8993
2664	0.8997
2655	0.8949
2646	0.8943
2637	0.8937
2628	0.8968
2619	0.8985
2610	0.8996
2601	0.8988
2592	0.8962
2583	0.8955
2574	0.896
2565	0.897
2556	0.8979
2547	0.898
2538	0.898
2529	0.8981
2520	0.8984
2511	0.8987
2502	0.8991
2493	0.8991
2484	0.899
2475	0.8999
2466	0.8997
2457	0.8988
2448	0.8991
2439	0.8989
2430	0.8986
2421	0.8979
2412	0.897
2403	0.8969
2394	0.8967
2385	0.8985
2376	0.9017
2367	0.9009
2358	0.9012
2349	0.8955
2340	0.888
2331	0.884
2322	0.8877
2313	0.8902
2304	0.8896
2295	0.8892
2286	0.888
2277	0.8864
2268	0.8873
2259	0.8894
2250	0.8896
2241	0.8916
2232	0.8938
2223	0.8961
2214	0.8974
2205	0.8989
2196	0.8994
2187	0.8986
2178	0.8993
2169	0.8992
2160	0.898
2151	0.8977
2142	0.8974
2133	0.8969
2124	0.8967
2115	0.8963
2106	0.8938
2097	0.894
2088	0.8982
2079	0.9002
2070	0.8979
2061	0.8953
2052	0.8939
2043	0.8914
2034	0.8901
2025	0.89
2016	0.892
2007	0.8933
1998	0.8943
1989	0.8953
1980	0.8942
1971	0.8907
1962	0.8882
1953	0.8495
1944	0.8775
1935	0.8861
1926	0.867
1917	0.8406
1908	0.8727
1899	0.8847
1890	0.8778
1881	0.8772
1872	0.8858
1863	0.8819
1854	0.8847
1845	0.8784
1836	0.8631
1827	0.8702
1818	0.8785
1809	0.859
1800	0.827
1791	0.865
1782	0.8819
1773	0.8838
1764	0.885
1755	0.8865
1746	0.8821
1737	0.8764
1728	0.8703
1719	0.8724
1710	0.8734
1701	0.8641
1692	0.8741
1683	0.8764
1674	0.8843
1665	0.8899
1656	0.8984
1647	0.9181
1638	0.9262
1629	0.8877
1620	0.8685
1611	0.8642
1602	0.8428
1593	0.5954
1584	0.7198
1575	0.5574
1566	0.6832
1557	0.7006
1548	0.6686
1539	0.667
1530	0.7439
1521	0.7721
1512	0.7804
1503	0.7794
1494	0.6842
1485	0.6081
1476	0.2047
1467	0.6383
1458	0.7635
1449	0.3042
1440	0.3538
1431	0.7108
1422	0.7674
1413	0.8212
1404	0.8474
1395	0.8858
1386	0.8947
1377	0.8952
1368	0.9067
1359	0.908
1350	0.8935
1341	0.8837
1332	0.8821
1323	0.878
1314	0.8655
1305	0.768
1296	0.7678
1287	0.6913
1278	0.6123
1269	0.5781
1260	0.5492
1251	0.8204
1242	0.855
1233	0.8737
1224	0.8788
1215	0.8111
1206	0.8221
1197	0.8537
1188	0.8496
1179	0.8403
1170	0.8497
1161	0.8025
1152	0.8199
1143	0.8333
1134	0.8161
1125	0.6108
1116	0.8054
1107	0.8522
1098	0.847
1089	0.8424
1080	0.8528
1071	0.8296
1062	0.5497
1053	0.3626
1044	0.4833
1035	0.6303
1026	0.7934
1017	0.786
1008	0.8308
999	0.8605
990	0.8737
981	0.8739
972	0.8656
963	0.8673
954	0.8424
945	0.748
936	0.8586
927	0.8712
918	0.8673
909	0.7955
900	0.8409
891	0.8654
882	0.8319
873	0.7922
864	0.7703
855	0.8013
846	0.8385
837	0.8317
828	0.2572
819	0.7531
810	0.8418
801	0.8609
792	0.866
783	0.8539
774	0.7927
765	0.218
756	0.3331
747	0.2317
738	0.0128
729	0.6173
720	0.7954
711	0.807
702	0.7075
693	0.2872
684	0.4714
675	0.1091
666	0.7372
657	0.8305
648	0.8578
639	0.8793
630	0.9014
621	0.9164
612	0.9263
603	0.9268
594	0.9167
585	0.8882
576	0.5904
567	0.8793
558	0.9101
549	0.9172
540	0.9229
531	0.9279
522	0.9262
513	0.8492
504	0.8632
495	0.8892
486	0.89
477	0.8781
468	0.8581
459	0.8174
