Infrared Spectrum: TOLUENE, o-ETHYL
Formula: C9 H12
CAS: 611-14-3
State: SOLUTION (10% IN CCl4 FOR 3800-1300, 10% IN CS2 FOR 1300-650, AND 10% CCl4 FPR 650-220 CM^-^1) VERSUS SOLVENT
Class: COBLENTZ
Instrument: Not specified, most likely a grating or hybrid spectrometer.
Sampling: TRANSMISSION
Path length: 0.011, 0.010, AND 0.010 CM (CsBr CELL)
Resolution: 4
Origin: DOW CORNING CORP.
1/CM	TRANSMITTANCE
234.493	0.804
243.436	0.797
252.378	0.797
261.321	0.796
270.263	0.797
279.206	0.796
288.148	0.797
297.091	0.806
306.033	0.803
314.976	0.803
323.918	0.818
332.861	0.837
341.803	0.844
350.746	0.85
359.688	0.855
368.631	0.858
377.573	0.858
386.516	0.865
395.459	0.858
404.401	0.851
413.344	0.857
422.286	0.853
431.229	0.81
440.171	0.782
449.114	0.6812
458.056	0.7168
466.999	0.853
475.941	0.874
484.884	0.885
493.826	0.869
502.769	0.865
511.711	0.885
520.654	0.888
529.596	0.886
538.539	0.879
547.482	0.848
556.424	0.846
565.367	0.879
574.309	0.879
583.252	0.853
592.194	0.883
601.137	0.895
610.079	0.891
619.022	0.907
627.964	0.921
636.907	0.919
645.849	0.921
654.792	0.979
663.734	0.984
672.677	0.989
681.62	0.998
690.562	0.991
699.505	0.991
708.447	0.989
717.39	0.968
726.332	0.834
735.275	0.3101
744.217	0.2611
753.16	0.47
762.102	0.059
771.045	0.6841
779.987	0.893
788.93	0.865
797.872	0.759
806.815	0.8549
815.757	0.97
824.7	0.947
833.643	0.979
842.585	0.989
851.528	0.991
860.47	0.963
869.413	0.963
878.355	0.991
887.298	1
896.24	1
905.183	0.993
914.125	0.991
923.068	0.984
932.01	0.968
940.953	0.8251
949.895	0.961
958.838	0.939
967.78	0.832
976.723	0.914
985.666	0.921
994.608	0.944
1003.55	0.961
1012.49	0.963
1021.44	0.942
1030.38	0.851
1039.32	0.79
1048.26	0.874
1057.21	0.796
1066.15	0.613
1075.09	0.9419
1084.03	0.97
1092.98	0.989
1101.92	0.989
1110.86	0.977
1119.8	0.921
1128.75	0.878
1137.69	0.956
1146.63	0.97
1155.57	0.961
1164.52	0.952
1173.46	0.947
1182.4	0.947
1191.34	0.972
1200.29	0.982
1209.23	0.979
1218.17	0.97
1227.11	0.975
1236.06	0.968
1245	0.958
1253.94	0.965
1262.88	0.972
1271.83	0.961
1280.77	0.942
1289.71	0.919
1298.65	0.881
1307.6	0.862
1316.54	0.858
1325.48	0.834
1334.42	0.832
1343.37	0.818
1352.31	0.858
1361.25	0.851
1370.19	0.82
1379.14	0.66
1388.08	0.623
1397.02	0.831
1405.96	0.832
1414.91	0.817
1423.85	0.79
1432.79	0.7051
1441.73	0.635
1450.68	0.487
1459.62	0.3012
1468.56	0.224
1477.5	0.468
1486.45	0.588
1495.39	0.3132
1504.33	0.4978
1513.27	0.797
1522.22	0.848
1531.16	0.858
1540.1	0.878
1549.04	0.886
1557.99	0.888
1566.93	0.888
1575.87	0.869
1584.82	0.836
1593.76	0.832
1602.7	0.815
1611.64	0.6931
1620.59	0.853
1629.53	0.874
1638.47	0.881
1647.41	0.888
1656.36	0.888
1665.3	0.883
1674.24	0.881
1683.18	0.878
1692.13	0.864
1701.07	0.872
1710.01	0.878
1718.95	0.872
1727.9	0.862
1736.84	0.876
1745.78	0.888
1754.72	0.893
1763.67	0.895
1772.61	0.893
1781.55	0.89
1790.49	0.881
1799.44	0.824
1808.38	0.874
1817.32	0.891
1826.26	0.89
1835.21	0.862
1844.15	0.881
1853.09	0.898
1862.03	0.893
1870.98	0.878
1879.92	0.879
1888.86	0.886
1897.8	0.869
1906.75	0.8271
1915.69	0.811
1924.63	0.888
1933.57	0.891
1942.52	0.867
1951.46	0.846
1960.4	0.895
1969.34	0.902
1978.29	0.904
1987.23	0.902
1996.17	0.904
2005.11	0.902
2014.06	0.904
2023	0.904
2031.94	0.905
2040.88	0.904
2049.83	0.9045
2058.77	0.904
2067.71	0.904
2076.65	0.904
2085.6	0.904
2094.54	0.9021
2103.48	0.9
2112.42	0.902
2121.37	0.9029
2130.31	0.904
2139.25	0.9011
2148.19	0.902
2157.14	0.9
2166.08	0.9
2175.02	0.9
2183.96	0.9
2192.91	0.8991
2201.85	0.8981
2210.79	0.898
2219.73	0.898
2228.68	0.898
2237.62	0.898
2246.56	0.897
2255.5	0.897
2264.45	0.8976
2273.39	0.8952
2282.33	0.893
2291.27	0.8948
2300.22	0.898
2309.16	0.898
2318.1	0.8976
2327.05	0.897
2335.99	0.8988
2344.93	0.898
2353.87	0.898
2362.82	0.8998
2371.76	0.8992
2380.7	0.8971
2389.64	0.893
2398.59	0.897
2407.53	0.8922
2416.47	0.891
2425.41	0.891
2434.36	0.891
2443.3	0.8937
2452.24	0.895
2461.18	0.8957
2470.13	0.895
2479.07	0.8956
2488.01	0.891
2496.95	0.891
2505.9	0.891
2514.84	0.893
2523.78	0.893
2532.72	0.891
2541.67	0.891
2550.61	0.891
2559.55	0.891
2568.49	0.891
2577.44	0.89
2586.38	0.891
2595.32	0.891
2604.26	0.8924
2613.21	0.891
2622.15	0.891
2631.09	0.8884
2640.03	0.89
2648.98	0.891
2657.92	0.8916
2666.86	0.8914
2675.8	0.891
2684.75	0.893
2693.69	0.891
2702.63	0.8902
2711.57	0.888
2720.52	0.879
2729.46	0.8608
2738.4	0.853
2747.34	0.8626
2756.29	0.8756
2765.23	0.8704
2774.17	0.869
2783.11	0.8635
2792.06	0.8572
2801	0.8545
2809.94	0.85
2818.88	0.8332
2827.83	0.8033
2836.77	0.7749
2845.71	0.7153
2854.65	0.691
2863.6	0.6285
2872.54	0.4346
2881.48	0.2508
2890.42	0.3083
2899.37	0.412
2908.31	0.402
2917.25	0.3932
2926.19	0.3371
2935.14	0.2749
2944.08	0.1807
2953.02	0.2263
2961.96	0.236
2970.91	0.0926
2979.85	0.0531
2988.79	0.1445
2997.73	0.4491
3006.68	0.5586
3015.62	0.5095
3024.56	0.3604
3033.5	0.3922
3042.45	0.5086
3051.39	0.562
3060.33	0.5626
3069.28	0.5076
3078.22	0.5332
3087.16	0.5833
3096.1	0.7577
3105.05	0.7557
3113.99	0.7829
3122.93	0.8551
3131.87	0.879
3140.82	0.8814
3149.76	0.8816
3158.7	0.881
3167.64	0.8843
3176.59	0.895
3185.53	0.9013
3194.47	0.9053
3203.41	0.909
3212.36	0.9093
3221.3	0.9117
3230.24	0.914
3239.18	0.914
3248.13	0.916
3257.07	0.914
3266.01	0.912
3274.95	0.912
3283.9	0.911
3292.84	0.911
3301.78	0.911
3310.72	0.9097
3319.67	0.9087
3328.61	0.907
3337.55	0.905
3346.49	0.905
3355.44	0.902
3364.38	0.904
3373.32	0.904
3382.26	0.902
3391.21	0.902
3400.15	0.9032
3409.09	0.907
3418.03	0.9058
3426.98	0.907
3435.92	0.9082
3444.86	0.909
3453.8	0.909
3462.75	0.909
3471.69	0.909
3480.63	0.909
3489.57	0.907
3498.52	0.911
3507.46	0.909
3516.4	0.909
3525.34	0.911
3534.29	0.911
3543.23	0.9116
3552.17	0.9121
3561.11	0.9151
3570.06	0.916
3579	0.916
3587.94	0.918
3596.88	0.918
3605.83	0.919
3614.77	0.921
3623.71	0.925
3632.65	0.9239
3641.6	0.925
3650.54	0.926
3659.48	0.925
3668.42	0.9271
3677.37	0.926
3686.31	0.925
3695.25	0.926
3704.19	0.93
3713.14	0.928
3722.08	0.928
3731.02	0.932
3739.96	0.932
3748.91	0.932
3757.85	0.93
3766.79	0.926
3775.73	0.928
3784.68	0.93
