Infrared Spectrum: Alpha,O-DICHLOROTOLUENE
Formula: C7 H6 Cl2
CAS: 611-19-8
State: SOLID (MULL)
Boiling point: 94-95 C AT 10 mmHg
Class: COBLENTZ
Instrument: Not specified, most likely a prism, grating, or hybrid spectrometer.
Sampling: TRANSMISSION
Resolution: 4
Origin: WYANDOTTE CHEMICALS CORP., WYANDOTTE, MICHIGAN, USA
MICROMETERS	TRANSMITTANCE
2.004	0.967
2.04279	0.961
2.08159	0.962
2.12038	0.965
2.15918	0.965
2.19797	0.965
2.23677	0.965
2.27556	0.965
2.31436	0.964
2.35315	0.957
2.39195	0.967
2.43074	0.97
2.46953	0.964
2.50833	0.962
2.54712	0.957
2.58592	0.965
2.62471	0.969
2.66351	0.97
2.7023	0.974
2.7411	0.975
2.77989	0.977
2.81869	0.974
2.85748	0.977
2.89627	0.978
2.93507	0.975
2.97386	0.972
3.01266	0.972
3.05145	0.972
3.09025	0.969
3.12904	0.965
3.16784	0.959
3.20663	0.946
3.24543	0.866
3.28422	0.849
3.32301	0.896
3.36181	0.816
3.4006	0.925
3.4394	0.956
3.47819	0.941
3.51699	0.959
3.55578	0.975
3.59458	0.982
3.63337	0.975
3.67217	0.967
3.71096	0.967
3.74975	0.977
3.78855	0.967
3.82734	0.969
3.86614	0.972
3.90493	0.974
3.94373	0.975
3.98252	0.978
4.02132	0.977
4.06011	0.977
4.09891	0.975
4.1377	0.972
4.17649	0.97
4.21529	0.97
4.25408	0.98
4.29288	1.001
4.33167	0.978
4.37047	0.961
4.40926	0.972
4.44806	0.969
4.48685	0.969
4.52565	0.977
4.56444	0.977
4.60323	0.977
4.64203	0.98
4.68082	0.978
4.71962	0.982
4.75841	0.978
4.79721	0.985
4.836	0.98
4.8748	0.978
4.91359	0.975
4.95239	0.975
4.99118	0.97
5.02997	0.98
5.06877	0.967
5.10756	0.97
5.14636	0.936
5.18515	0.943
5.22395	0.931
5.26274	0.922
5.30154	0.959
5.34033	0.954
5.37913	0.974
5.41792	0.962
5.45671	0.957
5.49551	0.954
5.5343	0.933
5.5731	0.887
5.61189	0.951
5.65069	0.97
5.68948	0.961
5.72828	0.969
5.76707	0.951
5.80587	0.946
5.84466	0.931
5.88345	0.931
5.92225	0.957
5.96104	0.957
5.99984	0.954
6.03863	0.957
6.07743	0.943
6.11622	0.904
6.15502	0.917
6.19381	0.892
6.23261	0.668
6.2714	0.821
6.31019	0.696
6.34899	0.883
6.38778	0.922
6.42658	0.943
6.46537	0.939
6.50417	0.941
6.54296	0.928
6.58176	0.926
6.62055	0.891
6.65935	0.779
6.69814	0.647
6.73693	0.478
6.77573	0.353
6.81452	0.699
6.85332	0.61
6.89211	0.154
6.93091	0.214
6.9697	0.595
7.0085	0.743
7.04729	0.811
7.08609	0.865
7.12488	0.892
7.16367	0.922
7.20247	0.946
7.24126	0.948
7.28006	0.949
7.31885	0.961
7.35765	0.952
7.39644	0.964
7.43524	0.967
7.47403	0.954
7.51283	0.959
7.55162	0.954
7.59041	0.943
7.62921	0.897
7.668	0.792
7.7068	0.793
7.74559	0.819
7.78439	0.47
7.82318	0.49
7.86198	0.668
7.90077	0.407
7.93957	0.491
7.97836	0.771
8.01715	0.878
8.05595	0.905
8.09474	0.926
8.13354	0.931
8.17233	0.928
8.21113	0.873
8.24992	0.665
8.28872	0.74
8.32751	0.891
8.36631	0.912
8.4051	0.909
8.44389	0.925
8.48269	0.928
8.52148	0.928
8.56028	0.925
8.59907	0.889
8.63787	0.881
8.67666	0.915
8.71546	0.944
8.75425	0.948
8.79305	0.913
8.83184	0.858
8.87063	0.691
8.90943	0.607
8.94822	0.798
8.98702	0.909
9.02581	0.941
9.06461	0.956
9.1034	0.93
9.1422	0.902
9.18099	0.938
9.21979	0.949
9.25858	0.952
9.29737	0.923
9.33617	0.897
9.37496	0.806
9.41376	0.532
9.45255	0.25
9.49135	0.152
9.53014	0.363
9.56894	0.636
9.60773	0.345
9.64653	0.34
9.68532	0.642
9.72411	0.766
9.76291	0.831
9.8017	0.852
9.8405	0.821
9.87929	0.839
9.91809	0.881
9.95688	0.909
9.99568	0.928
10.0345	0.935
10.0733	0.952
10.1121	0.949
10.1509	0.946
10.1896	0.936
10.2284	0.935
10.2672	0.938
10.306	0.948
10.3448	0.952
10.3836	0.939
10.4224	0.928
10.4612	0.926
10.5	0.899
10.5388	0.847
10.5776	0.803
10.6164	0.8
10.6552	0.853
10.694	0.912
10.7328	0.935
10.7716	0.941
10.8104	0.946
10.8492	0.946
10.888	0.944
10.9267	0.93
10.9655	0.917
11.0043	0.897
11.0431	0.847
11.0819	0.777
11.1207	0.797
11.1595	0.881
11.1983	0.917
11.2371	0.928
11.2759	0.931
11.3147	0.933
11.3535	0.93
11.3923	0.93
11.4311	0.923
11.4699	0.917
11.5087	0.9
11.5475	0.883
11.5863	0.883
11.625	0.879
11.6638	0.894
11.7026	0.915
11.7414	0.918
11.7802	0.92
11.819	0.92
11.8578	0.909
11.8966	0.892
11.9354	0.915
11.9742	0.902
12.013	0.884
12.0518	0.863
12.0906	0.805
12.1294	0.641
12.1682	0.334
12.207	0.28
12.2458	0.547
12.2846	0.709
12.3233	0.816
12.3621	0.879
12.4009	0.9
12.4397	0.905
12.4785	0.915
12.5173	0.923
12.5561	0.922
12.5949	0.912
12.6337	0.887
12.6725	0.892
12.7113	0.925
12.7501	0.93
12.7889	0.922
12.8277	0.905
12.8665	0.881
12.9053	0.831
12.9441	0.751
12.9829	0.634
13.0217	0.454
13.0604	0.305
13.0992	0.211
13.138	0.188
13.1768	0.201
13.2156	0.261
13.2544	0.297
13.2932	0.323
13.332	0.329
13.3708	0.337
13.4096	0.345
13.4484	0.337
13.4872	0.277
13.526	0.176
13.5648	0.097
13.6036	0.06
13.6424	0.055
13.6812	0.073
13.72	0.162
13.7587	0.339
13.7975	0.527
13.8363	0.642
13.8751	0.725
13.9139	0.774
13.9527	0.811
13.9915	0.832
14.0303	0.842
14.0691	0.847
14.1079	0.844
14.1467	0.842
14.1855	0.839
14.2243	0.831
14.2631	0.818
14.3019	0.803
14.3407	0.785
14.3795	0.75
14.4183	0.715
14.457	0.659
14.4958	0.607
14.5346	0.53
14.5734	0.457
14.6122	0.391
14.651	0.337
14.6898	0.306
14.7286	0.313
14.7674	0.357
14.8062	0.431
14.845	0.475
14.8838	0.462
14.9226	0.397
14.9614	0.332
15.0002	0.311
15.039	0.332
15.0778	0.396
15.1166	0.487
15.1554	0.525
15.1941	0.579
15.2329	0.637
15.2717	0.699
15.3105	0.753
15.3493	0.784
15.3881	0.805
15.4269	0.81
15.4657	0.826
15.5045	0.829
15.5433	0.836
15.5821	0.826
15.6209	0.831
15.6597	0.837
15.6985	0.832
15.7373	0.834
15.7761	0.839
15.8149	0.839
15.8537	0.836
15.8924	0.832
15.9312	0.832
15.97	0.827
