Infrared Spectrum: Alpha,Gamma -DICYANO-Beta,Beta-DIMETHYL GLUTARIMIDE
Formula: C9 H9 N3 O2
CAS: 61193-04-2
State: SOLID (MINERAL OIL MULL)
Class: COBLENTZ
Instrument: Not specified, most likely a prism, grating, or hybrid spectrometer.
Sampling: TRANSMISSION
Resolution: 4
Origin: DOW CHEMICAL COMPANY
MICROMETERS	TRANSMITTANCE
2.029	0.443
2.06809	0.444
2.10718	0.446
2.14627	0.451
2.18536	0.456
2.22445	0.457
2.26354	0.453
2.30263	0.451
2.34172	0.456
2.38081	0.461
2.4199	0.466
2.45899	0.472
2.49808	0.475
2.53717	0.48
2.57626	0.48
2.61535	0.485
2.65444	0.49
2.69353	0.491
2.73262	0.496
2.77171	0.5
2.8108	0.501
2.84989	0.501
2.88898	0.495
2.92807	0.491
2.96716	0.5
3.00625	0.485
3.04534	0.441
3.08443	0.339
3.12352	0.258
3.16261	0.31
3.2017	0.291
3.24079	0.349
3.27988	0.394
3.31897	0.385
3.35806	0.255
3.39715	0.082
3.43624	0.053
3.47533	0.087
3.51442	0.177
3.55351	0.436
3.5926	0.493
3.63169	0.517
3.67078	0.524
3.70987	0.53
3.74896	0.537
3.78805	0.546
3.82714	0.551
3.86623	0.559
3.90532	0.569
3.94441	0.577
3.9835	0.582
4.02259	0.587
4.06168	0.592
4.10077	0.595
4.13986	0.598
4.17895	0.598
4.21804	0.6
4.25713	0.606
4.29622	0.616
4.33531	0.618
4.3744	0.59
4.41349	0.587
4.45258	0.631
4.49167	0.634
4.53076	0.639
4.56985	0.642
4.60894	0.644
4.64803	0.648
4.68712	0.652
4.72621	0.653
4.7653	0.658
4.80439	0.66
4.84348	0.661
4.88257	0.665
4.92166	0.666
4.96075	0.668
4.99984	0.674
5.03893	0.674
5.07802	0.676
5.11711	0.681
5.1562	0.681
5.19529	0.679
5.23438	0.681
5.27347	0.681
5.31256	0.684
5.35165	0.682
5.39074	0.682
5.42983	0.674
5.46892	0.671
5.50801	0.665
5.5471	0.653
5.58619	0.64
5.62528	0.579
5.66437	0.474
5.70346	0.346
5.74255	0.184
5.78164	0.147
5.82073	0.103
5.85982	0.161
5.89891	0.425
5.938	0.548
5.97709	0.603
6.01618	0.635
6.05527	0.65
6.09436	0.668
6.13345	0.668
6.17254	0.676
6.21163	0.684
6.25072	0.694
6.28981	0.702
6.3289	0.7
6.36799	0.7
6.40708	0.702
6.44617	0.703
6.48526	0.705
6.52435	0.708
6.56344	0.707
6.60253	0.705
6.64162	0.703
6.68071	0.689
6.7198	0.648
6.75889	0.53
6.79798	0.325
6.83707	0.266
6.87616	0.355
6.91525	0.401
6.95434	0.491
6.99343	0.553
7.03252	0.546
7.07161	0.483
7.1107	0.517
7.14979	0.566
7.18888	0.498
7.22797	0.377
7.26706	0.278
7.30615	0.25
7.34524	0.407
7.38433	0.506
7.42342	0.535
7.46251	0.496
7.5016	0.346
7.54069	0.258
7.57978	0.244
7.61887	0.302
7.65796	0.491
7.69705	0.606
7.73614	0.658
7.77523	0.689
7.81432	0.695
7.85341	0.695
7.8925	0.681
7.93159	0.644
7.97068	0.543
8.00977	0.343
8.04886	0.375
8.08795	0.396
8.12704	0.391
8.16613	0.461
8.20522	0.511
8.24431	0.634
8.2834	0.7
8.32249	0.726
8.36158	0.742
8.40067	0.747
8.43976	0.729
8.47885	0.681
8.51794	0.663
8.55703	0.673
8.59612	0.695
8.63521	0.739
8.6743	0.75
8.71339	0.757
8.75248	0.739
8.79157	0.718
8.83066	0.758
8.86975	0.784
8.90884	0.796
8.94793	0.799
8.98702	0.804
9.02611	0.81
9.0652	0.813
9.10429	0.813
9.14338	0.815
9.18247	0.817
9.22156	0.815
9.26065	0.81
9.29974	0.807
9.33883	0.802
9.37792	0.8
9.41701	0.804
9.4561	0.804
9.49519	0.802
9.53428	0.8
9.57337	0.802
9.61246	0.807
9.65155	0.802
9.69064	0.792
9.72973	0.791
9.76882	0.773
9.80791	0.788
9.847	0.791
9.88609	0.77
9.92518	0.755
9.96427	0.669
10.0034	0.587
10.0425	0.65
10.0815	0.768
10.1206	0.809
10.1597	0.828
10.1988	0.838
10.2379	0.839
10.277	0.839
10.3161	0.838
10.3552	0.838
10.3943	0.831
10.4334	0.843
10.4724	0.851
10.5115	0.854
10.5506	0.859
10.5897	0.859
10.6288	0.855
10.6679	0.852
10.707	0.851
10.7461	0.851
10.7852	0.849
10.8243	0.849
10.8633	0.843
10.9024	0.843
10.9415	0.841
10.9806	0.843
11.0197	0.851
11.0588	0.847
11.0979	0.843
11.137	0.838
11.1761	0.831
11.2152	0.83
11.2542	0.817
11.2933	0.794
11.3324	0.805
11.3715	0.826
11.4106	0.83
11.4497	0.828
11.4888	0.83
11.5279	0.822
11.567	0.818
11.6061	0.807
11.6451	0.794
11.6842	0.792
11.7233	0.791
11.7624	0.792
11.8015	0.796
11.8406	0.789
11.8797	0.788
11.9188	0.786
11.9579	0.781
11.997	0.778
12.036	0.771
12.0751	0.762
12.1142	0.752
12.1533	0.739
12.1924	0.72
12.2315	0.686
12.2706	0.65
12.3097	0.614
12.3488	0.576
12.3879	0.593
12.4269	0.655
12.466	0.674
12.5051	0.66
12.5442	0.622
12.5833	0.587
12.6224	0.571
12.6615	0.572
12.7006	0.588
12.7397	0.613
12.7788	0.64
12.8178	0.676
12.8569	0.699
12.896	0.72
12.9351	0.737
12.9742	0.752
13.0133	0.765
13.0524	0.771
13.0915	0.778
13.1306	0.773
13.1697	0.763
13.2087	0.754
13.2478	0.737
13.2869	0.697
13.326	0.635
13.3651	0.556
13.4042	0.55
13.4433	0.64
13.4824	0.742
13.5215	0.779
13.5606	0.8
13.5996	0.81
13.6387	0.817
13.6778	0.818
13.7169	0.818
13.756	0.815
13.7951	0.81
13.8342	0.812
13.8733	0.823
13.9124	0.838
13.9515	0.852
13.9905	0.86
14.0296	0.872
14.0687	0.873
14.1078	0.88
14.1469	0.881
14.186	0.886
14.2251	0.888
14.2642	0.888
14.3033	0.891
14.3424	0.889
14.3814	0.894
14.4205	0.891
14.4596	0.889
14.4987	0.889
14.5378	0.891
14.5769	0.891
14.616	0.891
14.6551	0.889
14.6942	0.888
14.7333	0.886
14.7723	0.883
14.8114	0.877
14.8505	0.868
14.8896	0.855
14.9287	0.847
14.9678	0.852
15.0069	0.855
15.046	0.843
15.0851	0.834
15.1242	0.828
15.1632	0.823
15.2023	0.822
15.2414	0.822
15.2805	0.825
15.3196	0.828
15.3587	0.83
15.3978	0.833
15.4369	0.838
15.476	0.838
15.5151	0.839
15.5541	0.844
15.5932	0.847
15.6323	0.851
15.6714	0.849
15.7105	0.846
15.7496	0.843
15.7887	0.836
15.8278	0.831
15.8669	0.831
15.906	0.831
