Infrared Spectrum: ANILINE, N-ETHYL-N-METHYL-
Formula: C9 H13 N
CAS: 613-97-8
State: LIQUID (NEAT)
Boiling point: 90-91 C AT 11 mmHg
Class: COBLENTZ III
Instrument: BAIRD (GRATING)
Instrument parameters: NaCl PRISM
Sampling: TRANSMISSION
Path length: 0.003 CM
Resolution: 2
Origin: WYANDOTTE CHEMICALS CORP.
1/CM	TRANSMITTANCE
4000	0.9351
3991	0.9359
3982	0.9368
3973	0.9378
3964	0.9389
3955	0.9398
3946	0.9408
3937	0.9418
3928	0.9428
3919	0.9438
3910	0.9447
3901	0.9458
3892	0.9468
3883	0.9477
3874	0.9485
3865	0.9489
3856	0.9493
3847	0.9497
3838	0.9501
3829	0.9504
3820	0.9506
3811	0.9509
3802	0.9512
3793	0.9515
3784	0.9512
3775	0.9508
3766	0.9503
3757	0.9497
3748	0.9488
3739	0.948
3730	0.9471
3721	0.9461
3712	0.9452
3703	0.9442
3694	0.9432
3685	0.9423
3676	0.9414
3667	0.9405
3658	0.9395
3649	0.9386
3640	0.9375
3631	0.937
3622	0.9366
3613	0.9363
3604	0.9357
3595	0.9351
3586	0.9344
3577	0.933
3568	0.931
3559	0.9289
3550	0.9266
3541	0.9242
3532	0.922
3523	0.9196
3514	0.9177
3505	0.9159
3496	0.9142
3487	0.9125
3478	0.9107
3469	0.9089
3460	0.9071
3451	0.9055
3442	0.9044
3433	0.9034
3424	0.9024
3415	0.9021
3406	0.9023
3397	0.9024
3388	0.9024
3379	0.9025
3370	0.9028
3361	0.9032
3352	0.9036
3343	0.9039
3334	0.9043
3325	0.9046
3316	0.9048
3307	0.9051
3298	0.9055
3289	0.9054
3280	0.9052
3271	0.9048
3262	0.903
3253	0.8975
3244	0.8917
3235	0.889
3226	0.8878
3217	0.8867
3208	0.885
3199	0.8811
3190	0.8752
3181	0.8628
3172	0.8441
3163	0.8266
3154	0.8058
3145	0.7671
3136	0.7306
3127	0.6938
3118	0.6568
3109	0.6196
3100	0.5828
3091	0.5578
3082	0.5436
3073	0.5406
3064	0.5407
3055	0.5362
3046	0.4691
3037	0.388
3028	0.3066
3019	0.2502
3010	0.2507
3001	0.2601
2992	0.2798
2983	0.294
2974	0.3035
2965	0.312
2956	0.3163
2947	0.3181
2938	0.3193
2929	0.32
2920	0.3302
2911	0.3654
2902	0.4102
2893	0.4555
2884	0.5009
2875	0.5143
2866	0.5132
2857	0.5112
2848	0.5127
2839	0.521
2830	0.5374
2821	0.631
2812	0.7305
2803	0.7607
2794	0.7875
2785	0.8081
2776	0.8203
2767	0.8325
2758	0.8446
2749	0.8566
2740	0.8687
2731	0.8808
2722	0.893
2713	0.9002
2704	0.9053
2695	0.9078
2686	0.9105
2677	0.9128
2668	0.9136
2659	0.9142
2650	0.9147
2641	0.9154
2632	0.9156
2623	0.916
2614	0.9163
2605	0.9166
2596	0.9185
2587	0.9221
2578	0.9278
2569	0.9325
2560	0.9359
2551	0.9394
2542	0.9418
2533	0.9441
2524	0.9465
2515	0.949
2506	0.9515
2497	0.954
2488	0.9564
2479	0.9586
2470	0.9608
2461	0.9631
2452	0.9652
2443	0.967
2434	0.9689
2425	0.9707
2416	0.9725
2407	0.9744
2398	0.9761
2389	0.9778
2380	0.9796
2371	0.9813
2362	0.9828
2353	0.9844
2344	0.986
2335	0.9875
2326	0.9889
2317	0.9899
2308	0.9909
2299	0.9918
2290	0.9925
2281	0.9931
2272	0.9937
2263	0.9941
2254	0.9944
2245	0.9936
2236	0.9918
2227	0.99
2218	0.9883
2209	0.988
2200	0.9884
2191	0.9902
2182	0.9918
2173	0.9932
2164	0.9945
2155	0.9959
2146	0.9966
2137	0.997
2128	0.9967
2119	0.9957
2110	0.9946
2101	0.9936
2092	0.995
2083	0.9964
2074	0.9975
2065	0.9986
2056	0.9997
2047	1.0009
2038	1.0013
2029	1.0016
2020	1.0018
2011	1.0016
2002	1.0013
1993	1.0012
1984	1.0014
1975	1.0015
1966	1.0009
1957	0.9986
1948	0.992
1939	0.9845
1930	0.9745
1921	0.9642
1912	0.959
1903	0.959
1894	0.9613
1885	0.9661
1876	0.9728
1867	0.9797
1858	0.9857
1849	0.9898
1840	0.9881
1831	0.9849
1822	0.9771
1813	0.9739
1804	0.9728
1795	0.9723
1786	0.9717
1777	0.961
1768	0.9267
1759	0.9065
1750	0.9002
1741	0.8058
1732	0.7938
1723	0.8075
1714	0.8292
1705	0.8451
1696	0.8437
1687	0.8069
1678	0.5646
1669	0.5686
1660	0.6222
1651	0.6308
1642	0.5065
1633	0.3291
1624	0.1498
1615	0.0466
1606	0.2123
1597	0.3784
1588	0.4876
1579	0.6107
1570	0.6895
1561	0.7036
1552	0.6992
1543	0.6742
1534	0.499
1525	0.3456
1516	0.2003
1507	0.1849
1498	0.35
1489	0.3725
1480	0.4159
1471	0.4304
1462	0.376
1453	0.4785
1444	0.5191
1435	0.5787
1426	0.6464
1417	0.6329
1408	0.5729
1399	0.475
1390	0.283
1381	0.1375
1372	0.1542
1363	0.2062
1354	0.195
1345	0.4773
1336	0.631
1327	0.6536
1318	0.5662
1309	0.5476
1300	0.5612
1291	0.4897
1282	0.2624
1273	0.1903
1264	0.4028
1255	0.5768
1246	0.621
1237	0.5889
1228	0.3509
1219	0.2329
1210	0.431
1201	0.4482
1192	0.5575
1183	0.7034
1174	0.6995
1165	0.3455
1156	0.4615
1147	0.6351
1138	0.73
1129	0.7315
1120	0.6933
1111	0.7483
1102	0.75
1093	0.5395
1084	0.4503
1075	0.4989
1066	0.594
1057	0.7769
1048	0.7996
1039	0.4722
1030	0.6561
1021	0.7887
1012	0.779
1003	0.392
994	0.4237
985	0.7465
976	0.8394
967	0.9068
958	0.9392
949	0.9492
940	0.9684
931	0.9766
922	0.981
913	0.982
904	0.9614
895	0.8231
886	0.8414
877	0.9068
868	0.8247
859	0.7645
850	0.8732
841	0.9381
832	0.9597
823	0.9575
814	0.924
805	0.8904
796	0.7724
787	0.7457
778	0.8547
769	0.761
760	0.545
751	0.1221
742	0.2481
733	0.6905
724	0.7668
715	0.9017
706	0.8718
697	0.5892
688	0.2545
679	0.6575
670	0.829
661	0.88
652	0.9117
643	0.9181
634	0.9012
625	0.8774
