Infrared Spectrum: 1,2,4-TRI-ACETOXYBENZENE
Formula: C12 H12 O6
CAS: 613-03-6
State: SOLID (MINERAL OIL MULL)
Melting point: 95-99 C
Class: COBLENTZ
Instrument: Not specified, most likely a prism, grating, or hybrid spectrometer.
Sampling: TRANSMISSION
Resolution: 4
Origin: WYANDOTTE CHEMICALS CORP., WYANDOTTE, MICHIGAN, USA
MICROMETERS	TRANSMITTANCE
2.033	0.823
2.07275	0.827
2.11251	0.83
2.15226	0.828
2.19202	0.817
2.23177	0.812
2.27153	0.818
2.31128	0.822
2.35103	0.828
2.39079	0.828
2.43054	0.833
2.4703	0.84
2.51005	0.85
2.54981	0.853
2.58956	0.852
2.62932	0.86
2.66907	0.85
2.70882	0.84
2.74858	0.835
2.78833	0.818
2.82809	0.78
2.86784	0.78
2.9076	0.794
2.94735	0.792
2.9871	0.794
3.02686	0.797
3.06661	0.805
3.10637	0.818
3.14612	0.812
3.18588	0.815
3.22563	0.799
3.26538	0.785
3.30514	0.699
3.34489	0.24
3.38465	0.046
3.4244	0.099
3.46416	0.166
3.50391	0.214
3.54367	0.707
3.58342	0.833
3.62317	0.885
3.66293	0.888
3.70268	0.9
3.74244	0.906
3.78219	0.913
3.82195	0.92
3.8617	0.931
3.90145	0.933
3.94121	0.938
3.98096	0.943
4.02072	0.95
4.06047	0.955
4.10023	0.948
4.13998	0.938
4.17973	0.93
4.21949	0.923
4.25924	0.906
4.299	0.93
4.33875	0.955
4.37851	0.983
4.41826	0.961
4.45801	0.958
4.49777	0.971
4.53752	0.966
4.57728	0.965
4.61703	0.971
4.65679	0.973
4.69654	0.978
4.7363	0.97
4.77605	0.956
4.8158	0.956
4.85556	0.953
4.89531	0.946
4.93507	0.933
4.97482	0.936
5.01458	0.941
5.05433	0.938
5.09408	0.946
5.13384	0.93
5.17359	0.951
5.21335	0.951
5.2531	0.93
5.29286	0.911
5.33261	0.887
5.37236	0.88
5.41212	0.868
5.45187	0.838
5.49163	0.764
5.53138	0.671
5.57114	0.541
5.61089	0.091
5.65065	0.033
5.6904	0.033
5.73015	0.28
5.76991	0.551
5.80966	0.586
5.84942	0.681
5.88917	0.772
5.92893	0.807
5.96868	0.818
6.00843	0.813
6.04819	0.82
6.08794	0.8
6.1277	0.794
6.16745	0.644
6.20721	0.669
6.24696	0.769
6.28671	0.828
6.32647	0.85
6.36622	0.855
6.40598	0.85
6.44573	0.827
6.48549	0.789
6.52524	0.727
6.565	0.641
6.60475	0.458
6.6445	0.089
6.68426	0.247
6.72401	0.443
6.76377	0.443
6.80352	0.3
6.84328	0.312
6.88303	0.342
6.92278	0.36
6.96254	0.373
7.00229	0.388
7.04205	0.47
7.0818	0.581
7.12156	0.624
7.16131	0.604
7.20106	0.486
7.24082	0.147
7.28057	0.078
7.32033	0.227
7.36008	0.549
7.39984	0.659
7.43959	0.705
7.47934	0.745
7.5191	0.767
7.55885	0.772
7.59861	0.77
7.63836	0.75
7.67812	0.727
7.71787	0.704
7.75763	0.649
7.79738	0.586
7.83713	0.498
7.87689	0.365
7.91664	0.558
7.9564	0.533
7.99615	0.511
8.03591	0.493
8.07566	0.44
8.11541	0.352
8.15517	0.224
8.19492	0.084
8.23468	0.031
8.27443	0.029
8.31419	0.038
8.35394	0.031
8.39369	0.029
8.43345	0.031
8.4732	0.029
8.51296	0.029
8.55271	0.029
8.59247	0.038
8.63222	0.086
8.67198	0.142
8.71173	0.152
8.75148	0.089
8.79124	0.079
8.83099	0.172
8.87075	0.3
8.9105	0.435
8.95026	0.511
8.99001	0.498
9.02976	0.297
9.06952	0.176
9.10927	0.325
9.14903	0.495
9.18878	0.579
9.22854	0.604
9.26829	0.616
9.30804	0.631
9.3478	0.637
9.38755	0.639
9.42731	0.627
9.46706	0.588
9.50682	0.506
9.54657	0.411
9.58633	0.436
9.62608	0.529
9.66583	0.569
9.70559	0.539
9.74534	0.441
9.7851	0.272
9.82485	0.151
9.86461	0.114
9.90436	0.215
9.94411	0.38
9.98387	0.533
10.0236	0.626
10.0634	0.686
10.1031	0.72
10.1429	0.737
10.1826	0.747
10.2224	0.737
10.2621	0.681
10.3019	0.511
10.3417	0.305
10.3814	0.436
10.4212	0.583
10.4609	0.536
10.5007	0.684
10.5404	0.742
10.5802	0.759
10.6199	0.752
10.6597	0.764
10.6994	0.762
10.7392	0.734
10.779	0.661
10.8187	0.539
10.8585	0.22
10.8982	0.049
10.938	0.063
10.9777	0.169
11.0175	0.22
11.0572	0.32
11.097	0.47
11.1367	0.596
11.1765	0.657
11.2163	0.689
11.256	0.715
11.2958	0.732
11.3355	0.752
11.3753	0.772
11.415	0.78
11.4548	0.77
11.4945	0.72
11.5343	0.594
11.574	0.569
11.6138	0.601
11.6536	0.549
11.6933	0.639
11.7331	0.717
11.7728	0.74
11.8126	0.72
11.8523	0.609
11.8921	0.401
11.9318	0.295
11.9716	0.328
12.0113	0.353
12.0511	0.581
12.0908	0.699
12.1306	0.77
12.1704	0.799
12.2101	0.813
12.2499	0.823
12.2896	0.832
12.3294	0.835
12.3691	0.837
12.4089	0.828
12.4486	0.8
12.4884	0.795
12.5281	0.782
12.5679	0.75
12.6077	0.802
12.6474	0.84
12.6872	0.855
12.7269	0.863
12.7667	0.867
12.8064	0.868
12.8462	0.87
12.8859	0.872
12.9257	0.868
12.9654	0.865
13.0052	0.857
13.045	0.847
13.0847	0.803
13.1245	0.79
13.1642	0.817
13.204	0.84
13.2437	0.85
13.2835	0.858
13.3232	0.863
13.363	0.865
13.4027	0.867
13.4425	0.865
13.4823	0.86
13.522	0.858
13.5618	0.855
13.6015	0.852
13.6413	0.852
13.681	0.855
13.7208	0.855
13.7605	0.853
13.8003	0.853
13.84	0.85
13.8798	0.845
13.9195	0.843
13.9593	0.84
13.9991	0.832
14.0388	0.808
14.0786	0.8
14.1183	0.812
14.1581	0.832
14.1978	0.828
14.2376	0.808
14.2773	0.797
14.3171	0.807
14.3568	0.808
14.3966	0.825
14.4364	0.842
14.4761	0.858
14.5159	0.868
14.5556	0.87
14.5954	0.867
14.6351	0.868
14.6749	0.867
14.7146	0.867
14.7544	0.863
14.7941	0.86
14.8339	0.858
14.8737	0.858
14.9134	0.858
14.9532	0.857
14.9929	0.848
15.0327	0.827
15.0724	0.803
15.1122	0.823
15.1519	0.838
15.1917	0.842
15.2314	0.83
15.2712	0.815
15.311	0.803
15.3507	0.799
15.3905	0.795
15.4302	0.789
15.47	0.79
15.5097	0.784
15.5495	0.779
15.5892	0.785
15.629	0.78
15.6687	0.777
15.7085	0.777
15.7482	0.765
15.788	0.749
15.8278	0.734
15.8675	0.717
15.9073	0.674
15.947	0.656
15.9868	0.649
