Infrared Spectrum: BENZAMIDE, N-METHYL-
Formula: C8 H9 N O
CAS: 613-93-4
State: SOLID (NUJOL MULL)
Class: COBLENTZ III
Instrument: DOW KBr FOREPRISM-GRATING
Instrument parameters: BLAZED AT 3.5, 12.0, 20.0 MICRON AND CHANGED AT 5.0, 7.5, 14.9 MICRON
Sampling: TRANSMISSION
Resolution: 2
Origin: DOW CHEMICAL COMPANY
1/CM	TRANSMITTANCE
426	0.8128
435	0.8096
444	0.8083
453	0.8018
462	0.7964
471	0.7943
480	0.7637
489	0.69
498	0.7046
507	0.7811
516	0.7969
525	0.7901
534	0.7801
543	0.766
552	0.7468
561	0.7265
570	0.7044
579	0.6762
588	0.6418
597	0.5953
606	0.531
615	0.4506
624	0.3786
633	0.2863
642	0.2394
651	0.2893
660	0.4054
669	0.3406
678	0.5082
687	0.492
696	0.0452
705	0.1077
714	0.0577
723	0.2423
732	0.6019
741	0.7047
750	0.7449
759	0.7714
768	0.7714
777	0.7767
786	0.8071
795	0.8011
804	0.5943
813	0.7794
822	0.8054
831	0.6141
840	0.601
849	0.7967
858	0.8311
867	0.8321
876	0.8267
885	0.8196
894	0.8184
903	0.8161
912	0.8015
921	0.7784
930	0.6925
939	0.5229
948	0.7418
957	0.7289
966	0.7156
975	0.6528
984	0.6645
993	0.6626
1002	0.6915
1011	0.7091
1020	0.7061
1029	0.5793
1038	0.6593
1047	0.7151
1056	0.7044
1065	0.666
1074	0.5328
1083	0.6387
1092	0.6704
1101	0.6534
1110	0.6354
1119	0.6131
1128	0.5112
1137	0.4839
1146	0.3737
1155	0.2994
1164	0.1765
1173	0.51
1182	0.5403
1191	0.5336
1200	0.5652
1209	0.549
1218	0.5242
1227	0.4939
1236	0.451
1245	0.4068
1254	0.3629
1263	0.3232
1272	0.2935
1281	0.2613
1290	0.2191
1299	0.1381
1308	0.0834
1317	0.232
1326	0.3318
1335	0.2416
1344	0.342
1353	0.3482
1362	0.3492
1371	0.3194
1380	0.2992
1389	0.3209
1398	0.2472
1407	0.0949
1416	0.3997
1425	0.509
1434	0.4041
1443	0.2723
1452	0.1939
1461	0.1627
1470	0.214
1479	0.2271
1488	0.1313
1497	0.2171
1506	0.264
1515	0.2155
1524	0.1378
1533	0.0838
1542	0.0471
1551	0.0313
1560	0.0538
1569	0.0657
1578	0.039
1587	0.2716
1596	0.131
1605	0.085
1614	0.074
1623	0.0598
1632	0.0423
1641	0.0427
1650	0.0749
1659	0.0842
1668	0.1569
1677	0.2473
1686	0.3687
1695	0.5037
1704	0.5076
1713	0.5755
1722	0.7033
1731	0.7583
1740	0.7807
1749	0.8245
1758	0.8353
1767	0.8596
1776	0.8474
1785	0.821
1794	0.8603
1803	0.881
1812	0.8808
1821	0.8644
1830	0.8368
1839	0.8738
1848	0.8903
1857	0.8931
1866	0.887
1875	0.88
1884	0.8814
1893	0.8734
1902	0.8544
1911	0.7865
1920	0.8203
1929	0.8603
1938	0.8668
1947	0.8587
1956	0.8518
1965	0.7397
1974	0.8149
1983	0.8357
1992	0.846
2001	0.8467
2010	0.8271
2019	0.8402
2028	0.8383
2037	0.8332
2046	0.8299
2055	0.8282
2064	0.8255
2073	0.8201
2082	0.8198
2091	0.8193
2100	0.8162
2109	0.8107
2118	0.8054
2127	0.8008
2136	0.7975
2145	0.7958
2154	0.7949
2163	0.7943
2172	0.7939
2181	0.7932
2190	0.7911
2199	0.7883
2208	0.7855
2217	0.7828
2226	0.7797
2235	0.7764
2244	0.7732
2253	0.7699
2262	0.7665
2271	0.7664
2280	0.7668
2289	0.7651
2298	0.7597
2307	0.7475
2316	0.7498
2325	0.7618
2334	0.7671
2343	0.7712
2352	0.7499
2361	0.7351
2370	0.7324
2379	0.7306
2388	0.7287
2397	0.7261
2406	0.7232
2415	0.7178
2424	0.7108
2433	0.7022
2442	0.6931
2451	0.6831
2460	0.6722
2469	0.6656
2478	0.6684
2487	0.6714
2496	0.6722
2505	0.6699
2514	0.6664
2523	0.6618
2532	0.6568
2541	0.6515
2550	0.6464
2559	0.6433
2568	0.6414
2577	0.6364
2586	0.6312
2595	0.6271
2604	0.6246
2613	0.6253
2622	0.6241
2631	0.6195
2640	0.6134
2649	0.6069
2658	0.599
2667	0.5885
2676	0.5782
2685	0.5681
2694	0.5552
2703	0.5435
2712	0.536
2721	0.5315
2730	0.526
2739	0.5173
2748	0.5078
2757	0.4977
2766	0.4871
2775	0.4734
2784	0.4576
2793	0.4342
2802	0.4341
2811	0.4337
2820	0.4236
2829	0.35
2838	0.241
2847	0.1367
2856	0.048
2865	0.0533
2874	0.0662
2883	0.0776
2892	0.0728
2901	0.0606
2910	0.0419
2919	0.0229
2928	0.0127
2937	0.0142
2946	0.0174
2955	0.0196
2964	0.0187
2973	0.0399
2982	0.0732
2991	0.1162
3000	0.1268
3009	0.1379
3018	0.1662
3027	0.1649
3036	0.1633
3045	0.16
3054	0.1349
3063	0.1173
3072	0.1765
3081	0.1971
3090	0.1949
3099	0.2171
3108	0.2341
3117	0.2496
3126	0.2524
3135	0.2504
3144	0.2438
3153	0.2373
3162	0.2322
3171	0.2249
3180	0.2158
3189	0.2058
3198	0.196
3207	0.1869
3216	0.1784
3225	0.1699
3234	0.1599
3243	0.1487
3252	0.1342
3261	0.1199
3270	0.1063
3279	0.0922
3288	0.0787
3297	0.0695
3306	0.0615
3315	0.0549
3324	0.0495
3333	0.0456
3342	0.0453
3351	0.0502
3360	0.0688
3369	0.1132
3378	0.1594
3387	0.2172
3396	0.3155
3405	0.3438
3414	0.3776
3423	0.4192
3432	0.4428
3441	0.4617
3450	0.4821
3459	0.5021
3468	0.5116
3477	0.5184
3486	0.5202
3495	0.5222
3504	0.5253
3513	0.5304
3522	0.5369
3531	0.5438
3540	0.5508
3549	0.5579
3558	0.5644
3567	0.5707
3576	0.5753
3585	0.5781
3594	0.58
3603	0.5812
3612	0.5812
3621	0.581
3630	0.5795
3639	0.5775
3648	0.5762
3657	0.576
3666	0.5769
3675	0.5786
3684	0.58
3693	0.5789
3702	0.5766
3711	0.5759
3720	0.5748
3729	0.5758
3738	0.577
3747	0.5756
3756	0.5734
3765	0.5707
3774	0.5678
3783	0.5653
3792	0.5634
3801	0.5616
3810	0.5601
