Infrared Spectrum: Menadione sodium bisulfite, trihydrate
Formula: C11 H9 Na O5 S  * 3 H2 O
CAS: 6147-37-1
State: SOLID (NUJOL MULL)
Class: COBLENTZ III
Instrument: PERKIN-ELMER 21 (GRATING)
Instrument parameters: FILTER AT ABOUT 10 MICRONS
Resolution: 2
Origin: ABBOTT LABORATORIES
1/CM	TRANSMITTANCE
651	0.5166
660	0.4883
669	0.6099
678	0.5689
687	0.6685
696	0.6984
705	0.6942
714	0.6472
723	0.6275
732	0.5609
741	0.6901
750	0.4604
759	0.7419
768	0.7786
777	0.7952
786	0.7774
795	0.8075
804	0.7931
813	0.7411
822	0.8193
831	0.814
840	0.8114
849	0.8145
858	0.8276
867	0.8215
876	0.805
885	0.7852
894	0.7702
903	0.7597
912	0.694
921	0.7532
930	0.7369
939	0.7068
948	0.6791
957	0.6102
966	0.5399
975	0.4287
984	0.4516
993	0.6202
1002	0.6535
1011	0.6414
1020	0.4642
1029	0.3882
1038	0.6172
1047	0.5349
1056	0.4615
1065	0.4665
1074	0.5097
1083	0.5833
1092	0.6845
1101	0.6735
1110	0.6367
1119	0.5991
1128	0.535
1137	0.5094
1146	0.3857
1155	0.247
1164	0.2177
1173	0.2276
1182	0.1915
1191	0.1254
1200	0.1571
1209	0.2116
1218	0.2932
1227	0.3388
1236	0.4374
1245	0.5252
1254	0.3341
1263	0.4758
1272	0.6096
1281	0.443
1290	0.4681
1299	0.6264
1308	0.5456
1317	0.5991
1326	0.648
1335	0.6573
1344	0.6462
1353	0.5506
1362	0.412
1371	0.4562
1380	0.7068
1389	0.698
1398	0.6986
1407	0.7323
1416	0.6824
1425	0.5726
1434	0.364
1443	0.2526
1452	0.2218
1461	0.3632
1470	0.6819
1479	0.7542
1488	0.7696
1497	0.7762
1506	0.7814
1515	0.7835
1524	0.7822
1533	0.7776
1542	0.766
1551	0.748
1560	0.7229
1569	0.6601
1578	0.5355
1587	0.577
1596	0.7463
1605	0.7414
1614	0.7039
1623	0.623
1632	0.5753
1641	0.6444
1650	0.6492
1659	0.5836
1668	0.4947
1677	0.2868
1686	0.3025
1695	0.5414
1704	0.7396
1713	0.7911
1722	0.8192
1731	0.8348
1740	0.8443
1749	0.8516
1758	0.8572
1767	0.8621
1776	0.866
1785	0.8671
1794	0.8671
1803	0.8663
1812	0.8653
1821	0.864
1830	0.8624
1839	0.8601
1848	0.857
1857	0.8552
1866	0.8566
1875	0.8599
1884	0.8606
1893	0.8605
1902	0.8598
1911	0.8582
1920	0.8564
1929	0.8546
1938	0.8525
1947	0.8505
1956	0.8484
1965	0.8464
1974	0.846
1983	0.8456
1992	0.8453
2001	0.8452
2010	0.8453
2019	0.8453
2028	0.8454
2037	0.8455
2046	0.8447
2055	0.8439
2064	0.8432
2073	0.8411
2082	0.8391
2091	0.837
2100	0.8354
2109	0.8342
2118	0.8331
2127	0.832
2136	0.8309
2145	0.8301
2154	0.8293
2163	0.8284
2172	0.8277
2181	0.8271
2190	0.8265
2199	0.8258
2208	0.8253
2217	0.8247
2226	0.8243
2235	0.824
2244	0.8237
2253	0.8233
2262	0.823
2271	0.8227
2280	0.8224
2289	0.822
2298	0.8214
2307	0.821
2316	0.8205
2325	0.8201
2334	0.8197
2343	0.8197
2352	0.8196
2361	0.8196
2370	0.8196
2379	0.8195
2388	0.8192
2397	0.819
2406	0.8188
2415	0.8185
2424	0.8177
2433	0.8169
2442	0.815
2451	0.8124
2460	0.81
2469	0.8072
2478	0.8042
2487	0.8011
2496	0.7971
2505	0.7929
2514	0.7887
2523	0.7842
2532	0.7796
2541	0.7751
2550	0.7711
2559	0.7676
2568	0.764
2577	0.7608
2586	0.7585
2595	0.7562
2604	0.7539
2613	0.7517
2622	0.7495
2631	0.7481
2640	0.7466
2649	0.7453
2658	0.7439
2667	0.7428
2676	0.742
2685	0.7412
2694	0.7396
2703	0.7367
2712	0.7289
2721	0.7167
2730	0.703
2739	0.6856
2748	0.649
2757	0.6125
2766	0.5529
2775	0.4555
2784	0.3408
2793	0.2267
2802	0.0958
2811	0.0691
2820	0.0627
2829	0.0576
2838	0.0402
2847	0.0318
2856	0.0305
2865	0.0305
2874	0.0313
2883	0.0337
2892	0.0428
2901	0.0716
2910	0.1094
2919	0.2099
2928	0.3105
2937	0.4106
2946	0.5101
2955	0.5632
2964	0.5906
2973	0.6151
2982	0.6327
2991	0.6482
3000	0.6632
3009	0.6729
3018	0.6811
3027	0.6869
3036	0.6907
3045	0.6942
3054	0.6946
3063	0.695
3072	0.6952
3081	0.6927
3090	0.6902
3099	0.6868
3108	0.6831
3117	0.6789
3126	0.6752
3135	0.6726
3144	0.6711
3153	0.6702
3162	0.6689
3171	0.6649
3180	0.6582
3189	0.6499
3198	0.6417
3207	0.6341
3216	0.6267
3225	0.6197
3234	0.6128
3243	0.6051
3252	0.5959
3261	0.5869
3270	0.577
3279	0.5638
3288	0.5503
3297	0.5343
3306	0.5174
3315	0.4974
3324	0.4793
3333	0.4644
3342	0.4527
3351	0.4463
3360	0.4412
3369	0.4363
3378	0.4359
3387	0.4372
3396	0.4394
3405	0.443
3414	0.4481
3423	0.4671
3432	0.4841
3441	0.5035
3450	0.5182
3459	0.5264
3468	0.5465
3477	0.5745
3486	0.6023
3495	0.63
3504	0.6576
3513	0.685
3522	0.7123
3531	0.7381
3540	0.7525
3549	0.7591
3558	0.7613
3567	0.7616
3576	0.7614
3585	0.7606
3594	0.7599
3603	0.7591
3612	0.7583
3621	0.7576
3630	0.7569
3639	0.7559
3648	0.7548
3657	0.7537
3666	0.7527
3675	0.7518
3684	0.7509
3693	0.75
3702	0.7491
3711	0.7483
3720	0.7474
3729	0.7464
3738	0.7455
3747	0.7446
3756	0.7436
3765	0.7427
3774	0.7417
3783	0.7403
3792	0.7388
3801	0.7374
3810	0.7359
3819	0.7344
3828	0.733
3837	0.7311
3846	0.7292
3855	0.7273
3864	0.7253
3873	0.7235
3882	0.7213
3891	0.7193
3900	0.7172
3909	0.715
3918	0.7129
3927	0.7113
3936	0.7101
3945	0.7088
3954	0.7076
3963	0.7063
3972	0.7051
3981	0.7039
3990	0.7027
3999	0.7017
