Infrared Spectrum: BENZENE, 1,2,4-TRIBROMO-
Formula: C6 H3 Br3
CAS: 615-54-3
State: SOLUTION (10% IN CCl4 FOR 3800-1300, 5% IN CS2 FOR 1300-650, AND 10% IN CCl4 FOR 650-240 CM^-^1) VERSUS SOLVENT
Class: COBLENTZ III
Instrument: PERKIN-ELMER 521 (GRATING)
Instrument parameters: FILTERS AT 3150, 2500, 2000, 1150, 700, 410; GRATING CHANGES AT 2000, 630 CM^-^1
Sampling: TRANSMISSION
Path length: 0.010, 0.010, AND 0.020 CM (CsBr CELL)
Resolution: 4
Origin: DOW CORNING CORP.
1/CM	TRANSMITTANCE
241.127	0.901
250.352	0.901
259.577	0.901
268.802	0.9
278.026	0.899
287.251	0.895
296.476	0.891
305.701	0.895
314.926	0.912
324.151	0.913
333.376	0.923
342.601	0.924
351.825	0.926
361.05	0.922
370.275	0.921
379.5	0.908
388.725	0.8749
397.95	0.9
407.175	0.895
416.399	0.864
425.624	0.691
434.849	0.7929
444.074	0.858
453.299	0.844
462.524	0.5311
471.749	0.854
480.974	0.873
490.198	0.881
499.423	0.885
508.648	0.876
517.873	0.853
527.098	0.5334
536.323	0.877
545.548	0.885
554.772	0.889
563.997	0.892
573.222	0.894
582.447	0.895
591.672	0.896
600.897	0.898
610.122	0.898
619.346	0.896
628.571	0.918
637.796	0.917
647.021	0.9
656.246	0.894
665.471	0.903
674.696	0.886
683.921	0.909
693.145	0.905
702.37	0.909
711.595	0.901
720.82	0.896
730.045	0.896
739.27	0.856
748.495	0.6822
757.719	0.88
766.944	0.862
776.169	0.894
785.394	0.886
794.619	0.867
803.844	0.4051
813.069	0.872
822.294	0.896
831.518	0.9
840.743	0.892
849.968	0.876
859.193	0.848
868.418	0.593
877.643	0.887
886.868	0.899
896.092	0.898
905.317	0.896
914.542	0.896
923.767	0.894
932.992	0.891
942.217	0.89
951.442	0.89
960.667	0.887
969.891	0.892
979.116	0.895
988.341	0.885
997.566	0.864
1006.79	0.6871
1016.02	0.842
1025.24	0.886
1034.47	0.892
1043.69	0.876
1052.92	0.808
1062.14	0.889
1071.36	0.848
1080.59	0.7174
1089.81	0.847
1099.04	0.7011
1108.26	0.775
1117.49	0.881
1126.71	0.877
1135.94	0.876
1145.16	0.898
1154.39	0.898
1163.61	0.901
1172.84	0.898
1182.06	0.898
1191.29	0.898
1200.51	0.896
1209.74	0.896
1218.96	0.894
1228.19	0.892
1237.41	0.854
1246.64	0.884
1255.86	0.903
1265.09	0.899
1274.31	0.903
1283.54	0.901
1292.76	0.9
1301.99	0.901
1311.21	0.898
1320.44	0.892
1329.66	0.875
1338.89	0.843
1348.11	0.696
1357.34	0.5781
1366.56	0.833
1375.79	0.833
1385.01	0.847
1394.24	0.737
1403.46	0.805
1412.68	0.847
1421.91	0.802
1431.13	0.759
1440.36	0.4579
1449.58	0.7499
1458.81	0.852
1468.03	0.816
1477.26	0.831
1486.48	0.866
1495.71	0.863
1504.93	0.885
1514.16	0.882
1523.38	0.872
1532.61	0.857
1541.83	0.77
1551.06	0.5281
1560.28	0.782
1569.51	0.857
1578.73	0.872
1587.96	0.877
1597.18	0.878
1606.41	0.876
1615.63	0.863
1624.86	0.872
1634.08	0.878
1643.31	0.877
1652.53	0.881
1661.76	0.885
1670.98	0.886
1680.21	0.887
1689.43	0.885
1698.66	0.88
1707.88	0.877
1717.11	0.875
1726.33	0.866
1735.56	0.843
1744.78	0.863
1754	0.872
1763.23	0.885
1772.45	0.887
1781.68	0.887
1790.9	0.886
1800.13	0.885
1809.35	0.884
1818.58	0.884
1827.8	0.887
1837.03	0.887
1846.25	0.887
1855.48	0.881
1864.7	0.877
1873.93	0.873
1883.15	0.854
1892.38	0.871
1901.6	0.885
1910.83	0.887
1920.05	0.889
1929.28	0.887
1938.5	0.886
1947.73	0.889
1956.95	0.89
1966.18	0.887
1975.4	0.889
1984.63	0.886
1993.85	0.891
2003.08	0.891
2012.3	0.891
2021.53	0.89
2030.75	0.889
2039.98	0.887
2049.2	0.887
2058.43	0.886
2067.65	0.885
2076.88	0.884
2086.1	0.8821
2095.33	0.88
2104.55	0.878
2113.77	0.878
2123	0.878
2132.22	0.878
2141.45	0.877
2150.67	0.8755
2159.9	0.875
2169.12	0.875
2178.35	0.875
2187.57	0.875
2196.8	0.875
2206.02	0.875
2215.25	0.876
2224.47	0.876
2233.7	0.8732
2242.92	0.873
2252.15	0.873
2261.37	0.873
2270.6	0.873
2279.82	0.8764
2289.05	0.88
2298.27	0.876
2307.5	0.8721
2316.72	0.8754
2325.95	0.8771
2335.17	0.8692
2344.4	0.871
2353.62	0.868
2362.85	0.8698
2372.07	0.871
2381.3	0.872
2390.52	0.871
2399.75	0.868
2408.97	0.867
2418.2	0.871
2427.42	0.872
2436.65	0.872
2445.87	0.871
2455.09	0.87
2464.32	0.866
2473.54	0.864
2482.77	0.866
2491.99	0.866
2501.22	0.866
2510.44	0.866
2519.67	0.866
2528.89	0.866
2538.12	0.866
2547.34	0.866
2556.57	0.864
2565.79	0.863
2575.02	0.864
2584.24	0.866
2593.47	0.866
2602.69	0.8632
2611.92	0.862
2621.14	0.862
2630.37	0.864
2639.59	0.864
2648.82	0.866
2658.04	0.866
2667.27	0.863
2676.49	0.862
2685.72	0.859
2694.94	0.8628
2704.17	0.864
2713.39	0.866
2722.62	0.866
2731.84	0.864
2741.07	0.8633
2750.29	0.864
2759.52	0.8637
2768.74	0.863
2777.97	0.862
2787.19	0.856
2796.41	0.8545
2805.64	0.8605
2814.86	0.863
2824.09	0.863
2833.31	0.863
2842.54	0.862
2851.76	0.861
2860.99	0.8595
2870.21	0.859
2879.44	0.859
2888.66	0.859
2897.89	0.858
2907.11	0.857
2916.34	0.857
2925.56	0.857
2934.79	0.857
2944.01	0.858
2953.24	0.857
2962.46	0.8556
2971.69	0.856
2980.91	0.856
2990.14	0.8577
2999.36	0.862
3008.59	0.863
3017.81	0.8622
3027.04	0.863
3036.26	0.861
3045.49	0.859
3054.71	0.8557
3063.94	0.852
3073.16	0.849
3082.39	0.8374
3091.61	0.8266
3100.84	0.8402
3110.06	0.848
3119.29	0.85
3128.51	0.8581
3137.73	0.864
3146.96	0.8671
3156.18	0.8706
3165.41	0.872
3174.63	0.872
3183.86	0.873
3193.08	0.875
3202.31	0.875
3211.53	0.875
3220.76	0.875
3229.98	0.875
3239.21	0.875
3248.43	0.876
3257.66	0.876
3266.88	0.876
3276.11	0.876
3285.33	0.876
3294.56	0.876
3303.78	0.876
3313.01	0.876
3322.23	0.876
3331.46	0.876
3340.68	0.876
3349.91	0.876
3359.13	0.876
3368.36	0.876
3377.58	0.876
3386.81	0.876
3396.03	0.876
3405.26	0.876
3414.48	0.876
3423.71	0.876
3432.93	0.877
3442.16	0.877
3451.38	0.878
3460.61	0.878
3469.83	0.88
3479.05	0.881
3488.28	0.882
3497.5	0.882
3506.73	0.8831
3515.95	0.884
3525.18	0.885
3534.4	0.885
3543.63	0.8855
3552.85	0.887
3562.08	0.8895
3571.3	0.89
3580.53	0.891
3589.75	0.892
3598.98	0.894
3608.2	0.894
3617.43	0.894
3626.65	0.894
3635.88	0.895
3645.1	0.895
3654.33	0.895
3663.55	0.895
3672.78	0.896
3682	0.896
3691.23	0.896
3700.45	0.895
3709.68	0.895
3718.9	0.896
3728.13	0.898
3737.35	0.901
3746.58	0.901
3755.8	0.9
3765.03	0.8971
3774.25	0.895
3783.48	0.894
3792.7	0.8949
3801.93	0.896
3811.15	0.896
