Infrared Spectrum: PHENOL, 2,4-DIBROMO-
Formula: C6 H4 Br2 O
CAS: 615-58-7
State: (NEAT)
Class: COBLENTZ III
Instrument: PERKIN-ELMER 283
Sampling: TRANSMISSION
Path length: MELT
Resolution: 4
Origin: PERKIN-ELMER
1/CM	TRANSMITTANCE
204.87	0.861
214.61	0.885
224.351	0.897
234.091	0.91
243.831	0.925
253.571	0.914
263.312	0.905
273.052	0.878
282.792	0.875
292.532	0.869
302.273	0.852
312.013	0.82
321.753	0.772
331.493	0.764
341.234	0.745
350.974	0.705
360.714	0.671
370.454	0.648
380.195	0.627
389.935	0.626
399.675	0.644
409.415	0.66
419.156	0.687
428.896	0.669
438.636	0.727
448.377	0.788
458.117	0.808
467.857	0.812
477.597	0.795
487.338	0.559
497.078	0.74
506.818	0.801
516.558	0.835
526.299	0.841
536.039	0.802
545.779	0.67
555.519	0.82
565.26	0.85
575	0.859
584.74	0.869
594.48	0.868
604.221	0.786
613.961	0.657
623.701	0.667
633.442	0.877
643.182	0.885
652.922	0.882
662.662	0.859
672.403	0.688
682.143	0.385
691.883	0.806
701.623	0.863
711.364	0.887
721.104	0.901
730.844	0.899
740.584	0.908
750.325	0.908
760.065	0.9
769.805	0.91
779.545	0.909
789.286	0.879
799.026	0.627
808.766	0.294
818.506	0.426
828.247	0.706
837.987	0.822
847.727	0.846
857.468	0.652
867.208	0.556
876.948	0.817
886.688	0.913
896.429	0.928
906.169	0.928
915.909	0.925
925.649	0.916
935.39	0.879
945.13	0.885
954.87	0.904
964.61	0.923
974.351	0.925
984.091	0.93
993.831	0.923
1003.57	0.883
1013.31	0.872
1023.05	0.861
1032.79	0.673
1042.53	0.5191
1052.27	0.846
1062.01	0.804
1071.75	0.576
1081.49	0.689
1091.23	0.669
1100.97	0.723
1110.71	0.708
1120.45	0.633
1130.19	0.629
1139.94	0.602
1149.68	0.618
1159.42	0.435
1169.16	0.232
1178.9	0.072
1188.64	0.117
1198.38	0.258
1208.12	0.444
1217.86	0.603
1227.6	0.679
1237.34	0.403
1247.08	0.465
1256.82	0.591
1266.56	0.334
1276.3	0.093
1286.04	0.48
1295.78	0.768
1305.52	0.696
1315.26	0.511
1325	0.405
1334.74	0.616
1344.48	0.711
1354.22	0.749
1363.96	0.795
1373.7	0.79
1383.44	0.652
1393.18	0.348
1402.92	0.555
1412.66	0.691
1422.4	0.739
1432.14	0.767
1441.88	0.692
1451.62	0.4129
1461.36	0.263
1471.1	0.029
1480.84	0.161
1490.58	0.4971
1500.32	0.815
1510.07	0.882
1519.81	0.904
1529.55	0.914
1539.29	0.922
1549.03	0.896
1558.77	0.821
1568.51	0.6439
1578.25	0.532
1587.99	0.719
1597.73	0.875
1607.47	0.899
1617.21	0.906
1626.95	0.906
1636.69	0.923
1646.43	0.936
1656.17	0.937
1665.91	0.934
1675.65	0.943
1685.39	0.945
1695.13	0.939
1704.87	0.932
1714.61	0.922
1724.35	0.906
1734.09	0.914
1743.83	0.925
1753.57	0.935
1763.31	0.944
1773.05	0.952
1782.79	0.953
1792.53	0.952
1802.27	0.944
1812.01	0.943
1821.75	0.948
1831.49	0.952
1841.23	0.953
1850.97	0.947
1860.71	0.928
1870.45	0.914
1880.2	0.917
1889.94	0.932
1899.68	0.943
1909.42	0.949
1919.16	0.952
1928.9	0.956
1938.64	0.953
1948.38	0.949
1958.12	0.947
1967.86	0.949
1977.6	0.954
1987.34	0.956
1997.08	0.954
2006.82	0.948
2016.56	0.949
2026.3	0.95
2036.04	0.948
2045.78	0.949
2055.52	0.9485
2065.26	0.941
2075	0.944
2084.74	0.9445
2094.48	0.94
2104.22	0.935
2113.96	0.9395
2123.7	0.947
2133.44	0.9475
2143.18	0.9445
2152.92	0.945
2162.66	0.9485
2172.4	0.948
2182.14	0.947
2191.88	0.943
2201.62	0.9445
2211.36	0.942
2221.1	0.941
2230.84	0.941
2240.58	0.9395
2250.32	0.939
2260.07	0.9365
2269.81	0.935
2279.55	0.935
2289.29	0.934
2299.03	0.932
2308.77	0.927
2318.51	0.9355
2328.25	0.939
2337.99	0.939
2347.73	0.934
2357.47	0.934
2367.21	0.934
2376.95	0.9315
2386.69	0.929
2396.43	0.9265
2406.17	0.925
2415.91	0.923
2425.65	0.9225
2435.39	0.922
2445.13	0.9215
2454.87	0.915
2464.61	0.9175
2474.35	0.9185
2484.09	0.922
2493.83	0.921
2503.57	0.913
2513.31	0.91
2523.05	0.912
2532.79	0.914
2542.53	0.913
2552.27	0.916
2562.01	0.917
2571.75	0.917
2581.49	0.9185
2591.23	0.918
2600.97	0.918
2610.71	0.918
2620.45	0.916
2630.2	0.914
2639.94	0.913
2649.68	0.9125
2659.42	0.915
2669.16	0.917
2678.9	0.918
2688.64	0.9185
2698.38	0.9165
2708.12	0.913
2717.86	0.912
2727.6	0.909
2737.34	0.907
2747.08	0.905
2756.82	0.9045
2766.56	0.908
2776.3	0.904
2786.04	0.903
2795.78	0.8995
2805.52	0.897
2815.26	0.8945
2825	0.892
2834.74	0.8915
2844.48	0.8835
2854.22	0.87
2863.96	0.86
2873.7	0.8545
2883.44	0.851
2893.18	0.849
2902.92	0.8505
2912.66	0.8515
2922.4	0.858
2932.14	0.8625
2941.88	0.8695
2951.62	0.8745
2961.36	0.879
2971.1	0.882
2980.84	0.8875
2990.58	0.888
3000.33	0.883
3010.07	0.8775
3019.81	0.866
3029.55	0.854
3039.29	0.8485
3049.03	0.8395
3058.77	0.816
3068.51	0.796
3078.25	0.7725
3087.99	0.7445
3097.73	0.781
3107.47	0.8105
3117.21	0.812
3126.95	0.812
3136.69	0.812
3146.43	0.8
3156.17	0.793
3165.91	0.789
3175.65	0.79
3185.39	0.7885
3195.13	0.786
3204.87	0.781
3214.61	0.7725
3224.35	0.767
3234.09	0.761
3243.83	0.7535
3253.57	0.749
3263.31	0.7445
3273.05	0.74
3282.79	0.73
3292.53	0.7225
3302.27	0.7155
3312.01	0.7085
3321.75	0.6945
3331.49	0.6865
3341.23	0.679
3350.97	0.6655
3360.71	0.6555
3370.46	0.638
3380.2	0.6235
3389.94	0.6105
3399.68	0.593
3409.42	0.5785
3419.16	0.565
3428.9	0.543
3438.64	0.526
3448.38	0.511
3458.12	0.492
3467.86	0.4655
3477.6	0.442
3487.34	0.4185
3497.08	0.391
3506.82	0.3905
3516.56	0.4129
3526.3	0.5005
3536.04	0.5884
3545.78	0.6945
3555.52	0.7535
3565.26	0.7945
3575	0.823
3584.74	0.8495
3594.48	0.869
3604.22	0.8825
3613.96	0.888
3623.7	0.8915
3633.44	0.891
3643.18	0.8915
3652.92	0.8955
3662.66	0.907
3672.4	0.9145
3682.14	0.9215
3691.88	0.923
3701.62	0.9225
3711.36	0.921
3721.1	0.922
3730.84	0.922
3740.59	0.922
3750.33	0.9185
3760.07	0.921
3769.81	0.9225
3779.55	0.922
3789.29	0.926
3799.03	0.9255
3808.77	0.923
3818.51	0.926
3828.25	0.925
3837.99	0.923
3847.73	0.922
3857.47	0.9215
3867.21	0.92
3876.95	0.918
3886.69	0.919
3896.43	0.918
3906.17	0.917
3915.91	0.918
3925.65	0.919
3935.39	0.921
3945.13	0.919
3954.87	0.923
3964.61	0.923
3974.35	0.925
3984.09	0.924
3993.83	0.9215
