Infrared Spectrum: TRIETHYLSILANE
Formula: C6 H16 Si
CAS: 617-86-7
State: SOLID (BETWEEN SALTS)
Class: COBLENTZ
Instrument: BECKMAN IR-4 (HYBRID PRISM-GRATING)
Sampling: TRANSMISSION
Resolution: 4
Origin: PENINSULAR CHEM RESEARCH, INC., GAINESVILLE, FLORIDA
MICROMETERS	TRANSMITTANCE
2.025	0.974
2.05996	0.976
2.09491	0.972
2.12987	0.973
2.16483	0.971
2.19978	0.964
2.23474	0.937
2.2697	0.929
2.30466	0.942
2.33961	0.946
2.37457	0.934
2.40953	0.947
2.44448	0.972
2.47944	0.964
2.5144	0.943
2.54935	0.93
2.58431	0.936
2.61927	0.937
2.65422	0.93
2.68918	0.932
2.72414	0.933
2.7591	0.942
2.79405	0.949
2.82901	0.959
2.86397	0.967
2.89892	0.971
2.93388	0.966
2.96884	0.964
3.00379	0.959
3.03875	0.966
3.07371	0.962
3.10867	0.961
3.14362	0.949
3.17858	0.937
3.21354	0.908
3.24849	0.884
3.28345	0.818
3.31841	0.687
3.35336	0.425
3.38832	0.212
3.42328	0.263
3.45823	0.335
3.49319	0.682
3.52815	0.754
3.56311	0.818
3.59806	0.902
3.63302	0.892
3.66798	0.924
3.70293	0.933
3.73789	0.932
3.77285	0.934
3.8078	0.938
3.84276	0.949
3.87772	0.952
3.91267	0.952
3.94763	0.952
3.98259	0.951
4.01755	0.948
4.0525	0.942
4.08746	0.942
4.12242	0.942
4.15737	0.934
4.19233	0.924
4.22729	0.925
4.26224	0.934
4.2972	0.939
4.33216	0.943
4.36711	0.941
4.40207	0.937
4.43703	0.93
4.47199	0.925
4.50694	0.909
4.5419	0.899
4.57686	0.885
4.61181	0.836
4.64677	0.745
4.68173	0.544
4.71668	0.304
4.75164	0.204
4.7866	0.43
4.82156	0.766
4.85651	0.849
4.89147	0.894
4.92643	0.927
4.96138	0.934
4.99634	0.934
5.0313	0.941
5.06625	0.941
5.10121	0.938
5.13617	0.934
5.17112	0.939
5.20608	0.941
5.24104	0.942
5.276	0.943
5.31095	0.942
5.34591	0.943
5.38087	0.939
5.41582	0.932
5.45078	0.93
5.48574	0.928
5.52069	0.925
5.55565	0.928
5.59061	0.933
5.62556	0.942
5.66052	0.937
5.69548	0.933
5.73044	0.933
5.76539	0.928
5.80035	0.923
5.83531	0.923
5.87026	0.922
5.90522	0.927
5.94018	0.932
5.97513	0.938
6.01009	0.942
6.04505	0.936
6.08	0.934
6.11496	0.934
6.14992	0.933
6.18488	0.932
6.21983	0.937
6.25479	0.942
6.28975	0.938
6.3247	0.927
6.35966	0.919
6.39462	0.912
6.42957	0.904
6.46453	0.892
6.49949	0.887
6.53445	0.874
6.5694	0.869
6.60436	0.861
6.63932	0.853
6.67427	0.83
6.70923	0.782
6.74419	0.7
6.77914	0.496
6.8141	0.49
6.84906	0.611
6.88401	0.705
6.91897	0.775
6.95393	0.774
6.98889	0.725
7.02384	0.563
7.0588	0.574
7.09376	0.749
7.12871	0.853
7.16367	0.859
7.19863	0.825
7.23358	0.77
7.26854	0.87
7.3035	0.91
7.33845	0.922
7.37341	0.923
7.40837	0.923
7.44333	0.922
7.47828	0.92
7.51324	0.92
7.5482	0.92
7.58315	0.913
7.61811	0.907
7.65307	0.903
7.68802	0.899
7.72298	0.894
7.75794	0.895
7.7929	0.895
7.82785	0.894
7.86281	0.887
7.89777	0.874
7.93272	0.843
7.96768	0.796
8.00264	0.715
8.03759	0.607
8.07255	0.534
8.10751	0.57
8.14246	0.675
8.17742	0.781
8.21238	0.853
8.24734	0.878
8.28229	0.895
8.31725	0.905
8.35221	0.919
8.38716	0.925
8.42212	0.933
8.45708	0.936
8.49203	0.942
8.52699	0.944
8.56195	0.946
8.5969	0.946
8.63186	0.941
8.66682	0.937
8.70178	0.934
8.73673	0.939
8.77169	0.949
8.80665	0.951
8.8416	0.952
8.87656	0.956
8.91152	0.949
8.94647	0.946
8.98143	0.942
9.01639	0.947
9.05134	0.946
9.0863	0.943
9.12126	0.943
9.15622	0.938
9.19117	0.937
9.22613	0.93
9.26109	0.925
9.29604	0.92
9.331	0.913
9.36596	0.91
9.40091	0.904
9.43587	0.897
9.47083	0.892
9.50579	0.883
9.54074	0.865
9.5757	0.845
9.61066	0.819
9.64561	0.779
9.68057	0.717
9.71553	0.612
9.75048	0.468
9.78544	0.322
9.8204	0.229
9.85535	0.224
9.89031	0.257
9.92527	0.292
9.96023	0.34
9.99518	0.44
10.0301	0.547
10.0651	0.588
10.1001	0.574
10.135	0.524
10.17	0.446
10.2049	0.331
10.2399	0.257
10.2748	0.258
10.3098	0.277
10.3448	0.316
10.3797	0.405
10.4147	0.565
10.4496	0.672
10.4846	0.732
10.5195	0.769
10.5545	0.789
10.5895	0.796
10.6244	0.804
10.6594	0.826
10.6943	0.839
10.7293	0.864
10.7642	0.874
10.7992	0.88
10.8341	0.885
10.8691	0.89
10.9041	0.893
10.939	0.894
10.974	0.897
11.0089	0.898
11.0439	0.895
11.0788	0.89
11.1138	0.892
11.1488	0.885
11.1837	0.885
11.2187	0.883
11.2536	0.883
11.2886	0.877
11.3235	0.874
11.3585	0.872
11.3935	0.865
11.4284	0.863
11.4634	0.856
11.4983	0.849
11.5333	0.843
11.5682	0.834
11.6032	0.828
11.6382	0.821
11.6731	0.814
11.7081	0.797
11.743	0.785
11.778	0.762
11.8129	0.74
11.8479	0.708
11.8829	0.677
11.9178	0.641
11.9528	0.589
11.9877	0.534
12.0227	0.459
12.0576	0.387
12.0926	0.289
12.1276	0.194
12.1625	0.106
12.1975	0.056
12.2324	0.037
12.2674	0.033
12.3023	0.032
12.3373	0.033
12.3723	0.041
12.4072	0.061
12.4422	0.09
12.4771	0.15
12.5121	0.222
12.547	0.302
12.582	0.392
12.617	0.473
12.6519	0.534
12.6869	0.589
12.7218	0.622
12.7568	0.657
12.7917	0.682
12.8267	0.701
12.8617	0.717
12.8966	0.739
12.9316	0.752
12.9665	0.764
13.0015	0.77
13.0364	0.784
13.0714	0.796
13.1063	0.811
13.1413	0.818
13.1763	0.816
13.2112	0.81
13.2462	0.795
13.2811	0.78
13.3161	0.769
13.351	0.755
13.386	0.745
13.421	0.73
13.4559	0.708
13.4909	0.687
13.5258	0.657
13.5608	0.624
13.5957	0.574
13.6307	0.51
13.6657	0.449
13.7006	0.381
13.7356	0.307
13.7705	0.26
13.8055	0.249
13.8404	0.252
13.8754	0.262
13.9104	0.282
13.9453	0.303
13.9803	0.309
14.0152	0.299
14.0502	0.283
14.0851	0.273
14.1201	0.269
14.1551	0.274
14.19	0.296
14.225	0.333
14.2599	0.378
14.2949	0.425
14.3298	0.473
14.3648	0.509
14.3998	0.534
14.4347	0.549
14.4697	0.559
14.5046	0.57
14.5396	0.572
14.5745	0.575
14.6095	0.583
14.6445	0.588
14.6794	0.595
14.7144	0.598
14.7493	0.598
14.7843	0.593
14.8192	0.585
14.8542	0.569
14.8892	0.552
14.9241	0.543
14.9591	0.54
14.994	0.539
