Infrared Spectrum: Benzene, 3-ethyl-1-methyl-
Formula: C9 H12
CAS: 620-14-4
State: SOLUTION (5% CCl4 FOR 3800-1330, 5% CS2 FOR 1330-450 CM^-^1)
Class: COBLENTZ III
Instrument: DOW KBr FOREPRISM-GRATING
Instrument parameters: BLAZED AT 3.5, 12.0, 20.0 MICRON AND CHANGED AT 5.0, 7.5, 14.9 MICRON
Path length: 0.011 CM, 0.011 CM
Resolution: 2
Origin: DOW CHEMICAL COMPANY
1/CM	TRANSMITTANCE
452	0.8649
461	0.8742
470	0.8782
479	0.8856
488	0.8918
497	0.8931
506	0.8942
515	0.9029
524	0.9068
533	0.9081
542	0.9129
551	0.913
560	0.913
569	0.913
578	0.9133
587	0.9137
596	0.9122
605	0.9101
614	0.9068
623	0.9001
632	0.8863
641	0.8628
650	0.8426
659	0.8581
668	0.8706
677	0.8513
686	0.8092
695	0.4179
704	0.6177
713	0.8028
722	0.7605
731	0.8332
740	0.8081
749	0.7633
758	0.7316
767	0.6814
776	0.402
785	0.4136
794	0.5752
803	0.7832
812	0.8497
821	0.8596
830	0.855
839	0.8339
848	0.7467
857	0.7156
866	0.7331
875	0.5907
884	0.6545
893	0.7341
902	0.8483
911	0.8685
920	0.8724
929	0.8736
938	0.8731
947	0.8709
956	0.8631
965	0.8436
974	0.8466
983	0.859
992	0.8548
1001	0.8539
1010	0.8564
1019	0.8475
1028	0.8272
1037	0.7791
1046	0.7871
1055	0.7652
1064	0.7941
1073	0.8478
1082	0.8577
1091	0.8406
1100	0.798
1109	0.8842
1118	0.8968
1127	0.8955
1136	0.8824
1145	0.8782
1154	0.8538
1163	0.8613
1172	0.8253
1181	0.8694
1190	0.886
1199	0.8857
1208	0.8888
1217	0.8904
1226	0.8856
1235	0.8768
1244	0.8738
1253	0.8625
1262	0.8626
1271	0.8621
1280	0.8567
1289	0.8477
1298	0.8454
1307	0.8427
1316	0.8326
1325	0.8059
1334	0.8174
1343	0.8308
1352	0.8319
1361	0.8248
1370	0.7863
1379	0.7159
1388	0.8207
1397	0.8165
1406	0.8102
1415	0.8066
1424	0.7861
1433	0.7481
1442	0.6939
1451	0.5586
1460	0.5265
1469	0.5902
1478	0.6724
1487	0.5477
1496	0.5763
1505	0.6246
1514	0.5836
1523	0.5166
1532	0.5227
1541	0.4716
1550	0.4186
1559	0.4599
1568	0.5207
1577	0.5667
1586	0.5486
1595	0.6202
1604	0.6032
1613	0.4974
1622	0.7575
1631	0.8415
1640	0.8729
1649	0.8755
1658	0.8602
1667	0.8522
1676	0.8481
1685	0.849
1694	0.8524
1703	0.8552
1712	0.8561
1721	0.8558
1730	0.8522
1739	0.8461
1748	0.8391
1757	0.8324
1766	0.8366
1775	0.8265
1784	0.8366
1793	0.8394
1802	0.8471
1811	0.8488
1820	0.8469
1829	0.843
1838	0.838
1847	0.8304
1856	0.8235
1865	0.8117
1874	0.8386
1883	0.8489
1892	0.8487
1901	0.8482
1910	0.848
1919	0.848
1928	0.8327
1937	0.8169
1946	0.8494
1955	0.8529
1964	0.8637
1973	0.8512
1982	0.8501
1991	0.8938
2000	0.8505
2009	0.8597
2018	0.8623
2027	0.8652
2036	0.862
2045	0.8613
2054	0.8613
2063	0.862
2072	0.863
2081	0.8643
2090	0.8649
2099	0.8651
2108	0.8655
2117	0.8656
2126	0.8648
2135	0.8641
2144	0.8638
2153	0.8635
2162	0.8632
2171	0.8629
2180	0.8626
2189	0.862
2198	0.8612
2207	0.8603
2216	0.8593
2225	0.8582
2234	0.8571
2243	0.8556
2252	0.8528
2261	0.85
2270	0.8472
2279	0.8445
2288	0.844
2297	0.8452
2306	0.8469
2315	0.8484
2324	0.8496
2333	0.8501
2342	0.8522
2351	0.8551
2360	0.8566
2369	0.858
2378	0.8592
2387	0.8591
2396	0.859
2405	0.8592
2414	0.8593
2423	0.8594
2432	0.8595
2441	0.8596
2450	0.8597
2459	0.8598
2468	0.8599
2477	0.86
2486	0.86
2495	0.86
2504	0.86
2513	0.8599
2522	0.8598
2531	0.8597
2540	0.8597
2549	0.8597
2558	0.8597
2567	0.8596
2576	0.8589
2585	0.8582
2594	0.8574
2603	0.8572
2612	0.8573
2621	0.8574
2630	0.8575
2639	0.8589
2648	0.8611
2657	0.8598
2666	0.8587
2675	0.858
2684	0.8575
2693	0.8566
2702	0.8561
2711	0.8539
2720	0.8421
2729	0.8365
2738	0.8524
2747	0.8577
2756	0.8562
2765	0.8542
2774	0.8516
2783	0.8493
2792	0.8473
2801	0.844
2810	0.8362
2819	0.8198
2828	0.7934
2837	0.753
2846	0.6465
2855	0.5916
2864	0.552
2873	0.5291
2882	0.6303
2891	0.5964
2900	0.5904
2909	0.5545
2918	0.4762
2927	0.3886
2936	0.4428
2945	0.5213
2954	0.4505
2963	0.2415
2972	0.3302
2981	0.5987
2990	0.6711
2999	0.6575
3008	0.5827
3017	0.5627
3026	0.5675
3035	0.6406
3044	0.6709
3053	0.6722
3062	0.7534
3071	0.7993
3080	0.8259
3089	0.8324
3098	0.8295
3107	0.8477
3116	0.8705
3125	0.8757
3134	0.8761
3143	0.8758
3152	0.8758
3161	0.8758
3170	0.8758
3179	0.8766
3188	0.8819
3197	0.8857
3206	0.8852
3215	0.8851
3224	0.886
3233	0.8868
3242	0.8878
3251	0.8887
3260	0.8897
3269	0.8912
3278	0.8927
3287	0.8946
3296	0.8965
3305	0.8974
3314	0.897
3323	0.8964
3332	0.8958
3341	0.8955
3350	0.8964
3359	0.8988
3368	0.9004
3377	0.9011
3386	0.9012
3395	0.901
3404	0.8997
3413	0.8971
3422	0.894
3431	0.8915
3440	0.8889
3449	0.8871
3458	0.8854
3467	0.8839
3476	0.8826
3485	0.8813
3494	0.8803
3503	0.8793
3512	0.8782
3521	0.8773
3530	0.8765
3539	0.8756
3548	0.8748
3557	0.8741
3566	0.8734
3575	0.8727
3584	0.872
3593	0.8713
3602	0.8706
3611	0.87
3620	0.87
3629	0.8699
3638	0.8698
3647	0.8696
3656	0.8693
3665	0.869
3674	0.8688
3683	0.8683
3692	0.8677
3701	0.8671
3710	0.8665
3719	0.8659
3728	0.8654
3737	0.8658
3746	0.8662
3755	0.8666
3764	0.8673
3773	0.8679
3782	0.8687
3791	0.8697
