Infrared Spectrum: 1,5-DIPHENYL-3-THIOCARBOHYDRAZIDE
Formula: C13 H14 N4 S
CAS: 622-03-7
State: SOLID (MINERAL OIL MULL)
Class: COBLENTZ
Instrument: Not specified, most likely a prism, grating, or hybrid spectrometer.
Sampling: TRANSMISSION
Resolution: 4
Origin: WYANDOTTE CHEMICALS CORP., WYANDOTTE, MICHIGAN, USA
MICROMETERS	TRANSMITTANCE
2.031	0.362
2.06818	0.367
2.10537	0.372
2.14255	0.381
2.17974	0.384
2.21692	0.384
2.2541	0.381
2.29129	0.389
2.32847	0.392
2.36566	0.4
2.40284	0.403
2.44002	0.414
2.47721	0.426
2.51439	0.425
2.55158	0.439
2.58876	0.44
2.62594	0.44
2.66313	0.457
2.70031	0.476
2.7375	0.475
2.77468	0.476
2.81186	0.479
2.84905	0.487
2.88623	0.475
2.92342	0.484
2.9606	0.479
2.99778	0.5
3.03497	0.404
3.07215	0.239
3.10934	0.197
3.14652	0.222
3.1837	0.138
3.22089	0.147
3.25807	0.185
3.29526	0.172
3.33244	0.082
3.36963	0.018
3.40681	0.021
3.44399	0.035
3.48118	0.04
3.51836	0.116
3.55555	0.364
3.59273	0.431
3.62991	0.467
3.6671	0.479
3.70428	0.484
3.74147	0.506
3.77865	0.518
3.81583	0.529
3.85302	0.54
3.8902	0.551
3.92739	0.57
3.96457	0.582
4.00175	0.588
4.03894	0.593
4.07612	0.602
4.11331	0.605
4.15049	0.607
4.18767	0.616
4.22486	0.613
4.26204	0.598
4.29923	0.632
4.33641	0.652
4.37359	0.668
4.41078	0.668
4.44796	0.663
4.48515	0.674
4.52233	0.679
4.55951	0.685
4.5967	0.694
4.63388	0.696
4.67107	0.707
4.70825	0.713
4.74543	0.725
4.78262	0.728
4.8198	0.735
4.85699	0.75
4.89417	0.755
4.93135	0.753
4.96854	0.755
5.00572	0.758
5.04291	0.767
5.08009	0.753
5.11727	0.76
5.15446	0.761
5.19164	0.764
5.22883	0.758
5.26601	0.788
5.30319	0.789
5.34038	0.808
5.37756	0.808
5.41475	0.786
5.45193	0.802
5.48911	0.825
5.5263	0.845
5.56348	0.841
5.60067	0.85
5.63785	0.828
5.67503	0.861
5.71222	0.861
5.7494	0.861
5.78659	0.866
5.82377	0.864
5.86095	0.869
5.89814	0.887
5.93532	0.887
5.97251	0.89
6.00969	0.887
6.04688	0.92
6.08406	0.934
6.12124	0.852
6.15843	0.538
6.19561	0.138
6.2328	0.334
6.26998	0.538
6.30716	0.584
6.34435	0.434
6.38153	0.294
6.41872	0.197
6.4559	0.283
6.49308	0.331
6.53027	0.331
6.56745	0.484
6.60464	0.476
6.64182	0.269
6.679	0.124
6.71619	0.088
6.75337	0.123
6.79056	0.115
6.82774	0.155
6.86492	0.253
6.90211	0.359
6.93929	0.504
6.97648	0.591
7.01366	0.621
7.05084	0.679
7.08803	0.68
7.12521	0.671
7.1624	0.654
7.19958	0.485
7.23676	0.35
7.27395	0.475
7.31113	0.504
7.34832	0.484
7.3855	0.417
7.42268	0.453
7.45987	0.542
7.49705	0.534
7.53424	0.545
7.57142	0.532
7.6086	0.429
7.64579	0.352
7.68297	0.364
7.72016	0.37
7.75734	0.271
7.79452	0.395
7.83171	0.524
7.86889	0.548
7.90608	0.442
7.94326	0.322
7.98044	0.28
8.01763	0.316
8.05481	0.327
8.092	0.281
8.12918	0.266
8.16636	0.23
8.20355	0.352
8.24073	0.428
8.27792	0.468
8.3151	0.503
8.35228	0.531
8.38947	0.565
8.42665	0.584
8.46384	0.545
8.50102	0.498
8.5382	0.475
8.57539	0.487
8.61257	0.454
8.64976	0.453
8.68694	0.493
8.72413	0.551
8.76131	0.591
8.79849	0.607
8.83568	0.621
8.87286	0.641
8.91005	0.644
8.94723	0.619
8.98441	0.571
9.0216	0.579
9.05878	0.604
9.09597	0.559
9.13315	0.524
9.17033	0.596
9.20752	0.627
9.2447	0.49
9.28189	0.529
9.31907	0.602
9.35625	0.591
9.39344	0.643
9.43062	0.697
9.46781	0.733
9.50499	0.749
9.54217	0.76
9.57936	0.764
9.61654	0.774
9.65373	0.769
9.69091	0.75
9.72809	0.57
9.76528	0.671
9.80246	0.769
9.83965	0.805
9.87683	0.822
9.91401	0.839
9.9512	0.85
9.98838	0.83
10.0256	0.858
10.0628	0.828
10.0999	0.828
10.1371	0.87
10.1743	0.875
10.2115	0.883
10.2487	0.886
10.2859	0.872
10.323	0.866
10.3602	0.892
10.3974	0.909
10.4346	0.898
10.4718	0.892
10.509	0.911
10.5461	0.923
10.5833	0.934
10.6205	0.931
10.6577	0.934
10.6949	0.939
10.7321	0.943
10.7692	0.942
10.8064	0.936
10.8436	0.942
10.8808	0.943
10.918	0.951
10.9552	0.962
10.9924	0.967
11.0295	0.964
11.0667	0.94
11.1039	0.834
11.1411	0.713
11.1783	0.661
11.2155	0.755
11.2526	0.858
11.2898	0.881
11.327	0.876
11.3642	0.886
11.4014	0.884
11.4386	0.869
11.4757	0.844
11.5129	0.792
11.5501	0.736
11.5873	0.669
11.6245	0.582
11.6617	0.543
11.6988	0.532
11.736	0.582
11.7732	0.651
11.8104	0.674
11.8476	0.582
11.8848	0.526
11.922	0.585
11.9591	0.599
11.9963	0.545
12.0335	0.454
12.0707	0.422
12.1079	0.44
12.1451	0.521
12.1822	0.582
12.2194	0.641
12.2566	0.686
12.2938	0.724
12.331	0.739
12.3682	0.746
12.4053	0.781
12.4425	0.817
12.4797	0.836
12.5169	0.827
12.5541	0.817
12.5913	0.806
12.6284	0.789
12.6656	0.758
12.7028	0.711
12.74	0.643
12.7772	0.577
12.8144	0.5
12.8516	0.423
12.8887	0.32
12.9259	0.228
12.9631	0.132
13.0003	0.098
13.0375	0.116
13.0747	0.154
13.1118	0.211
13.149	0.249
13.1862	0.26
13.2234	0.23
13.2606	0.182
13.2978	0.158
13.3349	0.216
13.3721	0.3
13.4093	0.356
13.4465	0.412
13.4837	0.437
13.5209	0.453
13.558	0.475
13.5952	0.479
13.6324	0.482
13.6696	0.482
13.7068	0.473
13.744	0.462
13.7812	0.453
13.8183	0.44
13.8555	0.42
13.8927	0.412
13.9299	0.408
13.9671	0.398
14.0043	0.383
14.0414	0.389
14.0786	0.39
14.1158	0.398
14.153	0.4
14.1902	0.4
14.2274	0.389
14.2645	0.353
14.3017	0.313
14.3389	0.269
14.3761	0.272
14.4133	0.306
14.4505	0.327
14.4876	0.313
14.5248	0.269
14.562	0.241
14.5992	0.239
14.6364	0.263
14.6736	0.291
14.7108	0.334
14.7479	0.369
14.7851	0.4
14.8223	0.426
14.8595	0.443
14.8967	0.465
14.9339	0.487
14.971	0.492
15.0082	0.493
15.0454	0.481
15.0826	0.485
15.1198	0.49
15.157	0.514
15.1941	0.542
15.2313	0.563
15.2685	0.573
15.3057	0.582
15.3429	0.584
15.3801	0.59
15.4173	0.596
15.4544	0.591
15.4916	0.591
15.5288	0.591
15.566	0.584
15.6032	0.595
15.6404	0.596
15.6775	0.591
15.7147	0.573
15.7519	0.56
15.7891	0.556
15.8263	0.551
15.8635	0.548
15.9006	0.546
15.9378	0.54
15.975	0.523
