Infrared Spectrum: PHENOL, 4-ETHOXY-
Formula: C8 H10 O2
CAS: 622-62-8
State: SOLUTION (5% IN CCl4 FOR 3800-1340, 5% IN CS2 FOR 1340-400 CM^-^1)
Class: COBLENTZ II
Instrument: DOW KBr FOREPRISM-GRATING
Instrument parameters: BLAZED AT 3.5, 12.0, 20.0 MICRON, CHANGED AT 5.0, 7.5, 14.9 MICRON
Sampling: TRANSMISSION
Path length: 0.011, 0.011 CM
Resolution: 4
Origin: DOW CHEMICAL COMPANY
1/CM	TRANSMITTANCE
392.423	0.854
401.099	0.853
409.774	0.851
418.45	0.85
427.125	0.85
435.801	0.847
444.476	0.842
453.152	0.842
461.827	0.853
470.503	0.854
479.178	0.849
487.854	0.842
496.529	0.827
505.205	0.774
513.88	0.594
522.556	0.669
531.232	0.792
539.907	0.796
548.583	0.797
557.258	0.811
565.934	0.828
574.609	0.835
583.285	0.838
591.96	0.838
600.636	0.84
609.311	0.845
617.987	0.851
626.662	0.859
635.338	0.858
644.013	0.87
652.689	0.878
661.365	0.886
670.04	0.88
678.716	0.88
687.391	0.881
696.067	0.876
704.742	0.853
713.418	0.84
722.093	0.743
730.769	0.83
739.444	0.832
748.12	0.644
756.795	0.241
765.471	0.834
774.146	0.884
782.822	0.836
791.498	0.792
800.173	0.826
808.849	0.745
817.524	0.283
826.2	0.278
834.875	0.555
843.551	0.757
852.226	0.877
860.902	0.909
869.577	0.912
878.253	0.901
886.928	0.876
895.604	0.85
904.279	0.843
912.955	0.784
921.631	0.597
930.306	0.881
938.982	0.913
947.657	0.924
956.333	0.928
965.008	0.928
973.684	0.925
982.359	0.919
991.035	0.909
999.71	0.863
1008.39	0.865
1017.06	0.827
1025.74	0.703
1034.41	0.552
1043.09	0.358
1051.76	0.346
1060.44	0.774
1069.11	0.816
1077.79	0.785
1086.47	0.665
1095.14	0.556
1103.82	0.656
1112.49	0.362
1121.17	0.761
1129.84	0.801
1138.52	0.762
1147.19	0.68
1155.87	0.537
1164.55	0.277
1173.22	0.304
1181.9	0.419
1190.57	0.369
1199.25	0.202
1207.92	0.157
1216.6	0.111
1225.27	0.035
1233.95	0.052
1242.63	0.374
1251.3	0.529
1259.98	0.629
1268.65	0.76
1277.33	0.791
1286	0.699
1294.68	0.676
1303.35	0.766
1312.03	0.8
1320.71	0.711
1329.38	0.656
1338.06	0.677
1346.73	0.681
1355.41	0.692
1364.08	0.723
1372.76	0.758
1381.43	0.731
1390.11	0.66
1398.78	0.4831
1407.46	0.854
1416.14	0.854
1424.81	0.774
1433.49	0.644
1442.16	0.444
1450.84	0.576
1459.51	0.611
1468.19	0.753
1476.86	0.609
1485.54	0.742
1494.22	0.66
1502.89	0.319
1511.57	0.009
1520.24	0.543
1528.92	0.781
1537.59	0.881
1546.27	0.901
1554.94	0.901
1563.62	0.912
1572.3	0.925
1580.97	0.924
1589.65	0.908
1598.32	0.855
1607	0.913
1615.67	0.921
1624.35	0.94
1633.02	0.955
1641.7	0.956
1650.38	0.966
1659.05	0.974
1667.73	0.974
1676.4	0.977
1685.08	0.981
1693.75	0.981
1702.43	0.979
1711.1	0.979
1719.78	0.978
1728.46	0.981
1737.13	0.987
1745.81	0.993
1754.48	0.991
1763.16	0.993
1771.83	0.994
1780.51	0.989
1789.18	0.985
1797.86	0.979
1806.54	0.978
1815.21	0.977
1823.89	0.97
1832.56	0.948
1841.24	0.947
1849.91	0.967
1858.59	0.977
1867.26	0.973
1875.94	0.977
1884.61	0.983
1893.29	0.987
1901.97	0.987
1910.64	0.986
1919.32	0.986
1927.99	0.986
1936.67	0.985
1945.34	0.983
1954.02	0.979
1962.69	0.975
1971.37	0.975
1980.05	0.974
1988.72	0.97
1997.4	0.967
2006.07	0.964
2014.75	0.967
2023.42	0.972
2032.1	0.9775
2040.77	0.979
2049.45	0.978
2058.13	0.977
2066.8	0.977
2075.48	0.977
2084.15	0.978
2092.83	0.9806
2101.5	0.9865
2110.18	0.9895
2118.85	0.9935
2127.53	0.995
2136.21	0.997
2144.88	0.9959
2153.56	0.994
2162.23	0.993
2170.91	0.994
2179.58	0.9976
2188.26	1
2196.93	0.998
2205.61	0.998
2214.29	0.9959
2222.96	0.9934
2231.64	0.993
2240.31	0.9904
2248.99	0.9878
2257.66	0.9854
2266.34	0.983
2275.01	0.9814
2283.69	0.978
2292.36	0.978
2301.04	0.978
2309.72	0.979
2318.39	0.979
2327.07	0.978
2335.74	0.977
2344.42	0.9762
2353.09	0.977
2361.77	0.977
2370.44	0.977
2379.12	0.9758
2387.8	0.975
2396.47	0.974
2405.15	0.971
2413.82	0.969
2422.5	0.9647
2431.17	0.9624
2439.85	0.96
2448.52	0.962
2457.2	0.96
2465.88	0.958
2474.55	0.959
2483.23	0.9567
2491.9	0.9597
2500.58	0.9633
2509.25	0.967
2517.93	0.967
2526.6	0.966
2535.28	0.967
2543.96	0.9676
2552.63	0.97
2561.31	0.9691
2569.98	0.969
2578.66	0.97
2587.33	0.967
2596.01	0.964
2604.68	0.964
2613.36	0.9667
2622.04	0.9697
2630.71	0.969
2639.39	0.969
2648.06	0.9676
2656.74	0.9663
2665.41	0.964
2674.09	0.963
2682.76	0.963
2691.44	0.963
2700.11	0.962
2708.79	0.959
2717.47	0.955
2726.14	0.954
2734.82	0.954
2743.49	0.9575
2752.17	0.958
2760.84	0.958
2769.52	0.955
2778.19	0.954
2786.87	0.955
2795.55	0.9525
2804.22	0.9462
2812.9	0.939
2821.57	0.936
2830.25	0.9335
2838.92	0.9169
2847.6	0.9017
2856.27	0.8889
2864.95	0.7754
2873.63	0.7212
2882.3	0.7371
2890.98	0.7306
2899.65	0.6833
2908.33	0.7184
2917	0.758
2925.68	0.7329
2934.35	0.7414
2943.03	0.7706
2951.71	0.8414
2960.38	0.8113
2969.06	0.7642
2977.73	0.6368
2986.41	0.4862
2995.08	0.5565
3003.76	0.861
3012.43	0.8743
3021.11	0.8547
3029.79	0.8283
3038.46	0.8392
3047.14	0.8708
3055.81	0.9005
3064.49	0.902
3073.16	0.9071
3081.84	0.9201
3090.51	0.939
3099.19	0.939
3107.87	0.935
3116.54	0.932
3125.22	0.928
3133.89	0.925
3142.57	0.9201
3151.24	0.9132
3159.92	0.9054
3168.59	0.8942
3177.27	0.889
3185.94	0.8733
3194.62	0.8593
3203.3	0.851
3211.97	0.8403
3220.65	0.8264
3229.32	0.8122
3238	0.7924
3246.67	0.7743
3255.35	0.7563
3264.02	0.7355
3272.7	0.7184
3281.38	0.7023
3290.05	0.6922
3298.73	0.6751
3307.4	0.6591
3316.08	0.6492
3324.75	0.6401
3333.43	0.6261
3342.1	0.6191
3350.78	0.6111
3359.46	0.6031
3368.13	0.5942
3376.81	0.584
3385.48	0.578
3394.16	0.5721
3402.83	0.567
3411.51	0.564
3420.18	0.567
3428.86	0.5739
3437.54	0.5859
3446.21	0.5939
3454.89	0.6139
3463.56	0.6369
3472.24	0.6599
3480.91	0.685
3489.59	0.7179
3498.26	0.745
3506.94	0.772
3515.62	0.796
3524.29	0.811
3532.97	0.822
3541.64	0.831
3550.32	0.838
3558.99	0.849
3567.67	0.855
3576.34	0.8529
3585.02	0.8257
3593.69	0.7697
3602.37	0.656
3611.05	0.5001
3619.72	0.522
3628.4	0.8752
3637.07	0.9473
3645.75	0.9601
3654.42	0.963
3663.1	0.966
3671.77	0.969
3680.45	0.9691
3689.13	0.971
3697.8	0.973
3706.48	0.9729
3715.15	0.971
3723.83	0.974
3732.5	0.974
3741.18	0.973
3749.85	0.971
3758.53	0.97
3767.21	0.97
3775.88	0.969
3784.56	0.969
3793.23	0.97
