Infrared Spectrum: DIBENZYL MALEATE
Formula: C18 H16 O4
CAS: 622-06-0
State: SOLUTION (10% CCl4 FOR 2.5-7.5, 10% CS2 FOR 7.5-16 MICRON)
Class: COBLENTZ
Instrument: Not specified, most likely a prism, grating, or hybrid spectrometer.
Sampling: TRANSMISSION
Path length: 0.010 CM, 0.010 CM
Resolution: 4
Origin: DOW CHEMICAL COMPANY
MICROMETERS	TRANSMITTANCE
2.048	0.877
2.08374	0.875
2.11949	0.868
2.15523	0.865
2.19097	0.866
2.22672	0.863
2.26246	0.859
2.2982	0.859
2.33395	0.859
2.36969	0.863
2.40544	0.859
2.44118	0.857
2.47692	0.863
2.51267	0.87
2.54841	0.877
2.58415	0.872
2.6199	0.866
2.65564	0.88
2.69138	0.875
2.72713	0.868
2.76287	0.868
2.79861	0.865
2.83436	0.861
2.8701	0.85
2.90585	0.845
2.94159	0.859
2.97733	0.863
3.01308	0.863
3.04882	0.863
3.08456	0.859
3.12031	0.854
3.15605	0.841
3.19179	0.777
3.22754	0.687
3.26328	0.625
3.29902	0.746
3.33477	0.747
3.37051	0.717
3.40625	0.822
3.442	0.793
3.47774	0.859
3.51349	0.857
3.54923	0.863
3.58497	0.87
3.62072	0.868
3.65646	0.87
3.6922	0.87
3.72795	0.863
3.76369	0.863
3.79943	0.865
3.83518	0.865
3.87092	0.866
3.90666	0.866
3.94241	0.87
3.97815	0.872
4.0139	0.861
4.04964	0.861
4.08538	0.859
4.12113	0.861
4.15687	0.863
4.19261	0.859
4.22836	0.856
4.2641	0.857
4.29984	0.861
4.33559	0.863
4.37133	0.863
4.40707	0.863
4.44282	0.861
4.47856	0.861
4.5143	0.861
4.55005	0.861
4.58579	0.861
4.62154	0.861
4.65728	0.861
4.69302	0.861
4.72877	0.861
4.76451	0.861
4.80025	0.861
4.836	0.861
4.87174	0.861
4.90748	0.861
4.94323	0.861
4.97897	0.857
5.01471	0.841
5.05046	0.822
5.0862	0.804
5.12195	0.82
5.15769	0.838
5.19343	0.836
5.22918	0.824
5.26492	0.817
5.30066	0.817
5.33641	0.822
5.37215	0.825
5.40789	0.822
5.44364	0.799
5.47938	0.76
5.51512	0.738
5.55087	0.726
5.58661	0.694
5.62236	0.58
5.6581	0.392
5.69384	0.181
5.72959	0.026
5.76533	0.026
5.80107	0.104
5.83682	0.442
5.87256	0.605
5.9083	0.666
5.94405	0.694
5.97979	0.685
6.01553	0.577
6.05128	0.468
6.08702	0.534
6.12276	0.642
6.15851	0.706
6.19425	0.765
6.23	0.795
6.26574	0.783
6.30148	0.811
6.33723	0.84
6.37297	0.852
6.40871	0.857
6.44446	0.857
6.4802	0.854
6.51594	0.841
6.55169	0.831
6.58743	0.804
6.62317	0.694
6.65892	0.586
6.69466	0.671
6.73041	0.788
6.76615	0.73
6.80189	0.591
6.83764	0.44
6.87338	0.506
6.90912	0.666
6.94487	0.731
6.98061	0.742
7.01635	0.694
7.0521	0.523
7.08784	0.314
7.12358	0.2
7.15933	0.436
7.19507	0.55
7.23081	0.529
7.26656	0.479
7.3023	0.397
7.33805	0.476
7.37379	0.651
7.40953	0.721
7.44528	0.737
7.48102	0.692
7.51676	0.658
7.55251	0.63
7.58825	0.58
7.62399	0.516
7.65974	0.403
7.69548	0.287
7.73122	0.127
7.76697	0.095
7.80271	0.14
7.83846	0.181
7.8742	0.159
7.90994	0.129
7.94569	0.11
7.98143	0.106
8.01717	0.111
8.05292	0.12
8.08866	0.117
8.1244	0.095
8.16015	0.079
8.19589	0.062
8.23163	0.046
8.26738	0.042
8.30312	0.049
8.33886	0.063
8.37461	0.101
8.41035	0.142
8.4461	0.166
8.48184	0.154
8.51758	0.131
8.55333	0.095
8.58907	0.037
8.62481	0.015
8.66056	0.015
8.6963	0.031
8.73204	0.152
8.76779	0.293
8.80353	0.41
8.83927	0.516
8.87502	0.575
8.91076	0.614
8.94651	0.669
8.98225	0.694
9.01799	0.705
9.05374	0.712
9.08948	0.724
9.12522	0.742
9.16097	0.754
9.19671	0.747
9.23245	0.712
9.2682	0.685
9.30394	0.71
9.33968	0.738
9.37543	0.765
9.41117	0.774
9.44691	0.777
9.48266	0.776
9.5184	0.77
9.55415	0.747
9.58989	0.715
9.62563	0.682
9.66138	0.635
9.69712	0.584
9.73286	0.566
9.76861	0.543
9.80435	0.5
9.84009	0.449
9.87584	0.378
9.91158	0.323
9.94732	0.271
9.98307	0.241
10.0188	0.243
10.0546	0.268
10.0903	0.28
10.126	0.285
10.1618	0.287
10.1975	0.278
10.2333	0.268
10.269	0.271
10.3048	0.287
10.3405	0.303
10.3762	0.312
10.412	0.332
10.4477	0.383
10.4835	0.444
10.5192	0.52
10.555	0.568
10.5907	0.595
10.6265	0.614
10.6622	0.628
10.6979	0.639
10.7337	0.646
10.7694	0.651
10.8052	0.653
10.8409	0.653
10.8767	0.646
10.9124	0.623
10.9481	0.6
10.9839	0.596
11.0196	0.587
11.0554	0.579
11.0911	0.575
11.1269	0.609
11.1626	0.642
11.1983	0.669
11.2341	0.687
11.2698	0.696
11.3056	0.703
11.3413	0.706
11.3771	0.706
11.4128	0.706
11.4486	0.706
11.4843	0.706
11.52	0.705
11.5558	0.701
11.5915	0.692
11.6273	0.692
11.663	0.696
11.6988	0.698
11.7345	0.696
11.7702	0.69
11.806	0.676
11.8417	0.657
11.8775	0.641
11.9132	0.625
11.949	0.602
11.9847	0.587
12.0205	0.563
12.0562	0.545
12.0919	0.532
12.1277	0.525
12.1634	0.516
12.1992	0.506
12.2349	0.49
12.2707	0.465
12.3064	0.431
12.3421	0.412
12.3779	0.412
12.4136	0.452
12.4494	0.497
12.4851	0.543
12.5209	0.596
12.5566	0.628
12.5923	0.662
12.6281	0.687
12.6638	0.714
12.6996	0.731
12.7353	0.746
12.7711	0.753
12.8068	0.753
12.8426	0.751
12.8783	0.749
12.914	0.74
12.9498	0.726
12.9855	0.717
13.0213	0.71
13.057	0.696
13.0928	0.66
13.1285	0.634
13.1642	0.568
13.2	0.454
13.2357	0.387
13.2715	0.303
13.3072	0.243
13.343	0.204
13.3787	0.191
13.4144	0.191
13.4502	0.216
13.4859	0.236
13.5217	0.243
13.5574	0.243
13.5932	0.232
13.6289	0.225
13.6647	0.225
13.7004	0.248
13.7361	0.285
13.7719	0.321
13.8076	0.364
13.8434	0.419
13.8791	0.463
13.9149	0.499
13.9506	0.527
13.9863	0.547
14.0221	0.563
14.0578	0.564
14.0936	0.564
14.1293	0.529
14.1651	0.472
14.2008	0.394
14.2366	0.317
14.2723	0.255
14.308	0.195
14.3438	0.106
14.3795	0.085
14.4153	0.179
14.451	0.287
14.4868	0.381
14.5225	0.52
14.5582	0.607
14.594	0.651
14.6297	0.68
14.6655	0.698
14.7012	0.706
14.737	0.714
14.7727	0.726
14.8084	0.742
14.8442	0.756
14.8799	0.774
14.9157	0.785
14.9514	0.797
14.9872	0.804
15.0229	0.822
15.0587	0.827
15.0944	0.831
15.1301	0.833
15.1659	0.834
15.2016	0.834
15.2374	0.834
15.2731	0.834
15.3089	0.833
15.3446	0.836
15.3803	0.838
15.4161	0.84
15.4518	0.84
15.4876	0.838
15.5233	0.838
15.5591	0.836
15.5948	0.836
15.6305	0.834
15.6663	0.834
15.702	0.834
15.7378	0.834
15.7735	0.834
15.8093	0.833
15.845	0.831
15.8808	0.831
