Infrared Spectrum: ACETIC ACID, CYCLOHEXYL ESTER
Formula: C8 H14 O2
CAS: 622-45-7
State: SOLUTION (10% IN CCl4 FOR 3800-1300, 10% IN CS2 FOR 1300-650, AND 10% CCl4 FOR 650-250 CM^-^1) VERSUS SOLVENT
Class: COBLENTZ III
Instrument: PERKIN-ELMER 521 (GRATING)
Instrument parameters: FILTERS AT 3150, 2500, 2000, 1150, 700, 410; GRATING CHANGES AT 2000, 630 CM^-^1
Sampling: TRANSMISSION
Path length: 0.011, 0.010, AND 0.010 CM (CsBr CELL)
Resolution: 4
Origin: DOW CORNING CORP.
1/CM	TRANSMITTANCE
217.715	0.752
227.556	0.76
237.398	0.769
247.239	0.768
257.081	0.773
266.922	0.781
276.764	0.796
286.605	0.804
296.447	0.815
306.288	0.843
316.129	0.851
325.971	0.852
335.812	0.834
345.654	0.772
355.495	0.768
365.337	0.863
375.178	0.883
385.02	0.887
394.861	0.895
404.702	0.898
414.544	0.898
424.385	0.894
434.227	0.866
444.068	0.816
453.91	0.815
463.751	0.829
473.592	0.872
483.434	0.876
493.275	0.908
503.117	0.917
512.958	0.93
522.8	0.935
532.641	0.929
542.483	0.894
552.324	0.91
562.165	0.931
572.007	0.93
581.848	0.919
591.69	0.879
601.531	0.669
611.373	0.851
621.214	0.884
631.056	0.939
640.897	0.937
650.738	0.864
660.58	0.832
670.421	0.965
680.263	0.989
690.104	0.986
699.946	1.002
709.787	1.016
719.629	1.017
729.47	1.017
739.311	1.018
749.153	1.006
758.994	1.004
768.836	1.016
778.677	1.005
788.519	0.986
798.36	0.981
808.202	0.958
818.043	0.966
827.884	0.908
837.726	0.955
847.567	0.855
857.409	0.985
867.25	0.898
877.092	0.939
886.933	0.937
896.775	0.751
906.616	0.615
916.457	0.883
926.299	0.978
936.14	1.016
945.982	1
955.823	0.788
965.665	0.718
975.506	0.755
985.347	0.979
995.189	0.931
1005.03	0.805
1014.87	0.516
1024.71	0.125
1034.55	0.309
1044.4	0.109
1054.24	0.184
1064.08	0.661
1073.92	0.772
1083.76	0.863
1093.6	0.88
1103.44	0.975
1113.29	0.974
1123.13	0.7969
1132.97	0.941
1142.81	0.981
1152.65	0.938
1162.49	0.903
1172.33	0.979
1182.18	0.919
1192.02	0.844
1201.86	0.76
1211.7	0.618
1221.54	0.41
1231.38	0.008
1241.22	0
1251.07	0.001
1260.91	0.046
1270.75	0.207
1280.59	0.479
1290.43	0.589
1300.27	0.688
1310.12	0.709
1319.96	0.645
1329.8	0.714
1339.64	0.725
1349.48	0.65
1359.32	0.497
1369.16	0.021
1379.01	0.206
1388.85	0.429
1398.69	0.643
1408.53	0.692
1418.37	0.666
1428.21	0.597
1438.05	0.499
1447.9	0.435
1457.74	0.19
1467.58	0.594
1477.42	0.734
1487.26	0.797
1497.1	0.804
1506.94	0.829
1516.79	0.838
1526.63	0.832
1536.47	0.828
1546.31	0.86
1556.15	0.868
1565.99	0.868
1575.83	0.87
1585.68	0.868
1595.52	0.848
1605.36	0.832
1615.2	0.816
1625.04	0.807
1634.88	0.834
1644.72	0.817
1654.57	0.779
1664.41	0.775
1674.25	0.759
1684.09	0.724
1693.93	0.618
1703.77	0.497
1713.61	0.388
1723.46	0.112
1733.3	0.002
1743.14	0.001
1752.98	0.049
1762.82	0.35
1772.66	0.524
1782.5	0.674
1792.35	0.657
1802.19	0.744
1812.03	0.801
1821.87	0.831
1831.71	0.844
1841.55	0.847
1851.39	0.844
1861.24	0.866
1871.08	0.878
1880.92	0.882
1890.76	0.884
1900.6	0.886
1910.44	0.879
1920.28	0.876
1930.13	0.871
1939.97	0.882
1949.81	0.887
1959.65	0.895
1969.49	0.904
1979.33	0.903
1989.17	0.903
1999.02	0.91
2008.86	0.93
2018.7	0.933
2028.54	0.934
2038.38	0.935
2048.22	0.935
2058.06	0.933
2067.91	0.933
2077.75	0.927
2087.59	0.923
2097.43	0.925
2107.27	0.925
2117.11	0.9145
2126.95	0.907
2136.8	0.91
2146.64	0.908
2156.48	0.9089
2166.32	0.914
2176.16	0.918
2186	0.915
2195.84	0.915
2205.69	0.915
2215.53	0.9174
2225.37	0.919
2235.21	0.915
2245.05	0.914
2254.89	0.912
2264.74	0.914
2274.58	0.915
2284.42	0.921
2294.26	0.921
2304.1	0.922
2313.94	0.919
2323.78	0.918
2333.63	0.915
2343.47	0.918
2353.31	0.9184
2363.15	0.915
2372.99	0.919
2382.83	0.9202
2392.67	0.9174
2402.52	0.9202
2412.36	0.9186
2422.2	0.9161
2432.04	0.918
2441.88	0.9157
2451.72	0.915
2461.56	0.9133
2471.41	0.903
2481.25	0.8996
2491.09	0.9041
2500.93	0.9127
2510.77	0.914
2520.61	0.917
2530.45	0.9173
2540.3	0.919
2550.14	0.917
2559.98	0.9163
2569.82	0.914
2579.66	0.9117
2589.5	0.9053
2599.34	0.9027
2609.19	0.9
2619.03	0.902
2628.87	0.902
2638.71	0.899
2648.55	0.8947
2658.39	0.8701
2668.23	0.8553
2678.08	0.8685
2687.92	0.88
2697.76	0.879
2707.6	0.8849
2717.44	0.896
2727.28	0.904
2737.12	0.907
2746.97	0.9054
2756.81	0.899
2766.65	0.894
2776.49	0.8787
2786.33	0.8717
2796.17	0.8521
2806.01	0.835
2815.86	0.8312
2825.7	0.8157
2835.54	0.7787
2845.38	0.6733
2855.22	0.4066
2865.06	0.0892
2874.9	0.162
2884.75	0.5517
2894.59	0.522
2904.43	0.3764
2914.27	0.2353
2924.11	0.1002
2933.95	0.0168
2943.79	0.016
2953.64	0.0227
2963.48	0.116
2973.32	0.3636
2983.16	0.5821
2993	0.6942
3002.84	0.7649
3012.68	0.7936
3022.53	0.8065
3032.37	0.8216
3042.21	0.8544
3052.05	0.8636
3061.89	0.8718
3071.73	0.883
3081.57	0.892
3091.42	0.8964
3101.26	0.902
3111.1	0.904
3120.94	0.9072
3130.78	0.9065
3140.62	0.903
3150.46	0.9056
3160.31	0.9043
3170.15	0.907
3179.99	0.907
3189.83	0.9083
3199.67	0.91
3209.51	0.9108
3219.35	0.9112
3229.2	0.911
3239.04	0.91
3248.88	0.908
3258.72	0.907
3268.56	0.907
3278.4	0.907
3288.24	0.907
3298.09	0.907
3307.93	0.907
3317.77	0.907
3327.61	0.907
3337.45	0.906
3347.29	0.907
3357.14	0.908
3366.98	0.9079
3376.82	0.907
3386.66	0.906
3396.5	0.906
3406.34	0.904
3416.18	0.9016
3426.03	0.8909
3435.87	0.8777
3445.71	0.8679
3455.55	0.87
3465.39	0.8785
3475.23	0.8951
3485.07	0.9
3494.92	0.899
3504.76	0.898
3514.6	0.8959
3524.44	0.894
3534.28	0.895
3544.12	0.8991
3553.96	0.9041
3563.81	0.9151
3573.65	0.922
3583.49	0.926
3593.33	0.929
3603.17	0.9289
3613.01	0.925
3622.85	0.9262
3632.7	0.937
3642.54	0.938
3652.38	0.938
3662.22	0.939
3672.06	0.935
3681.9	0.923
3691.74	0.934
3701.59	0.945
3711.43	0.946
3721.27	0.947
3731.11	0.946
3740.95	0.949
3750.79	0.951
3760.63	0.947
3770.48	0.949
3780.32	0.951
3790.16	0.951
3800	0.951
