Infrared Spectrum: BENZENE, 1,4-BIS(CHLOROMETHYL)-
Formula: C8 H8 Cl2
CAS: 623-25-6
State: SOLID (SPLIT MULL, FLUOROLUBE FOR 3800-1330 AND NUJOL FOR 1330-400 CM ^-^1)
Class: COBLENTZ III
Instrument: BECKMAN IR-9 (GRATING)
Instrument parameters: ORDER CHANGES AT 670, 1200, 2000 CM^-^1
Sampling: TRANSMISSION
Resolution: 4
Origin: DOW CHEMICAL COMPANY
1/CM	TRANSMITTANCE
400	0.777
408.696	0.751
417.391	0.754
426.087	0.802
434.783	0.853
443.478	0.892
452.174	0.922
460.87	0.947
469.565	0.964
478.261	0.98
486.956	0.991
495.652	1.002
504.348	1.006
513.043	1.001
521.739	0.667
530.435	1.025
539.13	1.032
547.826	1.032
556.522	1.033
565.217	1.027
573.913	1.025
582.609	1.02
591.304	1.008
600	0.994
608.695	1.001
617.391	1.008
626.087	0.991
634.782	0.97
643.478	0.921
652.174	0.631
660.869	0.705
669.565	0.369
678.261	0.031
686.956	0.663
695.652	0.932
704.348	0.972
713.043	0.976
721.739	0.94
730.434	0.963
739.13	0.967
747.826	0.936
756.521	0.144
765.217	0.932
773.913	0.986
782.608	1.006
791.304	1.009
800	1.008
808.695	1.002
817.391	0.998
826.087	0.991
834.782	0.98
843.478	0.934
852.173	0.596
860.869	0.849
869.565	0.945
878.26	0.99
886.956	0.982
895.652	0.948
904.347	0.986
913.043	0.986
921.739	0.983
930.434	0.989
939.13	0.983
947.826	0.985
956.521	0.98
965.217	0.975
973.912	0.955
982.608	0.976
991.304	0.982
999.999	0.982
1008.7	0.979
1017.39	0.976
1026.09	0.956
1034.78	0.971
1043.48	0.972
1052.17	0.971
1060.87	0.971
1069.56	0.957
1078.26	0.953
1086.96	0.964
1095.65	0.957
1104.35	0.892
1113.04	0.966
1121.74	0.975
1130.43	0.957
1139.13	0.959
1147.83	0.944
1156.52	0.951
1165.22	0.951
1173.91	0.948
1182.61	0.942
1191.3	0.932
1200	0.891
1208.69	0.894
1217.39	0.88
1226.09	0.933
1234.78	0.923
1243.48	0.898
1252.17	0.694
1260.87	0.43
1269.56	0.68
1278.26	0.915
1286.96	0.937
1295.65	0.932
1304.35	0.876
1313.04	0.933
1321.74	0.936
1330.43	0.937
1339.13	0.902
1347.83	0.902
1356.52	0.944
1365.22	0.948
1373.91	0.949
1382.61	0.964
1391.3	0.967
1400	0.963
1408.69	0.967
1417.39	0.907
1426.09	0.932
1434.78	0.934
1443.48	0.823
1452.17	0.94
1460.87	0.971
1469.56	0.971
1478.26	0.968
1486.96	0.972
1495.65	0.972
1504.35	0.964
1513.04	0.815
1521.74	0.933
1530.43	0.968
1539.13	0.976
1547.82	0.975
1556.52	0.975
1565.22	0.975
1573.91	0.976
1582.61	0.974
1591.3	0.972
1600	0.968
1608.69	0.967
1617.39	0.97
1626.09	0.968
1634.78	0.964
1643.48	0.961
1652.17	0.961
1660.87	0.961
1669.56	0.957
1678.26	0.955
1686.96	0.955
1695.65	0.941
1704.35	0.906
1713.04	0.945
1721.74	0.944
1730.43	0.926
1739.13	0.927
1747.82	0.934
1756.52	0.945
1765.22	0.947
1773.91	0.945
1782.61	0.938
1791.3	0.941
1800	0.936
1808.69	0.929
1817.39	0.894
1826.09	0.932
1834.78	0.94
1843.48	0.94
1852.17	0.936
1860.87	0.933
1869.56	0.927
1878.26	0.926
1886.95	0.926
1895.65	0.923
1904.35	0.925
1913.04	0.922
1921.74	0.915
1930.43	0.808
1939.13	0.911
1947.82	0.918
1956.52	0.918
1965.22	0.911
1973.91	0.911
1982.61	0.907
1991.3	0.907
2000	0.91
2008.69	0.904
2017.39	0.898
2026.09	0.896
2034.78	0.895
2043.48	0.891
2052.17	0.892
2060.87	0.884
2069.56	0.885
2078.26	0.884
2086.95	0.881
2095.65	0.879
2104.35	0.876
2113.04	0.873
2121.74	0.872
2130.43	0.869
2139.13	0.869
2147.82	0.87
2156.52	0.865
2165.22	0.861
2173.91	0.858
2182.61	0.855
2191.3	0.851
2200	0.849
2208.69	0.846
2217.39	0.843
2226.09	0.842
2234.78	0.834
2243.48	0.832
2252.17	0.828
2260.87	0.824
2269.56	0.822
2278.26	0.815
2286.95	0.812
2295.65	0.811
2304.35	0.811
2313.04	0.811
2321.74	0.809
2330.43	0.807
2339.13	0.804
2347.82	0.802
2356.52	0.804
2365.22	0.811
2373.91	0.812
2382.61	0.805
2391.3	0.8
2400	0.798
2408.69	0.797
2417.39	0.794
2426.08	0.788
2434.78	0.792
2443.48	0.792
2452.17	0.792
2460.87	0.79
2469.56	0.785
2478.26	0.785
2486.95	0.782
2495.65	0.782
2504.35	0.781
2513.04	0.781
2521.74	0.778
2530.43	0.778
2539.13	0.777
2547.82	0.775
2556.52	0.77
2565.22	0.77
2573.91	0.769
2582.61	0.767
2591.3	0.766
2600	0.762
2608.69	0.762
2617.39	0.762
2626.08	0.76
2634.78	0.758
2643.48	0.758
2652.17	0.755
2660.87	0.754
2669.56	0.751
2678.26	0.748
2686.95	0.744
2695.65	0.74
2704.35	0.735
2713.04	0.736
2721.74	0.74
2730.43	0.74
2739.13	0.737
2747.82	0.733
2756.52	0.735
2765.21	0.73
2773.91	0.726
2782.61	0.726
2791.3	0.724
2800	0.724
2808.69	0.721
2817.39	0.716
2826.08	0.707
2834.78	0.709
2843.48	0.706
2852.17	0.697
2860.87	0.68
2869.56	0.673
2878.26	0.687
2886.95	0.69
2895.65	0.69
2904.35	0.683
2913.04	0.677
2921.74	0.676
2930.43	0.672
2939.13	0.663
2947.82	0.658
2956.52	0.631
2965.21	0.5861
2973.91	0.635
2982.61	0.671
2991.3	0.676
3000	0.675
3008.69	0.671
3017.39	0.673
3026.08	0.673
3034.78	0.668
3043.48	0.671
3052.17	0.656
3060.87	0.66
3069.56	0.66
3078.26	0.66
3086.95	0.657
3095.65	0.653
3104.35	0.652
3113.04	0.653
3121.74	0.65
3130.43	0.648
3139.13	0.648
3147.82	0.646
3156.52	0.645
3165.21	0.644
3173.91	0.639
3182.61	0.638
3191.3	0.635
3200	0.633
3208.69	0.629
3217.39	0.63
3226.08	0.629
3234.78	0.627
3243.48	0.623
3252.17	0.62
3260.87	0.619
3269.56	0.616
3278.26	0.615
3286.95	0.612
3295.65	0.608
3304.34	0.607
3313.04	0.605
3321.74	0.604
3330.43	0.6
3339.13	0.595
3347.82	0.589
3356.52	0.588
3365.21	0.586
3373.91	0.585
3382.61	0.582
3391.3	0.578
3400	0.577
3408.69	0.577
3417.39	0.576
3426.08	0.574
3434.78	0.57
3443.48	0.569
3452.17	0.567
3460.87	0.565
3469.56	0.565
3478.26	0.563
3486.95	0.563
3495.65	0.562
3504.34	0.562
3513.04	0.561
3521.74	0.558
3530.43	0.555
3539.13	0.552
3547.82	0.554
3556.52	0.552
3565.21	0.551
3573.91	0.55
3582.61	0.532
3591.3	0.544
3600	0.544
3608.69	0.533
3617.39	0.54
3626.08	0.54
3634.78	0.54
3643.47	0.54
3652.17	0.539
3660.87	0.539
3669.56	0.535
3678.26	0.535
3686.95	0.535
3695.65	0.532
3704.34	0.533
3713.04	0.531
3721.74	0.529
3730.43	0.528
3739.13	0.528
3747.82	0.528
3756.52	0.527
3765.21	0.523
3773.91	0.52
3782.61	0.519
3791.3	0.517
