Infrared Spectrum: p-CHLOROBENZONITRILE
Formula: C7 H4 Cl N
CAS: 623-03-0
State: GAS (VAPOR AT 100 C, N2 ADDED, TOTAL PRESSURE ABOUT 1 ATM.)
Class: COBLENTZ
Instrument: DOW KBr FOREPRISM-GRATING
Instrument parameters: BLAZED AT 3.5, 12.0, 20.0 MICRON, CHANGED AT 5.0, 7.5, 14.9 MICRON
Sampling: TRANSMISSION
Path length: 500 CM
Resolution: 2
Origin: DOW CHEMICAL COMPANY
1/CM	TRANSMITTANCE
430.203	1.109
439.086	1.105
447.97	1.107
456.853	1.105
465.736	1.103
474.619	1.097
483.503	1.087
492.386	1.069
501.269	1.031
510.153	0.98
519.036	0.874
527.919	0.7351
536.802	0.589
545.686	0.747
554.569	0.97
563.452	1.017
572.336	0.982
581.219	0.6776
590.102	0.657
598.986	0.9599
607.869	1.023
616.752	0.998
625.635	1.003
634.519	1.029
643.402	1.025
652.285	1.013
661.169	1.027
670.052	1.051
678.935	1.039
687.818	0.972
696.702	1.027
705.585	1.045
714.468	1.073
723.352	1.081
732.235	1.065
741.118	1.025
750.001	0.966
758.885	0.8261
767.768	0.89
776.651	0.774
785.535	0.741
794.418	0.9379
803.301	0.948
812.184	0.804
821.068	0.4602
829.951	0.31
838.834	0.332
847.718	0.3999
856.601	0.778
865.484	0.904
874.368	0.948
883.251	0.968
892.134	0.96
901.017	0.972
909.901	0.98
918.784	0.97
927.667	0.968
936.551	0.96
945.434	0.96
954.317	0.96
963.2	0.954
972.084	0.956
980.967	0.958
989.85	0.954
998.734	0.938
1007.62	0.88
1016.5	0.4659
1025.38	0.382
1034.27	0.8879
1043.15	0.914
1052.03	0.896
1060.92	0.874
1069.8	0.796
1078.68	0.675
1087.57	0.4803
1096.45	0.157
1105.33	0.183
1114.22	0.7429
1123.1	0.79
1131.98	0.796
1140.87	0.844
1149.75	0.866
1158.63	0.858
1167.52	0.816
1176.4	0.78
1185.28	0.786
1194.17	0.836
1203.05	0.858
1211.93	0.874
1220.82	0.854
1229.7	0.812
1238.58	0.794
1247.47	0.76
1256.35	0.741
1265.23	0.731
1274.12	0.749
1283	0.788
1291.88	0.806
1300.77	0.822
1309.65	0.832
1318.53	0.822
1327.42	0.826
1336.3	0.822
1345.18	0.7761
1354.07	0.814
1362.95	0.78
1371.83	0.762
1380.72	0.725
1389.6	0.677
1398.48	0.603
1407.36	0.605
1416.25	0.665
1425.13	0.747
1434.01	0.776
1442.9	0.774
1451.78	0.77
1460.66	0.725
1469.55	0.7091
1478.43	0.356
1487.31	0.107
1496.2	0.063
1505.08	0.133
1513.96	0.709
1522.85	0.707
1531.73	0.727
1540.61	0.689
1549.5	0.715
1558.38	0.719
1567.26	0.723
1576.15	0.703
1585.03	0.6509
1593.91	0.2701
1602.8	0.137
1611.68	0.5451
1620.56	0.737
1629.45	0.749
1638.33	0.709
1647.21	0.641
1656.1	0.653
1664.98	0.685
1673.86	0.679
1682.75	0.661
1691.63	0.717
1700.51	0.713
1709.4	0.729
1718.28	0.711
1727.16	0.739
1736.05	0.713
1744.93	0.699
1753.81	0.725
1762.7	0.725
1771.58	0.675
1780.46	0.655
1789.35	0.699
1798.23	0.723
1807.11	0.743
1816	0.745
1824.88	0.739
1833.76	0.745
1842.65	0.739
1851.53	0.745
1860.41	0.743
1869.3	0.707
1878.18	0.723
1887.06	0.707
1895.95	0.649
1904.83	0.607
1913.71	0.621
1922.6	0.673
1931.48	0.725
1940.36	0.727
1949.25	0.733
1958.13	0.743
1967.01	0.719
1975.9	0.729
1984.78	0.725
1993.66	0.723
2002.55	0.806
2011.43	0.802
2020.31	0.796
2029.2	0.7929
2038.08	0.7859
2046.96	0.7829
2055.85	0.78
2064.73	0.776
2073.61	0.774
2082.49	0.776
2091.38	0.7737
2100.26	0.7667
2109.14	0.7617
2118.03	0.7566
2126.91	0.758
2135.79	0.754
2144.68	0.7498
2153.56	0.7455
2162.44	0.743
2171.33	0.739
2180.21	0.731
2189.09	0.729
2197.98	0.727
2206.86	0.7214
2215.74	0.7043
2224.63	0.5819
2233.51	0.3984
2242.39	0.3457
2251.28	0.6874
2260.16	0.707
2269.04	0.6922
2277.93	0.689
2286.81	0.687
2295.69	0.6851
2304.58	0.685
2313.46	0.685
2322.34	0.685
2331.23	0.683
2340.11	0.683
2348.99	0.6809
2357.88	0.677
2366.76	0.677
2375.64	0.679
2384.53	0.6814
2393.41	0.687
2402.29	0.689
2411.18	0.689
2420.06	0.689
2428.94	0.689
2437.83	0.685
2446.71	0.6796
2455.59	0.679
2464.48	0.6736
2473.36	0.6701
2482.24	0.662
2491.13	0.659
2500.01	0.6519
2508.89	0.643
2517.78	0.641
2526.66	0.641
2535.54	0.6447
2544.43	0.6511
2553.31	0.6536
2562.19	0.647
2571.08	0.647
2579.96	0.6478
2588.84	0.653
2597.73	0.6473
2606.61	0.6529
2615.49	0.657
2624.38	0.6531
2633.26	0.651
2642.14	0.649
2651.03	0.647
2659.91	0.647
2668.79	0.645
2677.68	0.645
2686.56	0.647
2695.44	0.647
2704.33	0.645
2713.21	0.643
2722.09	0.643
2730.98	0.6387
2739.86	0.6317
2748.74	0.625
2757.63	0.6216
2766.51	0.615
2775.39	0.6184
2784.27	0.617
2793.16	0.621
2802.04	0.621
2810.92	0.617
2819.81	0.617
2828.69	0.619
2837.57	0.6196
2846.46	0.6174
2855.34	0.613
2864.22	0.613
2873.11	0.6083
2881.99	0.6053
2890.87	0.6042
2899.76	0.601
2908.64	0.603
2917.52	0.601
2926.41	0.599
2935.29	0.599
2944.17	0.599
2953.06	0.601
2961.94	0.598
2970.82	0.597
2979.71	0.599
2988.59	0.5989
2997.47	0.5959
3006.36	0.589
3015.24	0.585
3024.12	0.5808
3033.01	0.5758
3041.89	0.5603
3050.77	0.5503
3059.66	0.557
3068.54	0.5497
3077.42	0.5447
3086.31	0.5356
3095.19	0.523
3104.07	0.5136
3112.96	0.5404
3121.84	0.5735
3130.72	0.585
3139.61	0.585
3148.49	0.585
3157.37	0.583
3166.26	0.585
3175.14	0.5813
3184.02	0.5803
3192.91	0.577
3201.79	0.577
3210.67	0.579
3219.56	0.5798
3228.44	0.583
3237.32	0.5842
3246.21	0.581
3255.09	0.581
3263.97	0.581
3272.86	0.579
3281.74	0.579
3290.62	0.576
3299.51	0.575
3308.39	0.575
3317.27	0.575
3326.16	0.575
3335.04	0.573
3343.92	0.573
3352.81	0.573
3361.69	0.573
3370.57	0.5727
3379.46	0.571
3388.34	0.567
3397.22	0.5636
3406.11	0.5586
3414.99	0.5536
3423.87	0.549
3432.76	0.547
3441.64	0.556
3450.52	0.561
3459.4	0.559
3468.29	0.559
3477.17	0.5564
3486.05	0.555
3494.94	0.549
3503.82	0.5507
3512.7	0.5516
3521.59	0.547
3530.47	0.549
3539.35	0.547
3548.24	0.543
3557.12	0.5392
3566	0.5399
3574.89	0.543
3583.77	0.5381
3592.65	0.535
3601.54	0.536
3610.42	0.535
3619.3	0.539
3628.19	0.5369
3637.07	0.5287
3645.95	0.5311
3654.84	0.535
3663.72	0.5328
3672.6	0.531
3681.49	0.529
3690.37	0.529
3699.25	0.525
3708.14	0.523
3717.02	0.5187
3725.9	0.5116
3734.79	0.5174
3743.67	0.5264
3752.55	0.5315
3761.44	0.533
3770.32	0.531
3779.2	0.5255
3788.09	0.5281
3796.97	0.531
