Infrared Spectrum: p-CHLOROBENZONITRILE
Formula: C7 H4 Cl N
CAS: 623-03-0
State: SOLUTION (10% IN CCl4 FOR 3800-1335 CM^-^1, 10% IN CS2 FOR 1335-420 CM^-^1)
Melting point: 91 C
Class: COBLENTZ III
Instrument: DOW KBr FOREPRISM-GRATING
Instrument parameters: GRATING BLAZED AT 3.5, 12.0, 20.0 MICRONS AND CHANGED AT 5.0, 7.5, 14.9 MICRONS
Sampling: TRANSMISSION
Path length: 0.012 CM, 0.011 CM
Resolution: 4
Origin: DOW CHEMICAL COMPANY
1/CM	TRANSMITTANCE
423.723	0.921
432.509	0.929
441.296	0.94
450.082	0.947
458.869	0.958
467.655	0.979
476.441	0.994
485.228	1.005
494.014	1.019
502.801	1.023
511.587	1.017
520.373	1.004
529.16	0.943
537.946	0.118
546.732	0.6999
555.519	0.959
564.305	1.006
573.092	0.994
581.878	0.726
590.664	0.5171
599.451	0.953
608.237	1.02
617.024	1.03
625.81	1.017
634.596	0.997
643.383	0.969
652.169	0.937
660.956	0.988
669.742	1.002
678.528	1.001
687.315	1.004
696.101	0.995
704.888	0.915
713.674	0.993
722.46	1.005
731.247	1.008
740.033	1.006
748.82	1.006
757.606	1
766.392	0.988
775.179	0.924
783.965	0.726
792.751	0.932
801.538	0.922
810.324	0.866
819.111	0.676
827.897	0.006
836.683	0.205
845.47	0.716
854.256	0.733
863.043	0.794
871.829	0.805
880.615	0.874
889.402	0.943
898.188	0.977
906.975	1.001
915.761	1.004
924.547	1.001
933.334	0.991
942.12	0.969
950.907	0.947
959.693	0.964
968.479	0.979
977.266	0.99
986.052	0.998
994.839	0.998
1003.62	0.984
1012.41	0.875
1021.2	0.4262
1029.98	0.98
1038.77	0.993
1047.56	0.99
1056.34	0.982
1065.13	0.955
1073.92	0.904
1082.7	0.596
1091.49	0.078
1100.28	0.476
1109.06	0.882
1117.85	0.93
1126.63	0.957
1135.42	0.962
1144.21	0.988
1152.99	1
1161.78	0.983
1170.57	0.932
1179.35	0.907
1188.14	0.966
1196.93	0.904
1205.71	1.004
1214.5	1.011
1223.28	1.001
1232.07	1.006
1240.86	1.001
1249.64	0.95
1258.43	0.914
1267.22	0.944
1276	0.863
1284.79	0.951
1293.58	0.983
1302.36	0.933
1311.15	0.99
1319.94	0.993
1328.72	0.993
1337.51	0.993
1346.29	0.983
1355.08	0.965
1363.87	0.946
1372.65	0.953
1381.44	0.951
1390.23	0.896
1399.01	0.57
1407.8	0.773
1416.59	0.973
1425.37	0.98
1434.16	0.98
1442.94	0.979
1451.73	0.964
1460.52	0.954
1469.3	0.929
1478.09	0.6349
1486.88	0.033
1495.66	0.092
1504.45	0.738
1513.24	0.755
1522.02	0.714
1530.81	0.653
1539.59	0.558
1548.38	0.48
1557.17	0.498
1565.95	0.577
1574.74	0.575
1583.53	0.577
1592.31	0.3379
1601.1	0.5051
1609.89	0.792
1618.67	0.929
1627.46	0.954
1636.25	0.959
1645.03	0.944
1653.82	0.868
1662.6	0.926
1671.39	0.943
1680.18	0.914
1688.96	0.957
1697.75	0.983
1706.54	0.988
1715.32	0.991
1724.11	0.99
1732.9	0.997
1741.68	0.988
1750.47	0.994
1759.25	0.987
1768.04	0.975
1776.83	0.941
1785.61	0.943
1794.4	0.975
1803.19	0.984
1811.97	0.988
1820.76	0.99
1829.55	0.99
1838.33	0.988
1847.12	0.99
1855.9	0.986
1864.69	0.983
1873.48	0.969
1882.26	0.983
1891.05	0.966
1899.84	0.924
1908.62	0.819
1917.41	0.929
1926.2	0.976
1934.98	0.984
1943.77	0.988
1952.56	0.99
1961.34	0.988
1970.13	0.99
1978.91	0.994
1987.7	0.994
1996.49	0.997
2005.27	1.001
2014.06	1.002
2022.85	1.002
2031.63	1.004
2040.42	1.004
2049.21	1.004
2057.99	1.005
2066.78	1.005
2075.56	1.006
2084.35	1.006
2093.14	1.006
2101.92	1.006
2110.71	1.006
2119.5	1.006
2128.28	1.005
2137.07	1.004
2145.86	1.002
2154.64	1.002
2163.43	1.002
2172.22	1.001
2181	0.9804
2189.79	0.9858
2198.57	0.99
2207.36	0.98
2216.15	0.9691
2224.93	0.9219
2233.72	0.1053
2242.51	0.5648
2251.29	0.9561
2260.08	0.965
2268.87	0.961
2277.65	0.9571
2286.44	0.953
2295.22	0.9401
2304.01	0.9659
2312.8	0.9797
2321.58	1.0012
2330.37	1.006
2339.16	1.0051
2347.94	1.0011
2356.73	1
2365.52	0.9941
2374.3	0.9901
2383.09	0.988
2391.87	0.9756
2400.66	0.9833
2409.45	0.991
2418.23	0.9967
2427.02	1.001
2435.81	1.002
2444.59	1.0037
2453.38	1.004
2462.17	1.001
2470.95	0.998
2479.74	0.9972
2488.53	0.994
2497.31	0.9902
2506.1	0.997
2514.88	0.991
2523.67	0.988
2532.46	0.9705
2541.24	0.9758
2550.03	0.9627
2558.82	0.968
2567.6	0.9795
2576.39	0.97
2585.18	0.9798
2593.96	0.993
2602.75	0.9886
2611.53	0.9928
2620.32	0.9996
2629.11	0.998
2637.89	0.998
2646.68	0.9942
2655.47	0.9902
2664.25	0.987
2673.04	0.9884
2681.83	0.9926
2690.61	0.9948
2699.4	0.997
2708.19	0.9996
2716.97	1
2725.76	1
2734.54	0.9972
2743.33	0.9932
2752.12	0.9885
2760.9	0.9845
2769.69	0.9755
2778.48	0.962
2787.26	0.9812
2796.05	0.993
2804.84	0.995
2813.62	0.9903
2822.41	0.99
2831.19	0.993
2839.98	0.995
2848.77	0.997
2857.55	0.995
2866.34	0.995
2875.13	0.998
2883.91	0.998
2892.7	1.0003
2901.49	0.998
2910.27	1.001
2919.06	1.001
2927.84	1.001
2936.63	1.001
2945.42	0.998
2954.2	0.995
2962.99	0.995
2971.78	0.995
2980.56	0.995
2989.35	0.9933
2998.14	0.99
3006.92	0.9846
3015.71	0.982
3024.5	0.98
3033.28	0.966
3042.07	0.953
3050.85	0.956
3059.64	0.9433
3068.43	0.931
3077.21	0.9266
3086	0.9261
3094.79	0.8993
3103.57	0.9382
3112.36	0.9563
3121.15	0.966
3129.93	0.9696
3138.72	0.9826
3147.5	0.9893
3156.29	0.99
3165.08	0.9893
3173.86	0.993
3182.65	0.9904
3191.44	0.991
3200.22	0.9976
3209.01	1.001
3217.8	1.002
3226.58	1.004
3235.37	1.005
3244.16	1.005
3252.94	1.005
3261.73	1.005
3270.51	1.006
3279.3	1.0072
3288.09	1.008
3296.87	1.006
3305.66	1.0044
3314.45	1.004
3323.23	1.004
3332.02	1.004
3340.81	1.004
3349.59	1.004
3358.38	1.004
3367.16	1.002
3375.95	1.0014
3384.74	1
3393.52	0.998
3402.31	0.9893
3411.1	0.9866
3419.88	0.9801
3428.67	0.9715
3437.46	0.9907
3446.24	1.002
3455.03	1.002
3463.81	1.002
3472.6	1.002
3481.39	1.002
3490.17	1.002
3498.96	1.002
3507.75	1.002
3516.53	1.002
3525.32	1.004
3534.11	1.004
3542.89	1.004
3551.68	1.004
3560.47	1.004
3569.25	1.004
3578.04	1.004
3586.82	1.004
3595.61	1.004
3604.4	1.001
3613.18	1
3621.97	0.998
3630.76	0.997
3639.54	0.9945
3648.33	0.99
3657.12	0.9905
3665.9	0.993
3674.69	0.99
3683.47	0.9959
3692.26	1
3701.05	0.9961
3709.83	0.9945
3718.62	0.9975
3727.41	0.9945
3736.19	0.9945
3744.98	1
3753.77	0.998
3762.55	0.998
3771.34	0.998
3780.12	0.998
3788.91	0.998
