Infrared Spectrum: p-Chlorobenzonitrile
Formula: C7 H4 Cl N
CAS: 623-03-0
State: SOLUTION (10% CCl4 FOR 3800-1340, 10% CS2 FOR 1340-420)
Class: COBLENTZ III
Instrument: DOW KBr FOREPRISM-GRATING
Instrument parameters: BLAZED AT 3.5, 12.0, 20.0 MICRON AND CHANGED AT 5.0, 7.5, 14.9 MICRON
Sampling: TRANSMISSION
Path length: 0.012 CM, 0.011 CM
Resolution: 2
Origin: DOW CHEMICAL COMPANY
1/CM	TRANSMITTANCE
3798	0.9368
3789	0.9373
3780	0.9362
3771	0.9351
3762	0.9334
3753	0.9316
3744	0.932
3735	0.9344
3726	0.9365
3717	0.9381
3708	0.9389
3699	0.9359
3690	0.9315
3681	0.9296
3672	0.9304
3663	0.9318
3654	0.9331
3645	0.9344
3636	0.9354
3627	0.9378
3618	0.9386
3609	0.9392
3600	0.9395
3591	0.941
3582	0.9417
3573	0.942
3564	0.94
3555	0.9411
3546	0.9407
3537	0.9398
3528	0.938
3519	0.9372
3510	0.9367
3501	0.9361
3492	0.9354
3483	0.9351
3474	0.9348
3465	0.9343
3456	0.9336
3447	0.9252
3438	0.9066
3429	0.9153
3420	0.9226
3411	0.9236
3402	0.932
3393	0.9352
3384	0.9376
3375	0.9397
3366	0.9405
3357	0.9408
3348	0.9394
3339	0.9384
3330	0.9375
3321	0.9367
3312	0.9392
3303	0.9407
3294	0.9431
3285	0.9441
3276	0.9441
3267	0.9444
3258	0.944
3249	0.9435
3240	0.9429
3231	0.9422
3222	0.9413
3213	0.9394
3204	0.9356
3195	0.9266
3186	0.9269
3177	0.9281
3168	0.9263
3159	0.9251
3150	0.9237
3141	0.9193
3132	0.9067
3123	0.9049
3114	0.8995
3105	0.8723
3096	0.8471
3087	0.8654
3078	0.874
3069	0.8765
3060	0.8886
3051	0.8974
3042	0.9049
3033	0.9138
3024	0.9183
3015	0.9216
3006	0.9225
2997	0.9269
2988	0.9305
2979	0.9301
2970	0.9327
2961	0.9362
2952	0.9398
2943	0.9407
2934	0.9415
2925	0.9418
2916	0.9404
2907	0.9418
2898	0.94
2889	0.9397
2880	0.9396
2871	0.9394
2862	0.9394
2853	0.9375
2844	0.9377
2835	0.9319
2826	0.9298
2817	0.9275
2808	0.9321
2799	0.9333
2790	0.9232
2781	0.9055
2772	0.9109
2763	0.9189
2754	0.9265
2745	0.9311
2736	0.9339
2727	0.9349
2718	0.9345
2709	0.9343
2700	0.9341
2691	0.9333
2682	0.9322
2673	0.9306
2664	0.9299
2655	0.9327
2646	0.9348
2637	0.9361
2628	0.9389
2619	0.9388
2610	0.9335
2601	0.9344
2592	0.935
2583	0.9245
2574	0.9186
2565	0.9226
2556	0.9034
2547	0.9058
2538	0.9167
2529	0.915
2520	0.9222
2511	0.9287
2502	0.9348
2493	0.9328
2484	0.936
2475	0.9391
2466	0.9402
2457	0.9401
2448	0.9411
2439	0.9408
2430	0.9405
2421	0.9396
2412	0.9366
2403	0.9302
2394	0.9216
2385	0.9285
2376	0.9416
2367	0.9427
2358	0.949
2349	0.9565
2340	0.9631
2331	0.9657
2322	0.967
2313	0.9534
2304	0.9375
2295	0.9191
2286	0.9113
2277	0.9139
2268	0.9156
2259	0.9186
2250	0.9084
2241	0.3622
2232	0.1955
2223	0.7937
2214	0.9061
2205	0.9247
2196	0.9328
2187	0.9298
2178	0.9214
2169	0.9415
2160	0.9444
2151	0.9444
2142	0.9455
2133	0.9465
2124	0.9479
2115	0.949
2106	0.9498
2097	0.949
2088	0.9513
2079	0.9515
2070	0.9513
2061	0.9508
2052	0.9511
2043	0.9481
2034	0.9416
2025	0.9423
2016	0.9464
2007	0.9412
1998	0.8899
1989	0.931
1980	0.9319
1971	0.9299
1962	0.9298
1953	0.9369
1944	0.9249
1935	0.9208
1926	0.913
1917	0.8701
1908	0.7667
1899	0.8582
1890	0.9021
1881	0.9197
1872	0.9092
1863	0.9197
1854	0.9233
1845	0.9269
1836	0.9298
1827	0.9297
1818	0.9286
1809	0.9253
1800	0.9178
1791	0.9061
1782	0.8828
1773	0.8845
1764	0.9097
1755	0.9213
1746	0.9221
1737	0.9253
1728	0.9325
1719	0.928
1710	0.9274
1701	0.9231
1692	0.9192
1683	0.8867
1674	0.8686
1665	0.8858
1656	0.8194
1647	0.8512
1638	0.9028
1629	0.9142
1620	0.9071
1611	0.8644
1602	0.6354
1593	0.2652
1584	0.67
1575	0.7357
1566	0.7779
1557	0.7958
1548	0.7831
1539	0.8255
1530	0.8392
1521	0.8515
1512	0.8511
1503	0.808
1494	0.08
1485	0.0029
1476	0.6264
1467	0.884
1458	0.9053
1449	0.9144
1440	0.9223
1431	0.9261
1422	0.9253
1413	0.9097
1404	0.5174
1395	0.6038
1386	0.8702
1377	0.9021
1368	0.8864
1359	0.9004
1350	0.9115
1341	0.9191
1332	0.9267
1323	0.9236
1314	0.9265
1305	0.9208
1296	0.8817
1287	0.9181
1278	0.7779
1269	0.8391
1260	0.8885
1251	0.8334
1242	0.9199
1233	0.944
1224	0.9333
1215	0.9456
1206	0.9498
1197	0.8258
1188	0.904
1179	0.8718
1170	0.8491
1161	0.9113
1152	0.9364
1143	0.9279
1134	0.9146
1125	0.8983
1116	0.9048
1107	0.8305
1098	0.2785
1089	0.1935
1080	0.5861
1071	0.8465
1062	0.9015
1053	0.9211
1044	0.9297
1035	0.9328
1026	0.9138
1017	0.039
1008	0.8407
999	0.9247
990	0.9315
981	0.9307
972	0.921
963	0.9067
954	0.898
945	0.8855
936	0.9097
927	0.9279
918	0.9351
909	0.9377
900	0.9342
891	0.9315
882	0.9238
873	0.8431
864	0.8626
855	0.822
846	0.7608
837	0.3851
828	0.0037
819	0.6251
810	0.799
801	0.8571
792	0.8782
783	0.586
774	0.8012
765	0.911
756	0.93
747	0.937
738	0.9395
729	0.9406
720	0.9435
711	0.9295
702	0.8558
693	0.935
684	0.9462
675	0.9485
666	0.9556
657	0.9639
648	0.9118
639	0.9282
630	0.9423
621	0.9556
612	0.9604
603	0.9388
594	0.8604
585	0.3289
576	0.8726
567	0.9321
558	0.9324
549	0.8525
540	0.0082
531	0.6953
522	0.9123
513	0.9439
504	0.9495
495	0.9498
486	0.9419
477	0.9249
468	0.9171
459	0.8947
450	0.8835
441	0.8745
432	0.8651
