Infrared Spectrum: Ethanediol, dihexadecanoic acid, ester
Formula: C34 H66 O4
CAS: 624-03-3
State: SOLID (SPLIT MULL), FLUOROLUBE FOR 3800-1330 CM^-^1, NUJOL FOR 1330-400 CM^-^1
Class: COBLENTZ III
Instrument: DOW KBr FOREPRISM-GRATING
Instrument parameters: BLAZED AT 3.5, 12.0, 20.0 MICRON AND CHANGED AT 5.0, 7.5, 14.9 MICRON
Sampling: TRANSMISSION
Resolution: 2
Origin: DOW CHEMICAL COMPANY
1/CM	TRANSMITTANCE
393	0.7619
402	0.7619
411	0.7617
420	0.7615
429	0.7606
438	0.7601
447	0.7598
456	0.7601
465	0.7608
474	0.7615
483	0.7622
492	0.7665
501	0.7689
510	0.7653
519	0.7655
528	0.7726
537	0.7826
546	0.7822
555	0.7808
564	0.779
573	0.7774
582	0.776
591	0.7756
600	0.798
609	0.8042
618	0.8112
627	0.8221
636	0.8304
645	0.8348
654	0.8339
663	0.8299
672	0.8268
681	0.8193
690	0.7918
699	0.8043
708	0.8067
717	0.7667
726	0.7115
735	0.6926
744	0.7375
753	0.8061
762	0.8235
771	0.828
780	0.7628
789	0.8136
798	0.8286
807	0.8257
816	0.8265
825	0.8274
834	0.8239
843	0.8178
852	0.795
861	0.8238
870	0.8228
879	0.8178
888	0.7751
897	0.6507
906	0.8064
915	0.8043
924	0.8004
933	0.796
942	0.8021
951	0.7964
960	0.7892
969	0.7619
978	0.7818
987	0.7108
996	0.7745
1005	0.7603
1014	0.7699
1023	0.7821
1032	0.7701
1041	0.7786
1050	0.7718
1059	0.7791
1068	0.7833
1077	0.7865
1086	0.7817
1095	0.7518
1104	0.7699
1113	0.7264
1122	0.7555
1131	0.7619
1140	0.7515
1149	0.73
1158	0.7
1167	0.618
1176	0.3468
1185	0.3648
1194	0.4895
1203	0.7245
1212	0.7156
1221	0.476
1230	0.7553
1239	0.6643
1248	0.7428
1257	0.7239
1266	0.6476
1275	0.4164
1284	0.6528
1293	0.7325
1302	0.726
1311	0.6215
1320	0.7525
1329	0.7351
1338	0.6584
1347	0.6328
1356	0.6155
1365	0.602
1374	0.5806
1383	0.5782
1392	0.3264
1401	0.6408
1410	0.6771
1419	0.6722
1428	0.6455
1437	0.7096
1446	0.7014
1455	0.6381
1464	0.4814
1473	0.4973
1482	0.7793
1491	0.7857
1500	0.7861
1509	0.7821
1518	0.7821
1527	0.7891
1536	0.7901
1545	0.789
1554	0.788
1563	0.7876
1572	0.7869
1581	0.7868
1590	0.7871
1599	0.7871
1608	0.7865
1617	0.7848
1626	0.7819
1635	0.7786
1644	0.7731
1653	0.7672
1662	0.7601
1671	0.7524
1680	0.743
1689	0.7132
1698	0.6856
1707	0.648
1716	0.6178
1725	0.5416
1734	0.1034
1743	0.408
1752	0.8108
1761	0.8142
1770	0.7911
1779	0.827
1788	0.8312
1797	0.8314
1806	0.8318
1815	0.8318
1824	0.8314
1833	0.8303
1842	0.8287
1851	0.8262
1860	0.8245
1869	0.8241
1878	0.824
1887	0.822
1896	0.8237
1905	0.8225
1914	0.8223
1923	0.8221
1932	0.8218
1941	0.8215
1950	0.8211
1959	0.8195
1968	0.8164
1977	0.8132
1986	0.8092
1995	0.8161
2004	0.8192
2013	0.8206
2022	0.8194
2031	0.8158
2040	0.8165
2049	0.8178
2058	0.8164
2067	0.8147
2076	0.8144
2085	0.8149
2094	0.8147
2103	0.8134
2112	0.8117
2121	0.8104
2130	0.8088
2139	0.8068
2148	0.8051
2157	0.8037
2166	0.8028
2175	0.8038
2184	0.8008
2193	0.7918
2202	0.789
2211	0.7862
2220	0.7828
2229	0.7783
2238	0.7721
2247	0.7645
2256	0.7581
2265	0.7536
2274	0.75
2283	0.7475
2292	0.7461
2301	0.7449
2310	0.7441
2319	0.746
2328	0.7508
2337	0.7526
2346	0.7532
2355	0.754
2364	0.7578
2373	0.756
2382	0.7551
2391	0.755
2400	0.7562
2409	0.7578
2418	0.7584
2427	0.7585
2436	0.7586
2445	0.7583
2454	0.7578
2463	0.7575
2472	0.7572
2481	0.7571
2490	0.7568
2499	0.7562
2508	0.7558
2517	0.7554
2526	0.755
2535	0.7546
2544	0.7535
2553	0.7515
2562	0.7493
2571	0.7468
2580	0.7436
2589	0.74
2598	0.7364
2607	0.7322
2616	0.7286
2625	0.7254
2634	0.7249
2643	0.7245
2652	0.724
2661	0.7221
2670	0.7195
2679	0.7164
2688	0.7128
2697	0.7076
2706	0.7025
2715	0.6964
2724	0.6896
2733	0.6819
2742	0.6738
2751	0.6648
2760	0.654
2769	0.6417
2778	0.6273
2787	0.6097
2796	0.5859
2805	0.566
2814	0.5444
2823	0.5166
2832	0.4697
2841	0.2456
2850	0.0417
2859	0.3909
2868	0.3714
2877	0.4239
2886	0.3332
2895	0.2513
2904	0.1622
2913	0.0321
2922	0.0376
2931	0.243
2940	0.4671
2949	0.42
2958	0.3784
2967	0.4865
2976	0.7771
2985	0.8087
2994	0.8046
3003	0.7975
3012	0.7961
3021	0.7962
3030	0.7953
3039	0.7932
3048	0.7901
3057	0.7878
3066	0.7861
3075	0.7843
3084	0.7826
3093	0.7832
3102	0.7837
3111	0.7834
3120	0.7824
3129	0.7778
3138	0.7754
3147	0.7748
3156	0.774
3165	0.7728
3174	0.7715
3183	0.7703
3192	0.7691
3201	0.768
3210	0.7671
3219	0.7656
3228	0.7639
3237	0.7628
3246	0.763
3255	0.7628
3264	0.7593
3273	0.7567
3282	0.7553
3291	0.7541
3300	0.7534
3309	0.7525
3318	0.7507
3327	0.7482
3336	0.7462
3345	0.7447
3354	0.7434
3363	0.7419
3372	0.7406
3381	0.739
3390	0.7372
3399	0.7357
3408	0.7341
3417	0.7324
3426	0.7305
3435	0.7264
3444	0.7239
3453	0.7256
3462	0.7278
3471	0.7286
3480	0.7281
3489	0.7265
3498	0.725
3507	0.7232
3516	0.7215
3525	0.7201
3534	0.7189
3543	0.7174
3552	0.7157
3561	0.714
3570	0.7126
3579	0.7112
3588	0.7104
3597	0.7098
3606	0.7092
3615	0.7086
3624	0.708
3633	0.7071
3642	0.7064
3651	0.7056
3660	0.7046
3669	0.7037
3678	0.7028
3687	0.7017
3696	0.7006
3705	0.6995
3714	0.6985
3723	0.6975
3732	0.6965
3741	0.6954
3750	0.6942
3759	0.6921
