Infrared Spectrum: 1-Chloro-3-fluorobenzene
Formula: C6 H4 Cl F
CAS: 625-98-9
State: SOLUTION (10% CCl4 FOR 3800-1330, 10% CS2 FOR 1330-430 CM^-^1) VS SOLVENT
Class: COBLENTZ III
Instrument: DOW KBr FOREPRISM-GRATING
Instrument parameters: BLAZED AT 3.5, 12.0, 20.0 MICRON AND CHANGED AT 5.0, 7.5, 14.9 MICRON
Sampling: TRANSMISSION
Path length: 0.012 CM, 0.011 CM
Resolution: 2
Origin: DOW CHEMICAL COMPANY
1/CM	TRANSMITTANCE
3758	0.8946
3749	0.8948
3740	0.8951
3731	0.8948
3722	0.8945
3713	0.8942
3704	0.8935
3695	0.8902
3686	0.8916
3677	0.8917
3668	0.8917
3659	0.8913
3650	0.8907
3641	0.89
3632	0.8894
3623	0.8889
3614	0.8886
3605	0.8882
3596	0.8878
3587	0.8875
3578	0.8873
3569	0.887
3560	0.8867
3551	0.8864
3542	0.8862
3533	0.8859
3524	0.8857
3515	0.8855
3506	0.8855
3497	0.8859
3488	0.8864
3479	0.8866
3470	0.8866
3461	0.8862
3452	0.8857
3443	0.885
3434	0.8828
3425	0.8806
3416	0.8791
3407	0.8781
3398	0.8781
3389	0.878
3380	0.8771
3371	0.8763
3362	0.8768
3353	0.8778
3344	0.879
3335	0.8787
3326	0.8784
3317	0.8782
3308	0.878
3299	0.8785
3290	0.8794
3281	0.8803
3272	0.8808
3263	0.8806
3254	0.8804
3245	0.8807
3236	0.8811
3227	0.8805
3218	0.88
3209	0.8783
3200	0.875
3191	0.8623
3182	0.8647
3173	0.8711
3164	0.8746
3155	0.8746
3146	0.8733
3137	0.8714
3128	0.8687
3119	0.863
3110	0.8549
3101	0.8393
3092	0.832
3083	0.7542
3074	0.6934
3065	0.8049
3056	0.8431
3047	0.8555
3038	0.8583
3029	0.8566
3020	0.8647
3011	0.8697
3002	0.8748
2993	0.8798
2984	0.8835
2975	0.8857
2966	0.8857
2957	0.8832
2948	0.8816
2939	0.8817
2930	0.8825
2921	0.8823
2912	0.8821
2903	0.8833
2894	0.8845
2885	0.8843
2876	0.8807
2867	0.8833
2858	0.8837
2849	0.8777
2840	0.882
2831	0.8864
2822	0.8877
2813	0.8857
2804	0.8846
2795	0.8877
2786	0.8889
2777	0.8895
2768	0.8893
2759	0.8889
2750	0.8885
2741	0.8864
2732	0.8817
2723	0.8813
2714	0.883
2705	0.885
2696	0.8736
2687	0.8582
2678	0.871
2669	0.8828
2660	0.8828
2651	0.8836
2642	0.8821
2633	0.8853
2624	0.8865
2615	0.887
2606	0.8875
2597	0.8866
2588	0.8798
2579	0.8711
2570	0.8767
2561	0.8828
2552	0.8754
2543	0.878
2534	0.8847
2525	0.8847
2516	0.8843
2507	0.8853
2498	0.8867
2489	0.8757
2480	0.8484
2471	0.8483
2462	0.8724
2453	0.8761
2444	0.8748
2435	0.8653
2426	0.871
2417	0.8759
2408	0.8788
2399	0.8809
2390	0.8815
2381	0.8798
2372	0.8771
2363	0.8745
2354	0.8731
2345	0.8678
2336	0.8763
2327	0.8825
2318	0.8828
2309	0.8704
2300	0.8697
2291	0.8806
2282	0.8787
2273	0.8791
2264	0.8815
2255	0.8847
2246	0.8854
2237	0.8835
2228	0.8846
2219	0.8844
2210	0.884
2201	0.8846
2192	0.885
2183	0.885
2174	0.8843
2165	0.8818
2156	0.8783
2147	0.8761
2138	0.8796
2129	0.8828
2120	0.8812
2111	0.8737
2102	0.8458
2093	0.8411
2084	0.8725
2075	0.8808
2066	0.8838
2057	0.8831
2048	0.8825
2039	0.8825
2030	0.8827
2021	0.8831
2012	0.8815
2003	0.8787
1994	0.8878
1985	0.8955
1976	0.8959
1967	0.8914
1958	0.8934
1949	0.8912
1940	0.8778
1931	0.8608
1922	0.8001
1913	0.8688
1904	0.8775
1895	0.8868
1886	0.8823
1877	0.8896
1868	0.8897
1859	0.8875
1850	0.8517
1841	0.8178
1832	0.8749
1823	0.8788
1814	0.8881
1805	0.8906
1796	0.8933
1787	0.892
1778	0.8789
1769	0.8496
1760	0.8236
1751	0.8705
1742	0.842
1733	0.8451
1724	0.8546
1715	0.7982
1706	0.8321
1697	0.8618
1688	0.8768
1679	0.8716
1670	0.8513
1661	0.8465
1652	0.8361
1643	0.8354
1634	0.8286
1625	0.8232
1616	0.7871
1607	0.6464
1598	0.0082
1589	0.0705
1580	0.2413
1571	0.5135
1562	0.6808
1553	0.7364
1544	0.7849
1535	0.7425
1526	0.6441
1517	0.7591
1508	0.7644
1499	0.7819
1490	0.6582
1481	0.0675
1472	0.0519
1463	0.375
1454	0.7125
1445	0.7637
1436	0.4931
1427	0.3249
1418	0.5781
1409	0.7278
1400	0.7621
1391	0.8542
1382	0.8739
1373	0.8771
1364	0.8771
1355	0.8759
1346	0.8621
1337	0.8443
1328	0.8238
1319	0.8385
1310	0.8524
1301	0.847
1292	0.7212
1283	0.7997
1274	0.8028
1265	0.2185
1256	0.631
1247	0.7662
1238	0.7746
1229	0.5694
1220	0.0447
1211	0.2659
1202	0.6651
1193	0.7517
1184	0.84
1175	0.8483
1166	0.8492
1157	0.8111
1148	0.6486
1139	0.8134
1130	0.8336
1121	0.8153
1112	0.8397
1103	0.82
1094	0.6793
1085	0.6117
1076	0.3702
1067	0.7374
1058	0.1219
1049	0.7456
1040	0.8231
1031	0.8378
1022	0.8418
1013	0.8323
1004	0.7611
995	0.8089
986	0.8463
977	0.8541
968	0.8521
959	0.8021
950	0.8468
941	0.8591
932	0.8636
923	0.8504
914	0.8408
905	0.8112
896	0.7256
887	0.1799
878	0.0029
869	0.4014
860	0.4262
851	0.1973
842	0.6893
833	0.816
824	0.8353
815	0.8243
806	0.8233
797	0.8187
788	0.8051
779	0.6469
770	0.0024
761	0.5095
752	0.7938
743	0.8384
734	0.8682
725	0.8748
716	0.8747
707	0.8742
698	0.8668
689	0.8264
680	0.486
671	0.2014
662	0.6522
653	0.8236
644	0.8536
635	0.8595
626	0.8627
617	0.8698
608	0.8681
599	0.8698
590	0.8718
581	0.8701
572	0.8659
563	0.8659
554	0.8651
545	0.8628
536	0.8585
527	0.8358
518	0.3445
509	0.7754
500	0.8278
491	0.83
482	0.8307
473	0.8304
464	0.8297
455	0.8287
446	0.8004
437	0.7661
