Infrared Spectrum: 2,5-Dimethylpyrrole
Formula: C6 H9 N
CAS: 625-84-3
State: SOLUTION (5% CCl4 FOR 3800-1335, 5% CS2 FOR 1335-400)
Class: COBLENTZ III
Instrument: BECKMAN IR-9 (GRATING)
Instrument parameters: ORDER CHANGES: 670, 1200, 2000 CM^-^1
Sampling: TRANSMISSION
Path length: 0.011 CM, 0.011 CM
Resolution: 2
Origin: DOW CHEMICAL COMPANY
1/CM	TRANSMITTANCE
3796	0.907
3787	0.9071
3778	0.9067
3769	0.9068
3760	0.9074
3751	0.9065
3742	0.9051
3733	0.9033
3724	0.903
3715	0.9013
3706	0.9032
3697	0.9037
3688	0.9032
3679	0.903
3670	0.9056
3661	0.905
3652	0.9049
3643	0.9038
3634	0.8974
3625	0.8928
3616	0.8874
3607	0.8923
3598	0.8832
3589	0.875
3580	0.883
3571	0.8785
3562	0.8742
3553	0.8702
3544	0.8658
3535	0.8611
3526	0.8539
3517	0.8452
3508	0.8254
3499	0.731
3490	0.3415
3481	0.0952
3472	0.4693
3463	0.6259
3454	0.6691
3445	0.7359
3436	0.7541
3427	0.7331
3418	0.6896
3409	0.6062
3400	0.5444
3391	0.5048
3382	0.5165
3373	0.5666
3364	0.6373
3355	0.7214
3346	0.7671
3337	0.8006
3328	0.8188
3319	0.8332
3310	0.8445
3301	0.8526
3292	0.8583
3283	0.8653
3274	0.8685
3265	0.8714
3256	0.8723
3247	0.8754
3238	0.8771
3229	0.8784
3220	0.8795
3211	0.8798
3202	0.8769
3193	0.8765
3184	0.8777
3175	0.8794
3166	0.8802
3157	0.8817
3148	0.8794
3139	0.8729
3130	0.8548
3121	0.7802
3112	0.7714
3103	0.8194
3094	0.8281
3085	0.8058
3076	0.8497
3067	0.8515
3058	0.8458
3049	0.8387
3040	0.8387
3031	0.825
3022	0.8128
3013	0.8
3004	0.7625
2995	0.6728
2986	0.6441
2977	0.6342
2968	0.6999
2959	0.6965
2950	0.6236
2941	0.4295
2932	0.3403
2923	0.3488
2914	0.4969
2905	0.4425
2896	0.5647
2887	0.6089
2878	0.6292
2869	0.6057
2860	0.6582
2851	0.7119
2842	0.7582
2833	0.7998
2824	0.8448
2815	0.8755
2806	0.8875
2797	0.8892
2788	0.8864
2779	0.8856
2770	0.8883
2761	0.8905
2752	0.862
2743	0.7956
2734	0.8975
2725	0.9093
2716	0.9113
2707	0.91
2698	0.9074
2689	0.9009
2680	0.8894
2671	0.8851
2662	0.8986
2653	0.908
2644	0.903
2635	0.9078
2626	0.9158
2617	0.9152
2608	0.9126
2599	0.9132
2590	0.9189
2581	0.9232
2572	0.9268
2563	0.9286
2554	0.9292
2545	0.9278
2536	0.9251
2527	0.9222
2518	0.9207
2509	0.9227
2500	0.9252
2491	0.924
2482	0.922
2473	0.9218
2464	0.9198
2455	0.915
2446	0.9026
2437	0.9027
2428	0.9167
2419	0.9191
2410	0.9221
2401	0.926
2392	0.9264
2383	0.9282
2374	0.93
2365	0.9305
2356	0.9366
2347	0.938
2338	0.9356
2329	0.9348
2320	0.9356
2311	0.9338
2302	0.9332
2293	0.9364
2284	0.9389
2275	0.939
2266	0.941
2257	0.9389
2248	0.9369
2239	0.9354
2230	0.933
2221	0.931
2212	0.9312
2203	0.9322
2194	0.9331
2185	0.9326
2176	0.9348
2167	0.9337
2158	0.9343
2149	0.9346
2140	0.935
2131	0.9353
2122	0.9345
2113	0.936
2104	0.936
2095	0.9358
2086	0.9357
2077	0.9353
2068	0.9348
2059	0.934
2050	0.9335
2041	0.9298
2032	0.9285
2023	0.9291
2014	0.9283
2005	0.9307
1996	0.9322
1987	0.9351
1978	0.935
1969	0.9368
1960	0.9401
1951	0.9404
1942	0.9394
1933	0.9407
1924	0.9416
1915	0.9372
1906	0.9346
1897	0.9328
1888	0.9309
1879	0.932
1870	0.9332
1861	0.9328
1852	0.9324
1843	0.932
1834	0.9302
1825	0.93
1816	0.9321
1807	0.9314
1798	0.9304
1789	0.9307
1780	0.9304
1771	0.9283
1762	0.9275
1753	0.9268
1744	0.9232
1735	0.919
1726	0.9137
1717	0.9055
1708	0.9012
1699	0.8983
1690	0.887
1681	0.8784
1672	0.8749
1663	0.8682
1654	0.8578
1645	0.8202
1636	0.817
1627	0.8261
1618	0.8223
1609	0.7933
1600	0.4022
1591	0.7069
1582	0.7937
1573	0.7804
1564	0.7542
1555	0.7847
1546	0.8597
1537	0.8184
1528	0.7079
1519	0.6638
1510	0.8344
1501	0.8587
1492	0.8647
1483	0.8532
1474	0.8193
1465	0.7376
1456	0.7251
1447	0.6719
1438	0.751
1429	0.7049
1420	0.4303
1411	0.6374
1402	0.5299
1393	0.565
1384	0.5958
1375	0.7449
1366	0.8477
1357	0.8702
1348	0.8786
1339	0.8733
1330	0.8793
1321	0.8867
1312	0.8971
1303	0.901
1294	0.9056
1285	0.9045
1276	0.8991
1267	0.8291
1258	0.4926
1249	0.8549
1240	0.8914
1231	0.9123
1222	0.9161
1213	0.9175
1204	0.9179
1195	0.904
1186	0.4738
1177	0.8578
1168	0.9012
1159	0.9076
1150	0.9073
1141	0.9046
1132	0.9056
1123	0.9027
1114	0.9076
1105	0.9068
1096	0.9099
1087	0.9133
1078	0.9099
1069	0.9029
1060	0.8894
1051	0.8618
1042	0.5518
1033	0.7382
1024	0.7946
1015	0.7761
1006	0.7292
997	0.6291
988	0.861
979	0.8674
970	0.8496
961	0.8847
952	0.841
943	0.7825
934	0.8089
925	0.8556
916	0.9065
907	0.9215
898	0.9226
889	0.9096
880	0.9112
871	0.9015
862	0.8968
853	0.9218
844	0.9266
835	0.9146
826	0.889
817	0.871
808	0.8671
799	0.8449
790	0.7768
781	0.647
772	0.1932
763	0.017
754	0.4481
745	0.8218
736	0.8893
727	0.9178
718	0.9295
709	0.929
700	0.9223
691	0.8937
682	0.9311
673	0.9249
664	0.892
655	0.7992
646	0.7387
637	0.2712
628	0.7649
619	0.9201
610	0.9364
601	0.9407
592	0.9371
583	0.9279
574	0.9082
565	0.8863
556	0.8759
547	0.8714
538	0.8652
529	0.8458
520	0.7789
511	0.7109
502	0.6072
493	0.4864
484	0.4185
475	0.5021
466	0.6376
457	0.7187
448	0.7403
439	0.7141
430	0.6549
421	0.55
