Infrared Spectrum: Propanoic acid, 2-amino-2-methyl-
Formula: C4 H9 N O2
CAS: 62-57-7
State: SOLID (OIL MULL)
Class: COBLENTZ III
Instrument: BAIRD (PRISM)
Instrument parameters: NaCl PRISM
Sampling: TRANSMISSION
Resolution: 2
Origin: WYANDOTTE CHEMICALS CORP.
1/CM	TRANSMITTANCE
626	0.6444
635	0.718
644	0.7905
653	0.8679
662	0.8729
671	0.9519
680	0.9655
689	0.9915
698	0.9905
707	0.9473
716	0.7492
725	0.7513
734	0.8086
743	0.8751
752	0.8938
761	0.8771
770	0.7802
779	0.6662
788	0.2566
797	0.6231
806	0.9914
815	0.9826
824	0.9784
833	0.9421
842	0.9104
851	0.8779
860	0.8476
869	0.788
878	0.6707
887	0.2941
896	0.4965
905	0.8025
914	0.8103
923	0.7787
932	0.6867
941	0.5652
950	0.7452
959	0.7631
968	0.756
977	0.7749
986	0.7868
995	0.7757
1004	0.7397
1013	0.7675
1022	0.75
1031	0.727
1040	0.6773
1049	0.6756
1058	0.665
1067	0.6593
1076	0.6368
1085	0.5093
1094	0.5248
1103	0.6999
1112	0.6672
1121	0.6236
1130	0.569
1139	0.5197
1148	0.4789
1157	0.4283
1166	0.3603
1175	0.2752
1184	0.1733
1193	0.0524
1202	0.2189
1211	0.5079
1220	0.4991
1229	0.4647
1238	0.4391
1247	0.3805
1256	0.279
1265	0.1405
1274	0.1117
1283	0.2297
1292	0.106
1301	0.331
1310	0.3973
1319	0.3696
1328	0.3079
1337	0.2305
1346	0.1411
1355	0.0519
1364	0.0239
1373	0.0281
1382	0.1113
1391	0.2314
1400	0.1534
1409	0.0387
1418	0.1531
1427	0.1749
1436	0.1191
1445	0.0346
1454	0.0291
1463	0.0274
1472	0.0428
1481	0.104
1490	0.1487
1499	0.1553
1508	0.1385
1517	0.0987
1526	0.0633
1535	0.0396
1544	0.0335
1553	0.0346
1562	0.0474
1571	0.0431
1580	0.0303
1589	0.0217
1598	0.0259
1607	0.0742
1616	0.0695
1625	0.0449
1634	0.0267
1643	0.0329
1652	0.1316
1661	0.2472
1670	0.3599
1679	0.4376
1688	0.5129
1697	0.5603
1706	0.6094
1715	0.6523
1724	0.6926
1733	0.7595
1742	0.8095
1751	0.8318
1760	0.8523
1769	0.8876
1778	0.9116
1787	0.9308
1796	0.9504
1805	0.9635
1814	0.9726
1823	0.9779
1832	0.9802
1841	0.9831
1850	0.9883
1859	0.9871
1868	0.9838
1877	0.9808
1886	0.9773
1895	0.9684
1904	0.9516
1913	0.9413
1922	0.9354
1931	0.9305
1940	0.9246
1949	0.9166
1958	0.8963
1967	0.8651
1976	0.8309
1985	0.791
1994	0.7585
2003	0.7312
2012	0.7009
2021	0.6816
2030	0.6677
2039	0.6587
2048	0.6531
2057	0.6511
2066	0.6532
2075	0.6722
2084	0.7155
2093	0.7337
2102	0.7474
2111	0.771
2120	0.7833
2129	0.7852
2138	0.7897
2147	0.8036
2156	0.8069
2165	0.8056
2174	0.8028
2183	0.7984
2192	0.7933
2201	0.7864
2210	0.7763
2219	0.7645
2228	0.7519
2237	0.7369
2246	0.7211
2255	0.7029
2264	0.6815
2273	0.6595
2282	0.6401
2291	0.6186
2300	0.5907
2309	0.5815
2318	0.578
2327	0.5754
2336	0.5731
2345	0.571
2354	0.5682
2363	0.5624
2372	0.5502
2381	0.5298
2390	0.5062
2399	0.4838
2408	0.4632
2417	0.4458
2426	0.4207
2435	0.3974
2444	0.3848
2453	0.3702
2462	0.3615
2471	0.3528
2480	0.3325
2489	0.3122
2498	0.2856
2507	0.2599
2516	0.2372
2525	0.216
2534	0.198
2543	0.1822
2552	0.1666
2561	0.1505
2570	0.1312
2579	0.1147
2588	0.1069
2597	0.1071
2606	0.1236
2615	0.1445
2624	0.1653
2633	0.1718
2642	0.1569
2651	0.1399
2660	0.1229
2669	0.1101
2678	0.1021
2687	0.0999
2696	0.0993
2705	0.0992
2714	0.0988
2723	0.0934
2732	0.083
2741	0.0727
2750	0.0627
2759	0.0532
2768	0.045
2777	0.0381
2786	0.0325
2795	0.0276
2804	0.0235
2813	0.02
2822	0.0174
2831	0.0162
2840	0.0156
2849	0.0152
2858	0.0146
2867	0.0142
2876	0.014
2885	0.0136
2894	0.0137
2903	0.0138
2912	0.014
2921	0.0142
2930	0.0143
2939	0.0145
2948	0.0147
2957	0.015
2966	0.0154
2975	0.0157
2984	0.0164
2993	0.0172
3002	0.0179
3011	0.0188
3020	0.02
3029	0.0213
3038	0.0243
3047	0.0278
3056	0.033
3065	0.0425
3074	0.0602
3083	0.0764
3092	0.0942
3101	0.1151
3110	0.1324
3119	0.1475
3128	0.1641
3137	0.1829
3146	0.205
3155	0.2361
3164	0.2617
3173	0.3119
3182	0.3638
3191	0.4153
3200	0.4666
3209	0.5176
3218	0.5682
3227	0.6187
3236	0.6688
3245	0.7144
3254	0.759
3263	0.826
3272	0.8691
3281	0.8849
3290	0.8949
3299	0.9045
3308	0.91
3317	0.9145
3326	0.919
3335	0.9232
3344	0.9268
3353	0.9304
3362	0.9339
3371	0.9374
3380	0.9409
3389	0.9445
3398	0.948
3407	0.9516
3416	0.9552
3425	0.9592
3434	0.9632
3443	0.9671
3452	0.9695
3461	0.9717
3470	0.9739
3479	0.9757
3488	0.9775
3497	0.9788
3506	0.9795
3515	0.9802
3524	0.9805
3533	0.9802
3542	0.9799
3551	0.9798
3560	0.9795
3569	0.9788
3578	0.978
3587	0.9773
3596	0.9761
3605	0.9749
3614	0.9736
3623	0.9721
3632	0.9696
3641	0.9672
3650	0.9648
3659	0.9624
3668	0.9592
3677	0.9555
3686	0.9519
3695	0.9482
3704	0.9442
3713	0.94
3722	0.936
3731	0.9318
3740	0.928
3749	0.9244
3758	0.9209
3767	0.9174
3776	0.9139
3785	0.9109
3794	0.908
3803	0.9051
3812	0.9021
3821	0.8993
3830	0.8962
3839	0.8931
3848	0.89
3857	0.8862
3866	0.881
3875	0.8764
3884	0.8725
3893	0.8698
3902	0.8676
3911	0.8656
3920	0.8641
3929	0.8627
3938	0.8613
3947	0.8598
3956	0.8579
3965	0.8557
3974	0.8533
3983	0.8503
3992	0.8472
