Infrared Spectrum: ANILINE
Formula: C6 H7 N
CAS: 62-53-3
State: LIQUID (NEAT)
Class: COBLENTZ III
Instrument: BECKMAN IR-7 (GRATING)
Instrument parameters: GRATING CHANGES AT 3000, 2000, 1150 CM^-^1
Sampling: TRANSMISSION
Resolution: 4
Origin: WESTERN REGIONAL RES. USDA
1/CM	TRANSMITTANCE
600	0.505
608.871	0.487
617.742	0.468
626.613	0.444
635.484	0.441
644.355	0.43
653.226	0.425
662.097	0.414
670.968	0.403
679.839	0.371
688.71	0.099
697.581	0.197
706.452	0.438
715.323	0.481
724.194	0.493
733.065	0.481
741.936	0.2993
750.807	0.038
759.678	0.1
768.549	0.2669
777.42	0.399
786.291	0.479
795.162	0.536
804.033	0.578
812.904	0.6
821.775	0.6
830.646	0.602
839.517	0.636
848.388	0.671
857.259	0.687
866.13	0.698
875.001	0.671
883.872	0.488
892.743	0.581
901.614	0.665
910.485	0.704
919.356	0.721
928.227	0.729
937.098	0.732
945.969	0.737
954.84	0.736
963.711	0.729
972.582	0.73
981.453	0.725
990.324	0.721
999.195	0.5941
1008.07	0.6969
1016.94	0.753
1025.81	0.733
1034.68	0.606
1043.55	0.74
1052.42	0.688
1061.29	0.669
1070.16	0.697
1079.03	0.725
1087.9	0.743
1096.78	0.737
1105.65	0.733
1114.52	0.729
1123.39	0.706
1132.26	0.721
1141.13	0.75
1150	0.74
1158.87	0.652
1167.74	0.708
1176.61	0.354
1185.49	0.6639
1194.36	0.743
1203.23	0.747
1212.1	0.752
1220.97	0.752
1229.84	0.735
1238.71	0.725
1247.58	0.692
1256.45	0.636
1265.32	0.444
1274.2	0.274
1283.07	0.281
1291.94	0.405
1300.81	0.57
1309.68	0.657
1318.55	0.598
1327.42	0.709
1336.29	0.695
1345.16	0.721
1354.03	0.747
1362.91	0.767
1371.78	0.773
1380.65	0.776
1389.52	0.758
1398.39	0.772
1407.26	0.786
1416.13	0.788
1425	0.787
1433.87	0.786
1442.74	0.783
1451.62	0.776
1460.49	0.754
1469.36	0.4471
1478.23	0.614
1487.1	0.495
1495.97	0.055
1504.84	0.251
1513.71	0.544
1522.58	0.669
1531.45	0.662
1540.33	0.738
1549.2	0.759
1558.07	0.715
1566.94	0.7
1575.81	0.68
1584.68	0.598
1593.55	0.389
1602.42	0.056
1611.29	0.174
1620.16	0.062
1629.04	0.136
1637.91	0.342
1646.78	0.515
1655.65	0.639
1664.52	0.702
1673.39	0.737
1682.26	0.756
1691.13	0.757
1700	0.738
1708.87	0.715
1717.75	0.749
1726.62	0.779
1735.49	0.793
1744.36	0.803
1753.23	0.807
1762.1	0.807
1770.97	0.801
1779.84	0.787
1788.71	0.786
1797.58	0.799
1806.46	0.801
1815.33	0.8
1824.2	0.802
1833.07	0.79
1841.94	0.78
1850.81	0.784
1859.68	0.793
1868.55	0.804
1877.42	0.811
1886.29	0.817
1895.17	0.812
1904.04	0.807
1912.91	0.797
1921.78	0.776
1930.65	0.758
1939.52	0.761
1948.39	0.777
1957.26	0.79
1966.13	0.801
1975	0.807
1983.88	0.808
1992.75	0.807
2001.62	0.8055
2010.49	0.804
2019.36	0.803
2028.23	0.803
2037.1	0.8047
2045.97	0.806
2054.84	0.807
2063.71	0.808
2072.59	0.808
2081.46	0.807
2090.33	0.807
2099.2	0.807
2108.07	0.807
2116.94	0.8088
2125.81	0.8095
2134.68	0.811
2143.55	0.811
2152.42	0.811
2161.3	0.8117
2170.17	0.812
2179.04	0.812
2187.91	0.812
2196.78	0.811
2205.65	0.811
2214.52	0.8106
2223.39	0.81
2232.26	0.811
2241.13	0.8128
2250.01	0.8146
2258.88	0.815
2267.75	0.816
2276.62	0.816
2285.49	0.817
2294.36	0.818
2303.23	0.819
2312.1	0.819
2320.97	0.82
2329.84	0.82
2338.72	0.82
2347.59	0.821
2356.46	0.821
2365.33	0.82
2374.2	0.8194
2383.07	0.819
2391.94	0.8192
2400.81	0.82
2409.68	0.819
2418.55	0.819
2427.43	0.819
2436.3	0.8191
2445.17	0.82
2454.04	0.821
2462.91	0.822
2471.78	0.823
2480.65	0.823
2489.52	0.823
2498.39	0.823
2507.26	0.823
2516.14	0.822
2525.01	0.822
2533.88	0.821
2542.75	0.8204
2551.62	0.8196
2560.49	0.8188
2569.36	0.817
2578.23	0.8152
2587.1	0.8144
2595.97	0.8117
2604.85	0.8099
2613.72	0.808
2622.59	0.8063
2631.46	0.8045
2640.33	0.803
2649.2	0.803
2658.07	0.8039
2666.94	0.8067
2675.81	0.811
2684.68	0.8155
2693.56	0.819
2702.43	0.821
2711.3	0.8214
2720.17	0.82
2729.04	0.819
2737.91	0.815
2746.78	0.8112
2755.65	0.811
2764.52	0.81
2773.39	0.8101
2782.26	0.811
2791.14	0.8147
2800.01	0.8175
2808.88	0.819
2817.75	0.8211
2826.62	0.8229
2835.49	0.823
2844.36	0.823
2853.23	0.8218
2862.1	0.819
2870.97	0.818
2879.85	0.8154
2888.72	0.8116
2897.59	0.8065
2906.46	0.7971
2915.33	0.796
2924.2	0.795
2933.07	0.794
2941.94	0.792
2950.81	0.792
2959.68	0.7903
2968.56	0.79
2977.43	0.789
2986.3	0.7848
2995.17	0.7709
3004.04	0.7549
3012.91	0.7067
3021.78	0.657
3030.65	0.6278
3039.52	0.5058
3048.39	0.5331
3057.27	0.6476
3066.14	0.6975
3075.01	0.6869
3083.88	0.6405
3092.75	0.6729
3101.62	0.7137
3110.49	0.7371
3119.36	0.7564
3128.23	0.773
3137.1	0.7794
3145.98	0.781
3154.85	0.7798
3163.72	0.7667
3172.59	0.7588
3181.46	0.7421
3190.33	0.7246
3199.2	0.6881
3208.07	0.661
3216.94	0.6036
3225.81	0.5934
3234.69	0.6028
3243.56	0.6384
3252.43	0.6642
3261.3	0.6905
3270.17	0.6963
3279.04	0.697
3287.91	0.6897
3296.78	0.661
3305.65	0.6412
3314.52	0.6151
3323.4	0.5572
3332.27	0.4792
3341.14	0.4017
3350.01	0.3506
3358.88	0.3392
3367.75	0.3469
3376.62	0.3779
3385.49	0.4169
3394.36	0.4801
3403.23	0.5414
3412.11	0.5403
3420.98	0.5292
3429.85	0.483
3438.72	0.4647
3447.59	0.4664
3456.46	0.4793
3465.33	0.4933
3474.2	0.5132
3483.07	0.6008
3491.94	0.6722
3500.82	0.7214
3509.69	0.7644
3518.56	0.7772
3527.43	0.7854
3536.3	0.7919
3545.17	0.7965
3554.04	0.7995
3562.91	0.8013
3571.78	0.803
3580.65	0.803
3589.53	0.8047
3598.4	0.805
3607.27	0.805
3616.14	0.8039
3625.01	0.803
3633.88	0.803
3642.75	0.8039
3651.62	0.806
3660.49	0.807
3669.36	0.811
3678.24	0.8136
3687.11	0.815
3695.98	0.815
3704.85	0.815
3713.72	0.815
3722.59	0.813
3731.46	0.8127
3740.33	0.812
3749.2	0.811
3758.07	0.811
3766.95	0.8125
3775.82	0.8133
3784.69	0.814
3793.56	0.8148
3802.43	0.815
3811.3	0.815
3820.17	0.815
3829.04	0.814
3837.91	0.814
3846.78	0.813
3855.66	0.813
3864.53	0.812
3873.4	0.812
3882.27	0.812
3891.14	0.8125
3900.01	0.813
3908.88	0.813
3917.75	0.813
3926.62	0.813
3935.49	0.812
3944.37	0.811
