Infrared Spectrum: N,N-Bis(2-hydroxyethyl)-2-naphthylamine
Formula: C 14 H 17 N O 2
CAS: 6270-13-9
State: gas
Origin: EPA-IR VAPOR PHASE LIBRARY
1/CM	ABSORBANCE
549.8	0.0019124
559.445	0.0018224
569.09	0.0020624
578.734	0.0021724
588.379	0.0014624
598.024	0.0014224
607.669	0.0016124
617.313	0.0037924
626.958	0.0022324
636.603	0.0012224
646.248	0.0011124
655.893	0.0016724
665.537	0.0013724
675.182	0.0013924
684.827	0.0013724
694.472	0.0014224
704.116	0.0011824
713.761	0.0017324
723.406	0.0028324
733.051	0.0090524
742.695	0.0138224
752.34	0.0055424
761.985	0.0024924
771.63	0.0025124
781.275	0.0026024
790.919	0.0054224
800.564	0.0092824
810.209	0.0082024
819.854	0.0082824
829.498	0.0104524
839.143	0.0097024
848.788	0.0069124
858.433	0.0060224
868.078	0.0054924
877.722	0.0040824
887.367	0.0035324
897.012	0.0034924
906.657	0.0044324
916.301	0.0047424
925.946	0.0044624
935.591	0.0046524
945.236	0.0053324
954.88	0.0066224
964.525	0.0067524
974.17	0.0083824
983.815	0.0110824
993.46	0.0133124
1003.1	0.0141124
1012.75	0.0143224
1022.39	0.0164124
1032.04	0.0223524
1041.68	0.0264524
1051.33	0.0223124
1060.97	0.0220124
1070.62	0.0223124
1080.26	0.0170224
1089.91	0.0147324
1099.55	0.0122624
1109.2	0.0097024
1118.84	0.0087124
1128.49	0.0094024
1138.13	0.0105824
1147.78	0.0121924
1157.42	0.0133824
1167.07	0.0166924
1176.71	0.0195424
1186.36	0.0165624
1196	0.0134124
1205.64	0.0137024
1215.29	0.0128624
1224.93	0.0097224
1234.58	0.0083824
1244.22	0.0084924
1253.87	0.0093824
1263.51	0.0101124
1273.16	0.0112524
1282.8	0.0100624
1292.45	0.0089624
1302.09	0.0086824
1311.74	0.0092324
1321.38	0.0106524
1331.03	0.0123424
1340.67	0.0148824
1350.32	0.0189824
1359.96	0.0225524
1369.61	0.0196424
1379.25	0.0175024
1388.9	0.0168224
1398.54	0.0126624
1408.18	0.0082324
1417.83	0.0058424
1427.47	0.0055724
1437.12	0.0069124
1446.76	0.0081424
1456.41	0.0094824
1466.05	0.0146724
1475.7	0.0190624
1485.34	0.0120524
1494.99	0.0126524
1504.63	0.0237524
1514.28	0.0157624
1523.92	0.0050024
1533.57	0.0033324
1543.21	0.0030224
1552.86	0.0034024
1562.5	0.0049324
1572.15	0.0070124
1581.79	0.0092124
1591.44	0.0175624
1601.08	0.0218824
1610.73	0.0112124
1620.37	0.0180924
1630.01	0.0326424
1639.66	0.0157124
1649.3	0.0057124
1658.95	0.0033724
1668.59	0.0024924
1678.24	0.0022724
1687.88	0.0019924
1697.53	0.0016524
1707.17	0.0014524
1716.82	0.0013524
1726.46	0.0013224
1736.11	0.0013224
1745.75	0.0013824
1755.4	0.0013024
1765.04	0.0014024
1774.69	0.0013724
1784.33	0.0010924
1793.98	0.0011424
1803.62	0.0010524
1813.27	0.0011024
1822.91	0.0008974
1832.55	0.0008957
1842.2	0.0006881
1851.84	0.0006718
1861.49	0.0006532
1871.13	0.0008764
1880.78	0.0011624
1890.42	0.0013424
1900.07	0.0013224
1909.71	0.0012624
1919.36	0.0011924
1929	0.0014124
1938.65	0.0012524
1948.29	0.0007219
1957.94	0.0005568
1967.58	0.0006139
1977.23	0.000539
1986.87	0.0004061
1996.52	0.0005092
2006.16	0.0005032
2015.81	0.0004923
2025.45	0.0005071
2035.1	0.0005078
2044.74	0.0005519
2054.38	0.000662
2064.03	0.0006549
2073.67	0.0007
2083.32	0.0005859
2092.96	0.000511
2102.61	0.0005397
2112.25	0.0005107
2121.9	0.0005174
2131.54	0.0004557
2141.19	0.0004921
2150.83	0.0004931
2160.48	0.0004322
2170.12	0.0004326
2179.77	0.000339
2189.41	0.0004064
2199.06	0.0003049
2208.7	0.0002644
2218.35	0.0003576
2227.99	0.0004974
2237.64	0.0004583
2247.28	0.0003428
2256.92	0.0004348
2266.57	0.0004296
2276.21	0.0004075
2285.86	0.0004517
2295.5	0.000479
2305.15	0.0006056
2314.79	0.0004738
2324.44	0.000454
2334.08	0.0005313
2343.73	0.0005166
2353.37	0.000456
2363.02	0.0005749
2372.66	0.0005005
2382.31	0.00059
2391.95	0.0005724
2401.6	0.0006336
2411.24	0.0007071
2420.89	0.0007067
2430.53	0.000615
2440.18	0.0006038
2449.82	0.0006614
2459.47	0.0006298
2469.11	0.0006482
2478.75	0.0005942
2488.4	0.0005968
2498.04	0.0006707
2507.69	0.0005694
2517.33	0.0007159
2526.98	0.000674
2536.62	0.0006339
2546.27	0.0005765
2555.91	0.0005243
2565.56	0.0005511
2575.2	0.0006244
2584.85	0.0004959
2594.49	0.000623
2604.14	0.0005906
2613.78	0.0006545
2623.43	0.0007856
2633.07	0.0006438
2642.72	0.0007183
2652.36	0.0008741
2662.01	0.0010824
2671.65	0.0012324
2681.29	0.0012024
2690.94	0.0013524
2700.58	0.0014024
2710.23	0.0015124
2719.87	0.0015324
2729.52	0.0016624
2739.16	0.0018024
2748.81	0.0019124
2758.45	0.0018624
2768.1	0.0021224
2777.74	0.0022724
2787.39	0.0025224
2797.03	0.0032224
2806.68	0.0040324
2816.32	0.0052924
2825.97	0.0068224
2835.61	0.0082624
2845.26	0.0092324
2854.9	0.0100224
2864.55	0.0116224
2874.19	0.0146624
2883.84	0.0176724
2893.48	0.0168624
2903.12	0.0142524
2912.77	0.0139724
2922.41	0.0158824
2932.06	0.0181324
2941.7	0.0189524
2951.35	0.0193924
2960.99	0.0182924
2970.64	0.0149624
2980.28	0.0105324
2989.93	0.0065424
2999.57	0.0047324
3009.22	0.0044824
3018.86	0.0055424
3028.51	0.0069324
3038.15	0.0061224
3047.8	0.0088624
3057.44	0.0151324
3067.09	0.0157524
3076.73	0.0099424
3086.38	0.0060924
3096.02	0.0032924
3105.67	0.0017724
3115.31	0.0011724
3124.95	0.000807
3134.6	0.0005944
3144.24	0.0004497
3153.89	0.0002752
3163.53	0.0003205
3173.18	0.0003808
3182.82	0.0003444
3192.47	0.0003725
3202.11	0.0001997
3211.76	0.0003159
3221.4	0.0003087
3231.05	0.0002416
3240.69	0.0002198
3250.34	0.0003725
3259.98	0.0001665
3269.63	0.0001789
3279.27	0.000258
3288.92	0.0001432
3298.56	0.0002573
3308.21	0.0001456
3317.85	0.0003103
3327.49	0.0002806
3337.14	0.000267
3346.78	0.0003325
3356.43	0.0002276
3366.07	0.0003402
3375.72	0.0003023
3385.36	0.0003462
3395.01	0.0004741
3404.65	0.0004076
3414.3	0.0005997
3423.94	0.0006873
3433.59	0.0005624
3443.23	0.000616
3452.88	0.000515
3462.52	0.0007832
3472.17	0.0008087
3481.81	0.0008117
3491.46	0.0008968
3501.1	0.0009967
3510.75	0.0011224
3520.39	0.0014624
3530.04	0.0018624
3539.68	0.0024524
3549.32	0.0024524
3558.97	0.0026024
3568.61	0.0030524
3578.26	0.0029024
3587.9	0.0031324
3597.55	0.0027124
3607.19	0.0023924
3616.84	0.0027524
3626.48	0.0029924
3636.13	0.0030524
3645.77	0.0029524
3655.42	0.0043724
3665.06	0.0061924
3674.71	0.0054224
3684.35	0.0032024
3694	0.0017724
3703.64	0.0011224
3713.29	0.0008687
3722.93	0.0007455
3732.58	0.0007346
3742.22	0.0006069
3751.86	0.0003522
3761.51	0.0004864
3771.15	0.0002742
3780.8	0.0003548
3790.44	0.0003646
3800.09	0.0004086
3809.73	0.000434
3819.38	0.0003372
3829.02	0.0004447
3838.67	0.0004135
3848.31	0.0003283
3857.96	0.0004996
3867.6	0.0004722
3877.25	0.0004121
3886.89	9.024e-05
3896.54	0.0004254
3906.18	0.0005036
3915.83	0.0002785
3925.47	0.0004062
3935.12	0.0004251
3944.76	0.0005443
3954.41	0.0005111
3964.05	8.636e-05
3973.69	0.0006059
3983.34	0.0005886
3992.98	0.0002645
