Infrared Spectrum: ETHANEDIOIC ACID, DISODIUM SALT
Formula: C2 O4 Na2
CAS: 62-76-0
State: SOLID (SPLIT MULL, FLUOROLUBE FOR 3800-1350 AND NUJOL FOR 1350-400 CM ^-^1)
Class: COBLENTZ III
Instrument: DOW KBr FOREPRISM-GRATING
Instrument parameters: BLAZED AT 3.5, 12.0, 20.0 MICRON, CHANGED AT 5.0, 7.5, 14.9 MICRON
Sampling: TRANSMISSION
Resolution: 4
Origin: DOW CHEMICAL COMPANY
1/CM	TRANSMITTANCE
383.106	0.802
391.638	0.813
400.171	0.822
408.703	0.829
417.236	0.838
425.768	0.849
434.301	0.854
442.833	0.858
451.365	0.864
459.898	0.866
468.43	0.864
476.963	0.861
485.495	0.856
494.028	0.833
502.56	0.734
511.092	0.413
519.625	0.168
528.157	0.428
536.69	0.778
545.222	0.893
553.755	0.918
562.287	0.932
570.819	0.94
579.352	0.948
587.884	0.953
596.417	0.958
604.949	0.961
613.481	0.966
622.014	0.972
630.546	0.974
639.079	0.98
647.611	0.985
656.144	0.985
664.676	0.981
673.208	0.961
681.741	0.961
690.273	0.964
698.806	0.96
707.338	0.95
715.871	0.926
724.403	0.893
732.935	0.917
741.468	0.922
750	0.925
758.533	0.913
767.065	0.829
775.598	0.2169
784.13	0.092
792.662	0.852
801.195	0.922
809.727	0.934
818.26	0.94
826.792	0.94
835.325	0.94
843.857	0.938
852.389	0.941
860.922	0.938
869.454	0.936
877.987	0.928
886.519	0.929
895.052	0.928
903.584	0.928
912.116	0.924
920.649	0.922
929.181	0.918
937.714	0.914
946.246	0.914
954.779	0.908
963.311	0.901
971.843	0.898
980.376	0.9
988.908	0.897
997.441	0.89
1005.97	0.885
1014.51	0.88
1023.04	0.873
1031.57	0.868
1040.1	0.862
1048.64	0.858
1057.17	0.85
1065.7	0.84
1074.23	0.825
1082.76	0.828
1091.3	0.828
1099.83	0.832
1108.36	0.834
1116.89	0.836
1125.43	0.833
1133.96	0.833
1142.49	0.833
1151.02	0.838
1159.56	0.842
1168.09	0.833
1176.62	0.832
1185.15	0.84
1193.69	0.84
1202.22	0.837
1210.75	0.84
1219.28	0.838
1227.82	0.833
1236.35	0.828
1244.88	0.818
1253.41	0.816
1261.95	0.812
1270.48	0.801
1279.01	0.79
1287.54	0.742
1296.08	0.658
1304.61	0.486
1313.14	0.1919
1321.67	0.022
1330.21	0.048
1338.74	0.028
1347.27	0.4771
1355.8	0.724
1364.33	0.76
1372.87	0.77
1381.4	0.761
1389.93	0.728
1398.46	0.697
1407	0.688
1415.53	0.632
1424.06	0.744
1432.59	0.776
1441.13	0.774
1449.66	0.776
1458.19	0.776
1466.72	0.774
1475.26	0.769
1483.79	0.761
1492.32	0.752
1500.85	0.745
1509.39	0.737
1517.92	0.722
1526.45	0.706
1534.98	0.684
1543.52	0.664
1552.05	0.644
1560.58	0.614
1569.11	0.562
1577.65	0.549
1586.18	0.501
1594.71	0.445
1603.24	0.368
1611.78	0.284
1620.31	0.201
1628.84	0.126
1637.37	0.09
1645.9	0.105
1654.44	0.128
1662.97	0.158
1671.5	0.188
1680.03	0.234
1688.57	0.322
1697.1	0.406
1705.63	0.501
1714.16	0.602
1722.7	0.674
1731.23	0.724
1739.76	0.758
1748.29	0.786
1756.83	0.808
1765.36	0.832
1773.89	0.85
1782.42	0.864
1790.96	0.88
1799.49	0.892
1808.02	0.905
1816.55	0.914
1825.09	0.928
1833.62	0.936
1842.15	0.94
1850.68	0.945
1859.22	0.945
1867.75	0.944
1876.28	0.936
1884.81	0.914
1893.35	0.933
1901.88	0.949
1910.41	0.96
1918.94	0.964
1927.48	0.965
1936.01	0.968
1944.54	0.969
1953.07	0.97
1961.6	0.972
1970.14	0.969
1978.67	0.97
1987.2	0.97
1995.73	0.969
2004.27	0.9345
2012.8	0.933
2021.33	0.934
2029.86	0.933
2038.4	0.932
2046.93	0.932
2055.46	0.93
2063.99	0.93
2072.53	0.929
2081.06	0.929
2089.59	0.926
2098.12	0.928
2106.66	0.9255
2115.19	0.925
2123.72	0.925
2132.25	0.925
2140.79	0.925
2149.32	0.924
2157.85	0.922
2166.38	0.9191
2174.92	0.917
2183.45	0.916
2191.98	0.9165
2200.51	0.917
2209.05	0.916
2217.58	0.913
2226.11	0.9095
2234.64	0.9071
2243.17	0.9031
2251.71	0.901
2260.24	0.9015
2268.77	0.8991
2277.3	0.896
2285.84	0.896
2294.37	0.896
2302.9	0.894
2311.43	0.8926
2319.97	0.8934
2328.5	0.893
2337.03	0.893
2345.56	0.894
2354.1	0.893
2362.63	0.8934
2371.16	0.8989
2379.69	0.902
2388.23	0.901
2396.76	0.902
2405.29	0.9029
2413.82	0.905
2422.36	0.905
2430.89	0.905
2439.42	0.905
2447.95	0.904
2456.49	0.902
2465.02	0.901
2473.55	0.902
2482.08	0.904
2490.62	0.9054
2499.15	0.9084
2507.68	0.909
2516.21	0.91
2524.74	0.91
2533.28	0.912
2541.81	0.912
2550.34	0.912
2558.87	0.912
2567.41	0.91
2575.94	0.91
2584.47	0.9124
2593	0.913
2601.54	0.912
2610.07	0.91
2618.6	0.909
2627.13	0.908
2635.67	0.906
2644.2	0.906
2652.73	0.9068
2661.26	0.9072
2669.8	0.905
2678.33	0.905
2686.86	0.902
2695.39	0.902
2703.93	0.902
2712.46	0.902
2720.99	0.902
2729.52	0.9016
2738.06	0.898
2746.59	0.8926
2755.12	0.886
2763.65	0.8847
2772.19	0.8941
2780.72	0.897
2789.25	0.897
2797.78	0.896
2806.31	0.896
2814.85	0.894
2823.38	0.893
2831.91	0.8913
2840.44	0.8856
2848.98	0.884
2857.51	0.884
2866.04	0.8844
2874.57	0.885
2883.11	0.8833
2891.64	0.8799
2900.17	0.875
2908.7	0.867
2917.24	0.8537
2925.77	0.8353
2934.3	0.848
2942.83	0.859
2951.37	0.8663
2959.9	0.8767
2968.43	0.8827
2976.96	0.884
2985.5	0.884
2994.03	0.8833
3002.56	0.8817
3011.09	0.8793
3019.63	0.878
3028.16	0.876
3036.69	0.8697
3045.22	0.864
3053.76	0.865
3062.29	0.8683
3070.82	0.87
3079.35	0.872
3087.88	0.8706
3096.42	0.8727
3104.95	0.87
3113.48	0.869
3122.01	0.869
3130.55	0.869
3139.08	0.869
3147.61	0.87
3156.14	0.872
3164.68	0.873
3173.21	0.873
3181.74	0.8714
3190.27	0.87
3198.81	0.8693
3207.34	0.869
3215.87	0.869
3224.4	0.8687
3232.94	0.865
3241.47	0.864
3250	0.864
3258.53	0.862
3267.07	0.862
3275.6	0.861
3284.13	0.86
3292.66	0.858
3301.2	0.857
3309.73	0.858
3318.26	0.8577
3326.79	0.856
3335.33	0.854
3343.86	0.853
3352.39	0.8533
3360.92	0.854
3369.45	0.853
3377.99	0.8523
3386.52	0.852
3395.05	0.852
3403.58	0.852
3412.12	0.852
3420.65	0.852
3429.18	0.852
3437.71	0.852
3446.25	0.852
3454.78	0.853
3463.31	0.853
3471.84	0.854
3480.38	0.856
3488.91	0.856
3497.44	0.856
3505.97	0.857
3514.51	0.857
3523.04	0.86
3531.57	0.8602
3540.1	0.8612
3548.64	0.8635
3557.17	0.864
3565.7	0.864
3574.23	0.864
3582.77	0.861
3591.3	0.8665
3599.83	0.8705
3608.36	0.872
3616.9	0.873
3625.43	0.873
3633.96	0.873
3642.49	0.873
3651.02	0.874
3659.56	0.874
3668.09	0.876
3676.62	0.877
3685.15	0.876
3693.69	0.873
3702.22	0.877
3710.75	0.878
3719.28	0.878
3727.82	0.877
3736.35	0.877
3744.88	0.8768
3753.41	0.8756
3761.95	0.876
3770.48	0.874
3779.01	0.874
3787.54	0.8744
