Infrared Spectrum: SODIUM OXALATE
Formula: Na2 C2 O4
CAS: 62-76-0
State: SOLID (KBr DISC)
Class: COBLENTZ
Instrument: Not specified, most likely a prism, grating, or hybrid spectrometer.
Sampling: TRANSMISSION
Resolution: 4
MICROMETERS	TRANSMITTANCE
2.054	0.787
2.09201	0.791
2.13001	0.794
2.16802	0.799
2.20602	0.802
2.24403	0.806
2.28204	0.809
2.32004	0.813
2.35805	0.816
2.39605	0.819
2.43406	0.824
2.47207	0.836
2.51007	0.839
2.54808	0.839
2.58608	0.842
2.62409	0.843
2.66209	0.849
2.7001	0.852
2.73811	0.855
2.77611	0.855
2.81412	0.843
2.85212	0.806
2.89013	0.781
2.92814	0.758
2.96614	0.75
3.00415	0.767
3.04215	0.803
3.08016	0.828
3.11817	0.854
3.15617	0.873
3.19418	0.886
3.23218	0.886
3.27019	0.888
3.3082	0.885
3.3462	0.901
3.38421	0.906
3.42221	0.872
3.46022	0.895
3.49822	0.916
3.53623	0.925
3.57424	0.928
3.61224	0.928
3.65025	0.921
3.68825	0.934
3.72626	0.941
3.76427	0.943
3.80227	0.947
3.84028	0.95
3.87828	0.953
3.91629	0.953
3.9543	0.956
3.9923	0.956
4.03031	0.956
4.06831	0.956
4.10632	0.958
4.14433	0.961
4.18233	0.961
4.22034	0.961
4.25834	0.962
4.29635	0.962
4.33436	0.961
4.37236	0.961
4.41037	0.959
4.44837	0.959
4.48638	0.955
4.52438	0.952
4.56239	0.947
4.6004	0.943
4.6384	0.937
4.67641	0.93
4.71441	0.921
4.75242	0.915
4.79043	0.907
4.82843	0.898
4.86644	0.888
4.90444	0.88
4.94245	0.872
4.98046	0.86
5.01846	0.843
5.05647	0.828
5.09447	0.813
5.13248	0.805
5.17049	0.793
5.20849	0.773
5.2465	0.751
5.2845	0.727
5.32251	0.724
5.36051	0.723
5.39852	0.702
5.43653	0.681
5.47453	0.666
5.51254	0.647
5.55054	0.632
5.58855	0.614
5.62656	0.599
5.66456	0.578
5.70257	0.571
5.74057	0.558
5.77858	0.519
5.81659	0.497
5.85459	0.458
5.8926	0.388
5.9306	0.321
5.96861	0.25
6.00662	0.193
6.04462	0.147
6.08263	0.12
6.12063	0.162
6.15864	0.223
6.19664	0.296
6.23465	0.355
6.27266	0.409
6.31066	0.438
6.34867	0.462
6.38667	0.489
6.42468	0.532
6.46269	0.552
6.50069	0.575
6.5387	0.592
6.5767	0.61
6.61471	0.62
6.65272	0.636
6.69072	0.644
6.72873	0.651
6.76673	0.653
6.80474	0.659
6.84275	0.662
6.88075	0.665
6.91876	0.663
6.95676	0.665
6.99477	0.657
7.03278	0.607
7.07078	0.596
7.10879	0.622
7.14679	0.635
7.1848	0.648
7.2228	0.672
7.26081	0.672
7.29882	0.666
7.33682	0.659
7.37483	0.627
7.41283	0.483
7.45084	0.313
7.48885	0.278
7.52685	0.244
7.56486	0.218
7.60286	0.281
7.64087	0.346
7.67888	0.409
7.71688	0.446
7.75489	0.486
7.79289	0.52
7.8309	0.546
7.86891	0.569
7.90691	0.59
7.94492	0.605
7.98292	0.617
8.02093	0.63
8.05893	0.641
8.09694	0.653
8.13495	0.662
8.17295	0.675
8.21096	0.683
8.24896	0.691
8.28697	0.7
8.32498	0.709
8.36298	0.723
8.40099	0.732
8.43899	0.739
8.477	0.751
8.51501	0.758
8.55301	0.767
8.59102	0.776
8.62902	0.785
8.66703	0.787
8.70504	0.794
8.74304	0.802
8.78105	0.803
8.81905	0.808
8.85706	0.812
8.89507	0.816
8.93307	0.819
8.97108	0.825
9.00908	0.828
9.04709	0.836
9.08509	0.839
9.1231	0.842
9.16111	0.843
9.19911	0.849
9.23712	0.852
9.27512	0.857
9.31313	0.86
9.35114	0.864
9.38914	0.869
9.42715	0.87
9.46515	0.873
9.50316	0.877
9.54117	0.88
9.57917	0.883
9.61718	0.886
9.65518	0.888
9.69319	0.889
9.7312	0.892
9.7692	0.897
9.80721	0.898
9.84521	0.901
9.88322	0.904
9.92122	0.907
9.95923	0.912
9.99724	0.915
10.0352	0.916
10.0732	0.919
10.1113	0.922
10.1493	0.924
10.1873	0.927
10.2253	0.927
10.2633	0.93
10.3013	0.933
10.3393	0.934
10.3773	0.938
10.4153	0.941
10.4533	0.941
10.4913	0.943
10.5293	0.944
10.5673	0.944
10.6053	0.946
10.6433	0.947
10.6813	0.947
10.7193	0.95
10.7574	0.952
10.7954	0.953
10.8334	0.955
10.8714	0.956
10.9094	0.956
10.9474	0.958
10.9854	0.961
11.0234	0.964
11.0614	0.964
11.0994	0.965
11.1374	0.967
11.1754	0.968
11.2134	0.968
11.2514	0.97
11.2894	0.971
11.3274	0.971
11.3654	0.971
11.4035	0.971
11.4415	0.974
11.4795	0.974
11.5175	0.974
11.5555	0.974
11.5935	0.974
11.6315	0.974
11.6695	0.974
11.7075	0.976
11.7455	0.974
11.7835	0.976
11.8215	0.976
11.8595	0.976
11.8975	0.973
11.9355	0.97
11.9735	0.964
12.0116	0.961
12.0496	0.956
12.0876	0.95
12.1256	0.946
12.1636	0.94
12.2016	0.936
12.2396	0.925
12.2776	0.918
12.3156	0.909
12.3536	0.895
12.3916	0.88
12.4296	0.87
12.4676	0.855
12.5056	0.836
12.5436	0.811
12.5816	0.791
12.6196	0.757
12.6577	0.705
12.6957	0.617
12.7337	0.532
12.7717	0.403
12.8097	0.325
12.8477	0.321
12.8857	0.296
12.9237	0.296
12.9617	0.358
12.9997	0.446
13.0377	0.498
13.0757	0.552
13.1137	0.58
13.1517	0.616
13.1897	0.645
13.2277	0.663
13.2657	0.68
13.3038	0.694
13.3418	0.708
13.3798	0.724
13.4178	0.735
13.4558	0.748
13.4938	0.758
13.5318	0.767
13.5698	0.778
13.6078	0.787
13.6458	0.791
13.6838	0.796
13.7218	0.803
13.7598	0.805
13.7978	0.808
13.8358	0.813
13.8738	0.815
13.9118	0.819
13.9499	0.824
13.9879	0.825
14.0259	0.827
14.0639	0.831
14.1019	0.836
14.1399	0.839
14.1779	0.842
14.2159	0.843
14.2539	0.845
14.2919	0.845
14.3299	0.848
14.3679	0.851
14.4059	0.854
14.4439	0.855
14.4819	0.858
14.5199	0.863
14.5579	0.863
14.596	0.864
14.634	0.867
14.672	0.869
14.71	0.872
14.748	0.875
14.786	0.875
14.824	0.876
14.862	0.875
14.9	0.877
