Infrared Spectrum: 1,4-CYCLOHEXADIENE
Formula: C6 H8
CAS: 628-41-1
State: LIQUID (NEAT)
Class: COBLENTZ III
Instrument: CARY 90 (GRATING)
Instrument parameters: ORDER CHANGES: 3000, 2000, 1200 CM^-^1
Sampling: TRANSMISSION
Path length: 0.0026 CM
Resolution: 2
Origin: WESTERN REGIONAL RES. USDA
1/CM	TRANSMITTANCE
3996	0.9228
3987	0.9111
3978	0.9086
3969	0.9204
3960	0.9316
3951	0.9286
3942	0.9166
3933	0.9071
3924	0.9161
3915	0.9294
3906	0.9411
3897	0.9509
3888	0.9567
3879	0.9578
3870	0.9557
3861	0.9515
3852	0.948
3843	0.9452
3834	0.9457
3825	0.9467
3816	0.9478
3807	0.9498
3798	0.9525
3789	0.9551
3780	0.9574
3771	0.9596
3762	0.9616
3753	0.962
3744	0.9614
3735	0.9607
3726	0.9598
3717	0.958
3708	0.9568
3699	0.9571
3690	0.9581
3681	0.9588
3672	0.9585
3663	0.9581
3654	0.9577
3645	0.9573
3636	0.9563
3627	0.9554
3618	0.9502
3609	0.9423
3600	0.9381
3591	0.9411
3582	0.941
3573	0.9387
3564	0.9359
3555	0.9371
3546	0.9396
3537	0.9428
3528	0.9468
3519	0.9501
3510	0.9509
3501	0.9507
3492	0.9485
3483	0.9459
3474	0.9452
3465	0.9445
3456	0.9441
3447	0.9441
3438	0.9442
3429	0.9442
3420	0.9443
3411	0.9445
3402	0.9447
3393	0.9446
3384	0.9446
3375	0.9447
3366	0.9447
3357	0.9448
3348	0.9449
3339	0.9449
3330	0.9453
3321	0.9371
3312	0.9162
3303	0.9194
3294	0.9342
3285	0.9365
3276	0.929
3267	0.9225
3258	0.9271
3249	0.9348
3240	0.9386
3231	0.9415
3222	0.9441
3213	0.9462
3204	0.9477
3195	0.9485
3186	0.9477
3177	0.9468
3168	0.9458
3159	0.9446
3150	0.943
3141	0.9406
3132	0.9336
3123	0.912
3114	0.891
3105	0.8858
3096	0.6861
3087	0.7464
3078	0.8148
3069	0.7014
3060	0.5773
3051	0.3938
3042	0.2103
3033	0.0267
3024	0.0052
3015	0.1488
3006	0.3024
2997	0.3716
2988	0.4552
2979	0.5454
2970	0.5149
2961	0.4116
2952	0.576
2943	0.7428
2934	0.7426
2925	0.7175
2916	0.6597
2907	0.5753
2898	0.27
2889	0.0376
2880	0.0105
2871	0.0711
2862	0.0242
2853	0.0633
2844	0.1559
2835	0.1857
2826	0.0229
2817	0.0237
2808	0.2497
2799	0.4762
2790	0.6676
2781	0.7199
2772	0.7586
2763	0.821
2754	0.8541
2745	0.8644
2736	0.8824
2727	0.8823
2718	0.8401
2709	0.8894
2700	0.9196
2691	0.8901
2682	0.8377
2673	0.7475
2664	0.7308
2655	0.8258
2646	0.9143
2637	0.9318
2628	0.944
2619	0.9542
2610	0.961
2601	0.9613
2592	0.9598
2583	0.9609
2574	0.9638
2565	0.967
2556	0.9682
2547	0.9611
2538	0.9507
2529	0.9527
2520	0.9602
2511	0.9658
2502	0.9674
2493	0.9666
2484	0.9635
2475	0.9592
2466	0.9594
2457	0.9632
2448	0.9661
2439	0.97
2430	0.972
2421	0.9721
2412	0.9671
2403	0.9578
2394	0.9545
2385	0.9527
2376	0.9423
2367	0.9297
2358	0.9445
2349	0.9606
2340	0.9646
2331	0.9615
2322	0.9498
2313	0.9444
2304	0.9567
2295	0.9633
2286	0.9664
2277	0.9675
2268	0.9686
2259	0.9705
2250	0.9711
2241	0.9696
2232	0.9652
2223	0.9609
2214	0.9621
2205	0.9662
2196	0.9718
2187	0.9737
2178	0.9646
2169	0.9514
2160	0.9471
2151	0.9583
2142	0.9656
2133	0.9694
2124	0.9718
2115	0.9731
2106	0.9744
2097	0.9745
2088	0.9735
2079	0.9721
2070	0.9704
2061	0.9646
2052	0.9599
2043	0.9605
2034	0.9634
2025	0.9618
2016	0.9589
2007	0.9611
1998	0.9795
1989	0.9903
1980	0.9814
1971	0.982
1962	0.9653
1953	0.9431
1944	0.9368
1935	0.9397
1926	0.8944
1917	0.9295
1908	0.9267
1899	0.8871
1890	0.8892
1881	0.9259
1872	0.9483
1863	0.9718
1854	0.9812
1845	0.9788
1836	0.9758
1827	0.9806
1818	0.9851
1809	0.98
1800	0.9814
1791	0.9837
1782	0.9862
1773	0.9877
1764	0.9835
1755	0.9768
1746	0.9707
1737	0.9674
1728	0.966
1719	0.9634
1710	0.9549
1701	0.9377
1692	0.8817
1683	0.8041
1674	0.7035
1665	0.7655
1656	0.8307
1647	0.5336
1638	0.2208
1629	0.7565
1620	0.8137
1611	0.7848
1602	0.7765
1593	0.835
1584	0.8977
1575	0.9128
1566	0.9192
1557	0.9337
1548	0.944
1539	0.9509
1530	0.954
1521	0.9558
1512	0.9578
1503	0.9589
1494	0.9571
1485	0.9491
1476	0.9258
1467	0.9217
1458	0.896
1449	0.8344
1440	0.7019
1431	0.0942
1422	0.4
1413	0.6544
1404	0.4167
1395	0.8238
1386	0.8428
1377	0.8308
1368	0.7742
1359	0.6483
1350	0.6521
1341	0.8193
1332	0.8606
1323	0.8839
1314	0.9171
1305	0.9249
1296	0.9342
1287	0.9406
1278	0.9393
1269	0.9391
1260	0.9384
1251	0.9309
1242	0.9316
1233	0.9224
1224	0.9198
1215	0.8899
1206	0.8578
1197	0.8254
1188	0.8365
1179	0.8483
1170	0.8466
1161	0.8101
1152	0.8072
1143	0.8609
1134	0.8778
1125	0.8852
1116	0.8894
1107	0.892
1098	0.8927
1089	0.89
1080	0.8761
1071	0.8655
1062	0.8611
1053	0.8511
1044	0.8389
1035	0.8252
1026	0.827
1017	0.8321
1008	0.8277
999	0.8161
990	0.7558
981	0.6288
972	0.4427
963	0.0867
954	0.0131
945	0.3506
936	0.621
927	0.7706
918	0.8237
909	0.827
900	0.7653
891	0.3238
882	0.0332
873	0.6571
864	0.8151
855	0.8478
846	0.8613
837	0.8696
828	0.875
819	0.8786
810	0.8805
801	0.878
792	0.8715
783	0.8674
774	0.8667
765	0.8686
756	0.8667
747	0.859
738	0.8495
729	0.8362
720	0.8142
711	0.7619
702	0.7341
693	0.689
684	0.6056
675	0.457
666	0.4118
657	0.375
648	0.3207
639	0.2004
630	0.0552
621	0.0056
612	0.0151
603	0.2328
594	0.4374
585	0.5631
576	0.6711
567	0.711
558	0.72
549	0.7371
540	0.7749
531	0.7796
522	0.7838
513	0.7947
504	0.7895
495	0.7778
486	0.7668
477	0.7567
