Infrared Spectrum: ACETIC ACID, n-PENTYL ESTER
Formula: C7 H14 O2
CAS: 628-63-7
State: SOLUTION (10% IN CCl4 FOR 3800-1300, 10% IN CS2 FOR 1300-650, 10% IN CCl4 FOR 650-250 CM^-^1) VERSUS SOLVENT
Class: COBLENTZ III
Instrument: PERKIN-ELMER 521 (GRATING)
Instrument parameters: FILTERS AT 3150, 2500, 2000, 1150, 700, 410; GRATING CHANGES AT 2000, 630 CM^-^1
Sampling: TRANSMISSION
Path length: 0.012, 0.011, AND 0.010 CM (CsBr CELL)
Resolution: 4
Origin: DOW CORNING CORP.
1/CM	TRANSMITTANCE
240.394	0.737
250.246	0.751
260.098	0.758
269.951	0.76
279.803	0.762
289.655	0.764
299.507	0.776
309.36	0.79
319.212	0.81
329.064	0.822
338.916	0.848
348.769	0.856
358.621	0.853
368.473	0.856
378.325	0.853
388.177	0.842
398.03	0.825
407.882	0.819
417.734	0.802
427.586	0.791
437.439	0.778
447.291	0.774
457.143	0.779
466.995	0.794
476.848	0.782
486.7	0.77
496.552	0.793
506.404	0.806
516.257	0.802
526.109	0.814
535.961	0.829
545.813	0.827
555.665	0.826
565.518	0.831
575.37	0.827
585.222	0.817
595.074	0.779
604.927	0.567
614.779	0.744
624.631	0.736
634.483	0.684
644.336	0.724
654.188	0.778
664.04	0.83
673.892	0.848
683.744	0.856
693.597	0.858
703.449	0.864
713.301	0.862
723.153	0.825
733.006	0.831
742.858	0.845
752.71	0.853
762.562	0.831
772.415	0.797
782.267	0.854
792.119	0.862
801.971	0.852
811.823	0.795
821.676	0.786
831.528	0.809
841.38	0.819
851.232	0.803
861.085	0.78
870.937	0.788
880.789	0.776
890.641	0.754
900.494	0.727
910.346	0.717
920.198	0.713
930.05	0.759
939.903	0.728
949.755	0.615
959.607	0.591
969.459	0.588
979.311	0.591
989.164	0.638
999.016	0.587
1008.87	0.4269
1018.72	0.25
1028.57	0.18
1038.42	0.162
1048.28	0.169
1058.13	0.252
1067.98	0.462
1077.83	0.556
1087.69	0.627
1097.54	0.604
1107.39	0.577
1117.24	0.537
1127.09	0.576
1136.95	0.661
1146.8	0.689
1156.65	0.7
1166.5	0.646
1176.36	0.706
1186.21	0.665
1196.06	0.595
1205.91	0.4259
1215.77	0.184
1225.62	0.006
1235.47	0
1245.32	0.004
1255.17	0.03
1265.03	0.181
1274.88	0.301
1284.73	0.427
1294.58	0.538
1304.44	0.588
1314.29	0.659
1324.14	0.694
1333.99	0.7
1343.84	0.654
1353.7	0.522
1363.55	0.107
1373.4	0.123
1383.25	0.215
1393.11	0.3011
1402.96	0.583
1412.81	0.603
1422.66	0.561
1432.51	0.462
1442.37	0.447
1452.22	0.342
1462.07	0.213
1471.92	0.2741
1481.78	0.6071
1491.63	0.717
1501.48	0.754
1511.33	0.759
1521.18	0.772
1531.04	0.778
1540.89	0.786
1550.74	0.794
1560.59	0.803
1570.45	0.81
1580.3	0.815
1590.15	0.819
1600	0.819
1609.85	0.819
1619.71	0.817
1629.56	0.805
1639.41	0.783
1649.26	0.754
1659.12	0.737
1668.97	0.733
1678.82	0.711
1688.67	0.6569
1698.52	0.569
1708.38	0.4999
1718.23	0.3299
1728.08	0.065
1737.93	0
1747.79	0.002
1757.64	0.0492
1767.49	0.3831
1777.34	0.576
1787.19	0.68
1797.05	0.723
1806.9	0.756
1816.75	0.784
1826.6	0.809
1836.46	0.819
1846.31	0.833
1856.16	0.836
1866.01	0.838
1875.86	0.841
1885.72	0.845
1895.57	0.857
1905.42	0.856
1915.27	0.862
1925.13	0.861
1934.98	0.861
1944.83	0.861
1954.68	0.862
1964.53	0.868
1974.39	0.865
1984.24	0.866
1994.09	0.875
2003.94	0.865
2013.8	0.864
2023.65	0.8679
2033.5	0.868
2043.35	0.8651
2053.2	0.864
2063.06	0.8611
2072.91	0.8638
2082.76	0.865
2092.61	0.8651
2102.47	0.862
2112.32	0.862
2122.17	0.8602
2132.02	0.858
2141.87	0.858
2151.73	0.8578
2161.58	0.8596
2171.43	0.8595
2181.28	0.861
2191.14	0.8617
2200.99	0.865
2210.84	0.865
2220.69	0.869
2230.55	0.8683
2240.4	0.8683
2250.25	0.864
2260.1	0.862
2269.95	0.864
2279.81	0.8646
2289.66	0.862
2299.51	0.862
2309.36	0.8631
2319.22	0.862
2329.07	0.8629
2338.92	0.8605
2348.77	0.864
2358.62	0.8625
2368.48	0.8605
2378.33	0.862
2388.18	0.858
2398.03	0.8606
2407.89	0.858
2417.74	0.86
2427.59	0.861
2437.44	0.86
2447.29	0.858
2457.15	0.854
2467	0.844
2476.85	0.846
2486.7	0.844
2496.56	0.8509
2506.41	0.856
2516.26	0.857
2526.11	0.857
2535.96	0.857
2545.82	0.8568
2555.67	0.8555
2565.52	0.853
2575.37	0.849
2585.23	0.8448
2595.08	0.84
2604.93	0.8372
2614.78	0.8396
2624.63	0.836
2634.49	0.833
2644.34	0.84
2654.19	0.836
2664.04	0.8329
2673.9	0.8269
2683.75	0.823
2693.6	0.821
2703.45	0.815
2713.3	0.81
2723.16	0.795
2733.01	0.791
2742.86	0.7969
2752.71	0.8099
2762.57	0.807
2772.42	0.8011
2782.27	0.7941
2792.12	0.784
2801.97	0.7685
2811.83	0.7555
2821.68	0.7247
2831.53	0.6912
2841.38	0.6144
2851.24	0.5076
2861.09	0.3576
2870.94	0.2234
2880.79	0.153
2890.64	0.3178
2900.5	0.2571
2910.35	0.2068
2920.2	0.1582
2930.05	0.0959
2939.91	0.051
2949.76	0.0837
2959.61	0.0357
2969.46	0.0126
2979.31	0.0525
2989.17	0.2181
2999.02	0.4476
3008.87	0.6156
3018.72	0.6718
3028.58	0.7029
3038.43	0.736
3048.28	0.7582
3058.13	0.7842
3067.98	0.796
3077.84	0.804
3087.69	0.814
3097.54	0.8194
3107.39	0.8265
3117.25	0.8254
3127.1	0.844
3136.95	0.841
3146.8	0.8406
3156.65	0.84
3166.51	0.841
3176.36	0.842
3186.21	0.844
3196.06	0.8467
3205.92	0.853
3215.77	0.856
3225.62	0.858
3235.47	0.862
3245.32	0.865
3255.18	0.8665
3265.03	0.868
3274.88	0.865
3284.73	0.866
3294.59	0.868
3304.44	0.8658
3314.29	0.862
3324.14	0.8637
3334	0.862
3343.85	0.8637
3353.7	0.861
3363.55	0.861
3373.4	0.861
3383.26	0.8619
3393.11	0.86
3402.96	0.86
3412.81	0.858
3422.67	0.858
3432.52	0.849
3442.37	0.836
3452.22	0.8191
3462.07	0.81
3471.93	0.8169
3481.78	0.8417
3491.63	0.8488
3501.48	0.8558
3511.34	0.853
3521.19	0.8502
3531.04	0.8464
3540.89	0.844
3550.74	0.845
3560.6	0.8498
3570.45	0.854
3580.3	0.8616
3590.15	0.8698
3600.01	0.873
3609.86	0.872
3619.71	0.8667
3629.56	0.864
3639.41	0.8632
3649.27	0.8767
3659.12	0.8784
3668.97	0.877
3678.82	0.876
3688.68	0.877
3698.53	0.8806
3708.38	0.8846
3718.23	0.887
3728.08	0.888
3737.94	0.888
3747.79	0.887
3757.64	0.884
3767.49	0.884
3777.35	0.8835
3787.2	0.887
3797.05	0.887
