Infrared Spectrum: Amyl acetate
Formula: C 7 H 14 O 2
CAS: 628-63-7
State: liquid
Instrument: Bruker Tensor 27 FTIR
Resolution: 0.4821395
Origin: Pacific Northwest National Laboratory Under IARPA Contract
1/cm	dispersion index
7797.62	1.38913
7779.06	1.38913
7760.5	1.38912
7741.94	1.38912
7723.38	1.38911
7704.81	1.3891
7686.25	1.38909
7667.69	1.38908
7649.13	1.38907
7630.57	1.38906
7612.01	1.38905
7593.44	1.38904
7574.88	1.38903
7556.32	1.38901
7537.76	1.38901
7519.2	1.389
7500.64	1.38899
7482.07	1.38898
7463.51	1.38897
7444.95	1.38896
7426.39	1.38895
7407.83	1.38893
7389.26	1.38892
7370.7	1.38891
7352.14	1.38889
7333.58	1.38888
7315.02	1.38887
7296.46	1.38885
7277.89	1.38884
7259.33	1.38882
7240.77	1.38881
7222.21	1.38879
7203.65	1.38878
7185.09	1.38876
7166.52	1.38874
7147.96	1.38873
7129.4	1.38871
7110.84	1.38869
7092.28	1.38867
7073.71	1.38865
7055.15	1.38863
7036.59	1.38861
7018.03	1.38859
6999.47	1.38857
6980.91	1.38855
6962.34	1.38852
6943.78	1.3885
6925.22	1.38847
6906.66	1.38844
6888.1	1.38841
6869.54	1.38839
6850.97	1.38837
6832.41	1.38836
6813.85	1.38835
6795.29	1.38837
6776.73	1.38836
6758.16	1.38833
6739.6	1.38832
6721.04	1.3883
6702.48	1.38826
6683.92	1.38823
6665.36	1.3882
6646.79	1.38816
6628.23	1.38813
6609.67	1.3881
6591.11	1.38806
6572.55	1.38803
6553.99	1.38799
6535.42	1.38795
6516.86	1.38791
6498.3	1.38787
6479.74	1.38784
6461.18	1.3878
6442.61	1.38775
6424.05	1.38771
6405.49	1.38766
6386.93	1.38761
6368.37	1.38756
6349.81	1.38751
6331.24	1.38745
6312.68	1.38739
6294.12	1.38732
6275.56	1.38726
6257	1.3872
6238.44	1.38716
6219.87	1.38708
6201.31	1.38699
6182.75	1.38689
6164.19	1.38676
6145.63	1.38661
6127.06	1.38641
6108.5	1.38642
6089.94	1.38652
6071.38	1.38655
6052.82	1.38661
6034.26	1.38654
6015.69	1.38655
5997.13	1.38653
5978.57	1.38651
5960.01	1.38635
5941.45	1.38625
5922.89	1.38624
5904.32	1.38614
5885.76	1.3861
5867.2	1.38595
5848.64	1.38577
5830.08	1.38562
5811.51	1.38542
5792.95	1.38522
5774.39	1.38501
5755.83	1.38475
5737.27	1.38451
5718.71	1.38439
5700.14	1.38422
5681.58	1.38388
5663.02	1.38361
5644.46	1.38299
5625.9	1.38379
5607.34	1.3831
5588.77	1.38249
5570.21	1.38191
5551.65	1.38125
5533.09	1.38047
5514.53	1.37954
5495.96	1.3785
5477.4	1.37717
5458.84	1.37519
5440.28	1.37242
5421.72	1.36771
5403.16	1.3583
5384.59	1.32994
5366.03	1.39448
5347.47	1.40628
5328.91	1.41502
5310.35	1.40654
5291.79	1.39901
5273.22	1.39508
5254.66	1.39327
5236.1	1.39174
5217.54	1.39031
5198.98	1.38927
5180.41	1.38835
5161.85	1.3872
5143.29	1.38631
5124.73	1.38595
5106.17	1.38505
5087.61	1.38432
5069.04	1.38343
5050.48	1.38271
5031.92	1.38189
5013.36	1.38089
4994.8	1.37983
4976.24	1.37871
4957.67	1.37759
4939.11	1.37653
4920.55	1.37495
4901.99	1.37307
4883.43	1.37047
4864.86	1.36713
4846.3	1.36258
4827.74	1.35601
4809.18	1.3427
4790.62	1.31002
4772.06	1.23971
4753.49	1.45438
4734.93	1.4129
4716.37	1.39827
4697.81	1.38749
4679.25	1.37791
4660.69	1.3687
4642.12	1.34832
4623.56	1.37466
4605	1.35702
4586.44	1.34185
4567.88	1.36908
4549.31	1.31333
4530.75	1.20157
4512.19	1.64228
4493.63	1.49708
4475.07	1.44443
4456.51	1.41693
4437.94	1.3795
4419.38	1.43564
4400.82	1.4714
4382.26	1.46251
4363.7	1.43977
4345.14	1.43428
4326.57	1.42937
4308.01	1.42971
4289.45	1.41793
4270.89	1.41481
4252.33	1.42249
4233.76	1.41294
4215.2	1.42069
4196.64	1.43741
4178.08	1.42147
4159.52	1.41524
4140.96	1.41882
4122.39	1.41498
4103.83	1.42192
4085.27	2.96574e-05
4066.71	2.82882e-05
4048.15	2.96574e-05
4029.58	3.11504e-05
4011.02	3.01545e-05
3992.46	3.07772e-05
3973.9	2.99067e-05
3955.34	2.99893e-05
3936.78	3.1565e-05
3918.21	3.65015e-05
3899.65	3.98195e-05
3881.09	4.31376e-05
3862.53	4.77008e-05
3843.97	5.84856e-05
3825.41	6.26328e-05
3806.84	6.9685e-05
3788.28	6.76106e-05
3769.72	5.93147e-05
3751.16	6.09745e-05
3732.6	5.55821e-05
3714.03	5.14334e-05
3695.47	5.01898e-05
3676.91	4.01515e-05
3658.35	3.55882e-05
3639.79	3.5215e-05
3621.23	3.51737e-05
3602.66	3.21876e-05
3584.1	2.83295e-05
3565.54	2.49702e-05
3546.98	2.46382e-05
3528.42	2.30213e-05
3509.86	2.04069e-05
3491.29	2.00337e-05
3472.73	1.93713e-05
3454.17	1.62185e-05
3435.61	1.45174e-05
3417.05	1.33976e-05
3398.48	1.19872e-05
3379.92	1.16965e-05
3361.36	1.00383e-05
3342.8	1.04528e-05
3324.24	1.1822e-05
3305.68	1.24017e-05
3287.11	1.52226e-05
3268.55	2.244e-05
3249.99	3.1233e-05
3231.43	4.31376e-05
3212.87	6.80252e-05
3194.31	0.000114482
3175.74	0.000213617
3157.18	0.000277493
3138.62	0.00036211
3120.06	0.000405249
3101.5	0.00047286
3082.93	0.0003422
3064.37	0.00030404
3045.81	0.000306529
3027.25	0.000244311
3008.69	0.000167574
2990.13	0.000139784
2971.56	0.000132732
2953	0.000126511
2934.44	0.000124851
2915.88	9.99634e-05
2897.32	8.66913e-05
2878.76	7.75647e-05
2860.19	7.34176e-05
2841.63	8.83495e-05
2823.07	9.49871e-05
2804.51	8.87641e-05
2785.95	0.000121948
2767.38	9.1253e-05
2748.82	8.17134e-05
2730.26	8.33732e-05
2711.7	8.95947e-05
2693.14	9.29128e-05
2674.58	7.96391e-05
2656.01	8.08843e-05
2637.45	8.5446e-05
2618.89	0.000101623
2600.33	0.000119044
2581.77	0.000192047
2563.21	0.000231867
2544.64	0.000312336
2526.08	0.000214446
2507.52	0.000180848
2488.96	0.000182091
2470.4	0.000211542
2451.83	0.000343445
2433.27	0.000750767
2414.71	0.00191632
2396.15	0.00225645
2377.59	0.00262146
2359.03	0.0021569
2340.46	0.00230208
2321.9	0.00226475
2303.34	0.00219008
2284.78	0.00204906
2266.22	0.00158864
2247.66	0.00182922
2229.09	0.00181677
2210.53	0.00158449
2191.97	0.0015596
2173.41	0.00105356
2154.85	0.000821281
2136.28	0.000825429
2117.72	0.000626331
2099.16	0.000593147
2080.6	0.000589
2062.04	0.000576556
2043.48	0.00099964
2024.91	0.00149739
2006.35	0.00119044
1987.79	0.00112823
1969.23	0.00130244
1950.67	0.00133147
1932.11	0.00601443
1913.54	0.00123607
1894.98	0.000833725
1876.42	0.000783951
1857.86	0.000808838
1839.3	0.000924979
1820.73	0.00130244
1802.17	0.00212372
1783.61	0.00263391
1765.05	0.00327683
1746.49	0.00506042
1727.93	0.00829577
1709.36	0.0176285
1690.8	0.0759063
1672.24	0.214446
1653.68	0.120289
1635.12	0.130244
1616.56	0.0215275
1597.99	0.00767359
1579.43	0.00518486
1560.87	0.00535077
1542.31	0.00460415
1523.75	0.00292426
1505.18	0.00293256
1486.62	0.00210298
1468.06	0.00138125
1449.5	0.00229378
1430.94	0.00301137
1412.38	0.00192877
1393.81	0.00186655
1375.25	0.00175041
1356.69	0.00190803
1338.13	0.00206979
1319.57	0.0018707
1301.01	0.00229378
1282.44	0.00272516
1263.88	0.00398612
1245.32	0.00377458
1226.76	0.0037165
1208.2	0.00403589
1189.63	0.00277908
1171.07	0.00412715
1152.51	0.00530929
1133.95	0.00717584
1115.39	0.0101208
1096.83	0.02945
1078.26	0.315239
1059.7	0.139784
1041.14	0.030404
1022.58	0.0190388
1004.02	0.0101623
985.455	0.0100379
966.894	0.0161768
948.332	0.0250117
929.77	0.175041
911.208	0.0721732
892.647	0.221497
874.085	0.051019
855.523	0.0642922
836.961	0.266294
818.399	1.63012
799.838	0.094157
781.276	0.0241822
762.714	0.0329342
744.152	0.072588
725.591	0.559965
707.029	0.160523
688.467	0.112822
669.905	0.0409811
651.344	0.0443824
632.782	0.0460415
614.22	0.0481155
595.658	0.0112822
577.096	0.0150153
558.535	0.0150568
539.973	0.00535077
521.411	0.0663662
502.849	0.207394
484.288	0.00497746
465.726	0.0099964
447.164	0.0287863
428.602	0.0113652
410.041	0.00808838
