Infrared Spectrum: HEPTANE, 1-BROMO-
Formula: C7 H15 Br
CAS: 629-04-9
State: SOLUTION (10% IN CCl4 FOR 3800-1333, AND 10% IN CS2 FOR 1333-400 CM^-^1)
Class: COBLENTZ III
Instrument: DOW KBr FOREPRISM-GRATING
Instrument parameters: BLAZED AT 3.5, 12.0, 20.0 MICRON, CHANGED AT 5.0, 7.5, 14.9 MICRON
Sampling: TRANSMISSION
Path length: 0.011, 0.010 CM
Resolution: 4
Origin: DOW CHEMICAL COMPANY
1/CM	TRANSMITTANCE
386.957	0.373
395.653	0.403
404.348	0.524
413.044	0.72
421.74	0.795
430.435	0.835
439.131	0.873
447.827	0.904
456.522	0.922
465.218	0.949
473.914	0.965
482.609	0.972
491.305	0.978
500	0.98
508.696	0.979
517.392	0.978
526.087	0.972
534.783	0.971
543.479	0.963
552.174	0.916
560.87	0.741
569.566	0.888
578.261	0.989
586.957	0.994
595.653	0.994
604.348	0.991
613.044	0.979
621.74	0.957
630.435	0.891
639.131	0.708
647.827	0.831
656.522	0.931
665.218	0.972
673.914	0.979
682.609	0.98
691.305	0.98
700.001	0.978
708.696	0.956
717.392	0.892
726.087	0.772
734.783	0.931
743.479	0.941
752.174	0.963
760.87	0.976
769.566	0.983
778.261	0.983
786.957	0.945
795.653	0.991
804.348	1.001
813.044	0.997
821.74	0.979
830.435	0.978
839.131	0.959
847.827	0.892
856.522	0.844
865.218	0.87
873.914	0.903
882.609	0.933
891.305	0.956
900.001	0.979
908.696	1.009
917.392	1.009
926.087	1.01
934.783	1.014
943.479	1.01
952.174	0.994
960.87	1.002
969.566	0.995
978.261	0.99
986.957	0.998
995.653	1.002
1004.35	1.001
1013.04	1.004
1021.74	1.004
1030.44	1.001
1039.13	0.994
1047.83	0.987
1056.52	0.991
1065.22	1
1073.91	1
1082.61	1
1091.3	1.001
1100	0.998
1108.7	0.994
1117.39	1.017
1126.09	1.02
1134.78	1.019
1143.48	1.01
1152.17	1.004
1160.87	1
1169.57	0.994
1178.26	0.986
1186.96	0.971
1195.65	0.876
1204.35	0.946
1213.04	0.925
1221.74	0.732
1230.44	0.742
1239.13	0.6849
1247.83	0.698
1256.52	0.791
1265.22	0.66
1273.91	0.822
1282.61	0.841
1291.3	0.836
1300	0.837
1308.7	0.889
1317.39	0.923
1326.09	0.922
1334.78	0.918
1343.48	0.92
1352.17	0.914
1360.87	0.911
1369.57	0.895
1378.26	0.833
1386.96	0.926
1395.65	0.934
1404.35	0.927
1413.04	0.922
1421.74	0.91
1430.44	0.8159
1439.13	0.701
1447.83	0.708
1456.52	0.531
1465.22	0.505
1473.91	0.6531
1482.61	0.884
1491.3	0.88
1500	0.854
1508.7	0.816
1517.39	0.762
1526.09	0.717
1534.78	0.651
1543.48	0.558
1552.17	0.52
1560.87	0.58
1569.57	0.659
1578.26	0.698
1586.96	0.727
1595.65	0.806
1604.35	0.897
1613.04	0.949
1621.74	0.975
1630.44	0.986
1639.13	0.993
1647.83	1
1656.52	0.997
1665.22	0.998
1673.91	0.998
1682.61	1
1691.3	1.001
1700	1
1708.7	1
1717.39	0.998
1726.09	0.994
1734.78	0.995
1743.48	1.004
1752.17	1.005
1760.87	1.005
1769.57	1.005
1778.26	1.004
1786.96	1.002
1795.65	1.001
1804.35	1
1813.04	0.998
1821.74	1.001
1830.44	0.997
1839.13	1.001
1847.83	0.997
1856.52	1
1865.22	1.001
1873.91	1.001
1882.61	1.001
1891.3	1.002
1900	1.002
1908.7	1.004
1917.39	1.004
1926.09	1.004
1934.78	1.002
1943.48	1.001
1952.17	0.997
1960.87	0.998
1969.57	0.998
1978.26	0.995
1986.96	0.994
1995.65	0.991
2004.35	0.996
2013.04	0.993
2021.74	0.993
2030.44	0.993
2039.13	0.9935
2047.83	0.993
2056.52	0.994
2065.22	0.994
2073.91	0.994
2082.61	0.9935
2091.31	0.993
2100	0.9935
2108.7	0.993
2117.39	0.991
2126.09	0.99
2134.78	0.989
2143.48	0.987
2152.17	0.987
2160.87	0.986
2169.57	0.985
2178.26	0.984
2186.96	0.983
2195.65	0.981
2204.35	0.98
2213.04	0.979
2221.74	0.98
2230.44	0.978
2239.13	0.976
2247.83	0.973
2256.52	0.971
2265.22	0.966
2273.91	0.961
2282.61	0.96
2291.31	0.9605
2300	0.9645
2308.7	0.971
2317.39	0.973
2326.09	0.98
2334.78	0.978
2343.48	0.976
2352.17	0.9785
2360.87	0.978
2369.57	0.978
2378.26	0.975
2386.96	0.975
2395.65	0.975
2404.35	0.978
2413.04	0.978
2421.74	0.978
2430.44	0.977
2439.13	0.978
2447.83	0.976
2456.52	0.978
2465.22	0.978
2473.91	0.977
2482.61	0.977
2491.31	0.977
2500	0.977
2508.7	0.974
2517.39	0.974
2526.09	0.972
2534.78	0.971
2543.48	0.9705
2552.17	0.968
2560.87	0.967
2569.57	0.965
2578.26	0.964
2586.96	0.963
2595.65	0.959
2604.35	0.9565
2613.04	0.9555
2621.74	0.954
2630.44	0.951
2639.13	0.949
2647.83	0.9455
2656.52	0.944
2665.22	0.942
2673.91	0.944
2682.61	0.944
2691.31	0.9445
2700	0.942
2708.7	0.939
2717.39	0.934
2726.09	0.9335
2734.78	0.94
2743.48	0.9405
2752.17	0.94
2760.87	0.936
2769.57	0.9255
2778.26	0.913
2786.96	0.906
2795.65	0.9
2804.35	0.8835
2813.04	0.8655
2821.74	0.8315
2830.44	0.7457
2839.13	0.595
2847.83	0.4359
2856.52	0.158
2865.22	0.2744
2873.91	0.2775
2882.61	0.4522
2891.31	0.432
2900	0.3546
2908.7	0.2725
2917.39	0.1347
2926.09	0.0455
2934.78	0.052
2943.48	0.1405
2952.17	0.141
2960.87	0.0895
2969.57	0.1628
2978.26	0.46
2986.96	0.6874
2995.65	0.7635
3004.35	0.756
3013.04	0.8005
3021.74	0.8714
3030.44	0.898
3039.13	0.9095
3047.83	0.9225
3056.52	0.932
3065.22	0.939
3073.91	0.941
3082.61	0.943
3091.31	0.945
3100	0.946
3108.7	0.946
3117.39	0.946
3126.09	0.946
3134.78	0.946
3143.48	0.948
3152.17	0.948
3160.87	0.948
3169.57	0.949
3178.26	0.951
3186.96	0.955
3195.65	0.956
3204.35	0.958
3213.04	0.958
3221.74	0.96
3230.44	0.961
3239.13	0.966
3247.83	0.968
3256.52	0.971
3265.22	0.974
3273.91	0.974
3282.61	0.9755
3291.31	0.976
3300	0.976
3308.7	0.975
3317.39	0.976
3326.09	0.978
3334.78	0.978
3343.48	0.978
3352.17	0.978
3360.87	0.978
3369.57	0.978
3378.26	0.978
3386.96	0.976
3395.65	0.978
3404.35	0.978
3413.04	0.976
3421.74	0.976
3430.44	0.976
3439.13	0.976
3447.83	0.976
3456.52	0.976
3465.22	0.976
3473.91	0.976
3482.61	0.976
3491.31	0.976
3500	0.976
3508.7	0.976
3517.39	0.976
3526.09	0.976
3534.78	0.978
3543.48	0.976
3552.17	0.978
3560.87	0.978
3569.57	0.978
3578.26	0.976
3586.96	0.975
3595.65	0.975
3604.35	0.975
3613.04	0.975
3621.74	0.975
3630.44	0.978
3639.13	0.978
3647.83	0.978
3656.52	0.978
3665.22	0.978
3673.91	0.978
3682.61	0.978
3691.31	0.978
3700	0.978
3708.7	0.978
3717.39	0.978
3726.09	0.976
3734.78	0.976
3743.48	0.976
3752.17	0.976
3760.87	0.976
3769.57	0.976
3778.26	0.976
3786.96	0.974
3795.65	0.972
