Infrared Spectrum: HEXANE, 1,6-DIBROMO
Formula: C6 H12 Br2
CAS: 629-03-8
Class: COBLENTZ
Instrument: Not specified, most likely a prism, grating, or hybrid spectrometer.
Sampling: TRANSMISSION
Path length: 0.003 CM
Resolution: 4
Origin: TENNESSEE EASTMAN COMPANY, RESEARCH LABORATORIES
MICROMETERS	TRANSMITTANCE
2.002	0.956
2.04191	0.955
2.08182	0.955
2.12173	0.955
2.16165	0.955
2.20156	0.951
2.24147	0.88
2.28138	0.87
2.32129	0.871
2.3612	0.868
2.40111	0.87
2.44103	0.883
2.48094	0.898
2.52085	0.905
2.56076	0.916
2.60067	0.921
2.64058	0.921
2.68049	0.93
2.72041	0.928
2.76032	0.9
2.80023	0.89
2.84014	0.918
2.88005	0.923
2.91996	0.926
2.95987	0.93
2.99978	0.931
3.0397	0.931
3.07961	0.931
3.11952	0.931
3.15943	0.923
3.19934	0.915
3.23925	0.9
3.27916	0.855
3.31908	0.671
3.35899	0.296
3.3989	0.011
3.43881	0.101
3.47872	0.081
3.51863	0.445
3.55854	0.795
3.59846	0.838
3.63837	0.863
3.67828	0.863
3.71819	0.86
3.7581	0.848
3.79801	0.863
3.83792	0.875
3.87784	0.901
3.91775	0.911
3.95766	0.915
3.99757	0.915
4.03748	0.915
4.07739	0.915
4.1173	0.913
4.15722	0.913
4.19713	0.911
4.23704	0.926
4.27695	0.93
4.31686	0.928
4.35677	0.915
4.39668	0.913
4.4366	0.906
4.47651	0.905
4.51642	0.903
4.55633	0.903
4.59624	0.903
4.63615	0.913
4.67606	0.92
4.71597	0.923
4.75589	0.925
4.7958	0.925
4.83571	0.923
4.87562	0.925
4.91553	0.923
4.95544	0.923
4.99535	0.926
5.03527	0.93
5.07518	0.93
5.11509	0.93
5.155	0.93
5.19491	0.931
5.23482	0.931
5.27473	0.933
5.31465	0.933
5.35456	0.938
5.39447	0.938
5.43438	0.938
5.47429	0.938
5.5142	0.938
5.55411	0.94
5.59403	0.938
5.63394	0.94
5.67385	0.938
5.71376	0.935
5.75367	0.918
5.79358	0.908
5.83349	0.92
5.87341	0.926
5.91332	0.923
5.95323	0.925
5.99314	0.923
6.03305	0.925
6.07296	0.928
6.11287	0.925
6.15279	0.926
6.1927	0.925
6.23261	0.921
6.27252	0.923
6.31243	0.925
6.35234	0.926
6.39225	0.925
6.43216	0.915
6.47208	0.906
6.51199	0.898
6.5519	0.891
6.59181	0.881
6.63172	0.861
6.67163	0.848
6.71154	0.8
6.75146	0.735
6.79137	0.386
6.83128	0.128
6.87119	0.158
6.9111	0.175
6.95101	0.12
6.99092	0.261
7.03084	0.643
7.07075	0.761
7.11066	0.8
7.15057	0.81
7.19048	0.808
7.23039	0.773
7.2703	0.703
7.31022	0.676
7.35013	0.653
7.39004	0.6
7.42995	0.61
7.46986	0.635
7.50977	0.681
7.54968	0.673
7.5896	0.56
7.62951	0.415
7.66942	0.298
7.70933	0.285
7.74924	0.28
7.78915	0.208
7.82906	0.246
7.86898	0.301
7.90889	0.146
7.9488	0.056
7.98871	0.036
8.02862	0.016
8.06853	0.145
8.10844	0.393
8.14835	0.361
8.18827	0.17
8.22818	0.128
8.26809	0.26
8.308	0.421
8.34791	0.575
8.38782	0.606
8.42773	0.683
8.46765	0.743
8.50756	0.745
8.54747	0.758
8.58738	0.778
8.62729	0.801
8.6672	0.803
8.70711	0.803
8.74703	0.801
8.78694	0.803
8.82685	0.81
8.86676	0.813
8.90667	0.806
8.94658	0.798
8.98649	0.795
9.02641	0.793
9.06632	0.795
9.10623	0.796
9.14614	0.803
9.18605	0.796
9.22596	0.775
9.26587	0.76
9.30579	0.755
9.3457	0.728
9.38561	0.7
9.42552	0.695
9.46543	0.693
9.50534	0.693
9.54525	0.683
9.58517	0.668
9.62508	0.631
9.66499	0.58
9.7049	0.571
9.74481	0.646
9.78472	0.696
9.82463	0.71
9.86455	0.711
9.90446	0.72
9.94437	0.733
9.98428	0.751
10.0242	0.768
10.0641	0.778
10.104	0.783
10.1439	0.783
10.1838	0.785
10.2237	0.78
10.2637	0.763
10.3036	0.748
10.3435	0.748
10.3834	0.753
10.4233	0.761
10.4632	0.761
10.5031	0.761
10.543	0.756
10.583	0.755
10.6229	0.756
10.6628	0.758
10.7027	0.758
10.7426	0.758
10.7825	0.751
10.8224	0.735
10.8623	0.718
10.9022	0.713
10.9422	0.713
10.9821	0.71
11.022	0.691
11.0619	0.666
11.1018	0.631
11.1417	0.601
11.1816	0.6
11.2215	0.626
11.2614	0.673
11.3014	0.715
11.3413	0.745
11.3812	0.77
11.4211	0.781
11.461	0.791
11.5009	0.795
11.5408	0.781
11.5807	0.743
11.6206	0.72
11.6606	0.721
11.7005	0.743
11.7404	0.761
11.7803	0.761
11.8202	0.761
11.8601	0.746
11.9	0.72
11.9399	0.715
11.9798	0.718
12.0198	0.731
12.0597	0.731
12.0996	0.72
12.1395	0.71
12.1794	0.72
12.2193	0.735
12.2592	0.738
12.2991	0.738
12.3391	0.73
12.379	0.715
12.4189	0.683
12.4588	0.658
12.4987	0.653
12.5386	0.676
12.5785	0.703
12.6184	0.723
12.6583	0.736
12.6983	0.756
12.7382	0.761
12.7781	0.763
12.818	0.756
12.8579	0.735
12.8978	0.721
12.9377	0.718
12.9776	0.72
13.0175	0.72
13.0575	0.72
13.0974	0.713
13.1373	0.693
13.1772	0.676
13.2171	0.66
13.257	0.65
13.2969	0.638
13.3368	0.63
13.3767	0.62
13.4167	0.6
13.4566	0.555
13.4965	0.495
13.5364	0.445
13.5763	0.371
13.6162	0.308
13.6561	0.243
13.696	0.201
13.736	0.193
13.7759	0.205
13.8158	0.268
13.8557	0.348
13.8956	0.443
13.9355	0.503
13.9754	0.576
14.0153	0.626
14.0552	0.658
14.0952	0.683
14.1351	0.703
14.175	0.72
14.2149	0.728
14.2548	0.733
14.2947	0.74
14.3346	0.741
14.3745	0.745
14.4144	0.746
14.4544	0.746
14.4943	0.745
14.5342	0.746
14.5741	0.745
14.614	0.746
14.6539	0.745
14.6938	0.736
14.7337	0.733
14.7736	0.726
14.8136	0.72
14.8535	0.711
14.8934	0.696
14.9333	0.681
14.9732	0.668
15.0131	0.643
15.053	0.601
15.0929	0.545
15.1328	0.498
15.1728	0.47
15.2127	0.433
15.2526	0.403
15.2925	0.376
15.3324	0.358
15.3723	0.335
15.4122	0.32
15.4521	0.3
15.4921	0.293
15.532	0.286
15.5719	0.285
15.6118	0.286
15.6517	0.288
15.6916	0.291
15.7315	0.315
15.7714	0.343
15.8113	0.373
15.8513	0.403
15.8912	0.43
15.9311	0.455
15.971	0.48
16.0109	0.486
