Infrared Spectrum: N-HEPTYL BROMIDE
Formula: C7 H15 Br
CAS: 629-04-9
State: LIQUID
Class: COBLENTZ
Instrument: Not specified, most likely a prism, grating, or hybrid spectrometer.
Sampling: TRANSMISSION
Path length: 0.0036 CM
Resolution: 4
Origin: CONTINENTAL OIL CO. (HAROLD F. SMITH)
MICROMETERS	TRANSMITTANCE
12.05	0.902
12.0872	0.885
12.1244	0.874
12.1616	0.871
12.1987	0.852
12.2359	0.837
12.2731	0.844
12.3103	0.869
12.3475	0.9
12.3847	0.914
12.4218	0.93
12.459	0.93
12.4962	0.933
12.5334	0.931
12.5706	0.931
12.6078	0.919
12.6449	0.891
12.6821	0.863
12.7193	0.82
12.7565	0.77
12.7937	0.71
12.8309	0.7
12.868	0.736
12.9052	0.781
12.9424	0.809
12.9796	0.823
13.0168	0.817
13.054	0.813
13.0912	0.801
13.1283	0.787
13.1655	0.773
13.2027	0.761
13.2399	0.741
13.2771	0.728
13.3143	0.722
13.3514	0.719
13.3886	0.708
13.4258	0.682
13.463	0.669
13.5002	0.654
13.5374	0.648
13.5745	0.638
13.6117	0.629
13.6489	0.621
13.6861	0.612
13.7233	0.598
13.7605	0.53
13.7976	0.44
13.8348	0.376
13.872	0.272
13.9092	0.234
13.9464	0.248
13.9836	0.296
14.0208	0.432
14.0579	0.5
14.0951	0.576
14.1323	0.651
14.1695	0.703
14.2067	0.741
14.2439	0.775
14.281	0.812
14.3182	0.841
14.3554	0.86
14.3926	0.88
14.4298	0.893
14.467	0.899
14.5041	0.9
14.5413	0.908
14.5785	0.91
14.6157	0.914
14.6529	0.919
14.6901	0.914
14.7272	0.913
14.7644	0.914
14.8016	0.911
14.8388	0.91
14.876	0.899
14.9132	0.9
14.9504	0.891
14.9875	0.889
15.0247	0.882
15.0619	0.877
15.0991	0.849
15.1363	0.826
15.1735	0.8
15.2106	0.768
15.2478	0.72
15.285	0.663
15.3222	0.59
15.3594	0.491
15.3966	0.41
15.4337	0.333
15.4709	0.252
15.5081	0.209
15.5453	0.182
15.5825	0.179
15.6197	0.193
15.6569	0.224
15.694	0.28
15.7312	0.331
15.7684	0.446
15.8056	0.516
15.8428	0.578
15.88	0.638
15.9171	0.688
15.9543	0.728
15.9915	0.75
16.0287	0.772
16.0659	0.804
16.1031	0.824
16.1402	0.84
16.1774	0.852
16.2146	0.866
16.2518	0.869
16.289	0.879
16.3262	0.882
16.3633	0.889
16.4005	0.888
16.4377	0.891
16.4749	0.888
16.5121	0.889
16.5493	0.894
16.5865	0.893
16.6236	0.893
16.6608	0.889
16.698	0.891
16.7352	0.893
16.7724	0.891
16.8096	0.886
16.8467	0.88
16.8839	0.885
16.9211	0.88
16.9583	0.88
16.9955	0.882
17.0327	0.872
17.0698	0.869
17.107	0.854
17.1442	0.841
17.1814	0.834
17.2186	0.817
17.2558	0.798
17.2929	0.779
17.3301	0.742
17.3673	0.71
17.4045	0.663
17.4417	0.612
17.4789	0.559
17.5161	0.508
17.5532	0.449
17.5904	0.401
17.6276	0.37
17.6648	0.328
17.702	0.279
17.7392	0.254
17.7763	0.226
17.8135	0.221
17.8507	0.232
17.8879	0.249
17.9251	0.291
17.9623	0.342
17.9994	0.429
18.0366	0.485
18.0738	0.534
18.111	0.613
18.1482	0.66
18.1854	0.689
18.2225	0.722
18.2597	0.748
18.2969	0.765
18.3341	0.776
18.3713	0.793
18.4085	0.813
18.4457	0.824
18.4828	0.837
18.52	0.846
18.5572	0.844
18.5944	0.852
18.6316	0.866
18.6688	0.869
18.7059	0.871
18.7431	0.877
18.7803	0.883
18.8175	0.88
18.8547	0.877
18.8919	0.88
18.929	0.882
18.9662	0.886
19.0034	0.885
19.0406	0.88
19.0778	0.885
19.115	0.883
19.1521	0.883
19.1893	0.88
19.2265	0.886
19.2637	0.882
19.3009	0.883
19.3381	0.882
19.3753	0.88
19.4124	0.886
19.4496	0.882
19.4868	0.886
19.524	0.893
19.5612	0.891
19.5984	0.896
19.6355	0.889
19.6727	0.914
19.7099	0.905
19.7471	0.906
19.7843	0.917
19.8215	0.91
19.8586	0.897
19.8958	0.903
19.933	0.913
19.9702	0.919
20.0074	0.911
20.0446	0.914
20.0817	0.903
20.1189	0.91
20.1561	0.903
20.1933	0.902
20.2305	0.894
20.2677	0.888
20.3049	0.891
20.342	0.903
20.3792	0.905
20.4164	0.916
20.4536	0.917
20.4908	0.92
20.528	0.911
20.5651	0.913
20.6023	0.913
20.6395	0.919
20.6767	0.922
20.7139	0.928
20.7511	0.93
20.7882	0.941
20.8254	0.931
20.8626	0.933
20.8998	0.934
20.937	0.933
20.9742	0.942
21.0113	0.941
21.0485	0.941
21.0857	0.941
21.1229	0.934
21.1601	0.933
21.1973	0.931
21.2345	0.933
21.2716	0.937
21.3088	0.936
21.346	0.934
21.3832	0.941
21.4204	0.937
21.4576	0.944
21.4947	0.942
21.5319	0.939
21.5691	0.944
21.6063	0.947
21.6435	0.95
21.6807	0.95
21.7178	0.947
21.755	0.95
21.7922	0.956
21.8294	0.953
21.8666	0.948
21.9038	0.951
21.9409	0.953
21.9781	0.953
22.0153	0.962
22.0525	0.951
22.0897	0.953
22.1269	0.955
22.1641	0.956
22.2012	0.951
22.2384	0.955
22.2756	0.956
22.3128	0.958
22.35	0.955
22.3872	0.956
22.4243	0.951
22.4615	0.955
22.4987	0.951
22.5359	0.947
22.5731	0.951
22.6103	0.955
22.6474	0.951
22.6846	0.953
22.7218	0.944
22.759	0.945
22.7962	0.944
22.8334	0.939
22.8706	0.941
22.9077	0.933
22.9449	0.942
22.9821	0.936
23.0193	0.939
23.0565	0.95
23.0937	0.936
23.1308	0.937
23.168	0.937
23.2052	0.944
23.2424	0.95
23.2796	0.945
23.3168	0.941
23.3539	0.941
23.3911	0.936
23.4283	0.941
23.4655	0.934
23.5027	0.933
23.5399	0.93
23.577	0.92
23.6142	0.922
23.6514	0.922
23.6886	0.922
23.7258	0.917
23.763	0.913
23.8002	0.902
23.8373	0.894
23.8745	0.883
23.9117	0.879
23.9489	0.874
23.9861	0.877
24.0233	0.879
24.0604	0.874
24.0976	0.874
24.1348	0.875
24.172	0.868
24.2092	0.866
24.2464	0.865
24.2835	0.863
24.3207	0.866
24.3579	0.868
24.3951	0.865
24.4323	0.86
24.4695	0.86
24.5066	0.855
24.5438	0.852
24.581	0.851
24.6182	0.849
24.6554	0.84
24.6926	0.841
24.7298	0.834
24.7669	0.835
24.8041	0.823
24.8413	0.813
24.8785	0.818
24.9157	0.801
24.9529	0.8
24.99	0.792
25.0272	0.784
25.0644	0.772
25.1016	0.761
25.1388	0.751
25.176	0.748
25.2131	0.755
25.2503	0.761
25.2875	0.756
25.3247	0.744
25.3619	0.748
25.3991	0.756
25.4362	0.755
25.4734	0.741
25.5106	0.748
25.5478	0.739
25.585	0.739
25.6222	0.741
25.6594	0.733
25.6965	0.734
25.7337	0.727
25.7709	0.725
25.8081	0.717
25.8453	0.717
25.8825	0.719
25.9196	0.711
25.9568	0.705
25.994	0.7
