Infrared Spectrum: DIBROMO MALONIC ACID, DIETHYL ESTER
Formula: C7 H10 Br2 O4
CAS: 631-22-1
Boiling point: 103-106 C AT 4 mmHg
Class: COBLENTZ
Instrument: Not specified, most likely a prism, grating, or hybrid spectrometer.
Sampling: TRANSMISSION
Path length: SMEAR
Resolution: 4
Origin: TENNESSEE EASTMAN COMPANY, RESEARCH LABORATORIES
MICROMETERS	TRANSMITTANCE
2.253	0.991
2.29402	0.991
2.33503	0.991
2.37605	0.993
2.41706	0.994
2.45808	0.998
2.49909	0.998
2.54011	1
2.58112	1.001
2.62214	1
2.66315	0.996
2.70417	0.991
2.74518	0.982
2.7862	0.972
2.82721	0.958
2.86823	0.94
2.90924	0.943
2.95026	0.948
2.99127	0.948
3.03229	0.952
3.0733	0.95
3.11432	0.952
3.15533	0.948
3.19635	0.945
3.23736	0.934
3.27838	0.907
3.31939	0.602
3.36041	0.71
3.40142	0.736
3.44244	0.811
3.48345	0.869
3.52447	0.9
3.56548	0.922
3.6065	0.926
3.64751	0.931
3.68853	0.94
3.72954	0.946
3.77056	0.952
3.81157	0.953
3.85259	0.953
3.8936	0.957
3.93462	0.957
3.97563	0.953
4.01665	0.948
4.05766	0.934
4.09868	0.933
4.13969	0.933
4.18071	0.931
4.22172	0.931
4.26274	0.926
4.30375	0.921
4.34477	0.938
4.38578	0.946
4.4268	0.95
4.46781	0.952
4.50883	0.952
4.54984	0.953
4.59086	0.957
4.63187	0.96
4.67289	0.96
4.7139	0.957
4.75492	0.955
4.79593	0.953
4.83695	0.96
4.87796	0.96
4.91898	0.962
4.95999	0.965
5.00101	0.974
5.04202	0.974
5.08304	0.969
5.12405	0.969
5.16507	0.969
5.20608	0.965
5.2471	0.955
5.28811	0.943
5.32913	0.94
5.37014	0.934
5.41116	0.924
5.45217	0.907
5.49319	0.883
5.5342	0.851
5.57522	0.794
5.61623	0.542
5.65725	0.078
5.69826	0.09
5.73928	0.155
5.78029	0.41
5.82131	0.654
5.86232	0.738
5.90334	0.789
5.94435	0.82
5.98537	0.842
6.02638	0.863
6.0674	0.864
6.10841	0.883
6.14943	0.888
6.19044	0.893
6.23146	0.904
6.27247	0.917
6.31349	0.922
6.3545	0.928
6.39552	0.919
6.43653	0.917
6.47755	0.907
6.51856	0.914
6.55958	0.898
6.60059	0.895
6.64161	0.888
6.68262	0.857
6.72364	0.755
6.76465	0.597
6.80567	0.57
6.84668	0.623
6.8877	0.558
6.92871	0.696
6.96973	0.806
7.01074	0.82
7.05176	0.823
7.09277	0.797
7.13379	0.674
7.1748	0.601
7.21582	0.69
7.25683	0.69
7.29785	0.472
7.33886	0.64
7.37988	0.806
7.42089	0.82
7.46191	0.809
7.50292	0.779
7.54394	0.724
7.58495	0.642
7.62597	0.517
7.66698	0.383
7.708	0.327
7.74901	0.368
7.79003	0.344
7.83104	0.267
7.87206	0.195
7.91307	0.13
7.95409	0.083
7.9951	0.065
8.03612	0.066
8.07713	0.095
8.11815	0.148
8.15916	0.196
8.20018	0.222
8.24119	0.2
8.28221	0.169
8.32322	0.207
8.36424	0.345
8.40525	0.45
8.44627	0.537
8.48728	0.544
8.5283	0.52
8.56931	0.532
8.61033	0.537
8.65134	0.551
8.69236	0.582
8.73337	0.613
8.77439	0.648
8.8154	0.679
8.85642	0.698
8.89743	0.695
8.93845	0.65
8.97946	0.626
9.02048	0.621
9.06149	0.551
9.10251	0.457
9.14352	0.525
9.18454	0.64
9.22555	0.686
9.26657	0.7
9.30758	0.7
9.3486	0.691
9.38961	0.664
9.43063	0.621
9.47164	0.563
9.51266	0.464
9.55367	0.335
9.59469	0.232
9.6357	0.179
9.67672	0.167
9.71773	0.164
9.75875	0.178
9.79976	0.246
9.84078	0.34
9.88179	0.445
9.92281	0.535
9.96382	0.599
10.0048	0.64
10.0459	0.648
10.0869	0.648
10.1279	0.648
10.1689	0.66
10.2099	0.681
10.2509	0.696
10.2919	0.72
10.333	0.736
10.374	0.743
10.415	0.743
10.456	0.738
10.497	0.727
10.538	0.727
10.579	0.731
10.6201	0.736
10.6611	0.748
10.7021	0.756
10.7431	0.77
10.7841	0.787
10.8251	0.799
10.8662	0.813
10.9072	0.82
10.9482	0.83
10.9892	0.84
11.0302	0.844
11.0712	0.847
11.1122	0.851
11.1533	0.849
11.1943	0.835
11.2353	0.799
11.2763	0.734
11.3173	0.636
11.3583	0.527
11.3993	0.472
11.4404	0.491
11.4814	0.556
11.5224	0.592
11.5634	0.575
11.6044	0.554
11.6454	0.549
11.6865	0.631
11.7275	0.72
11.7685	0.78
11.8095	0.816
11.8505	0.83
11.8915	0.837
11.9325	0.839
11.9736	0.82
12.0146	0.78
12.0556	0.732
12.0966	0.695
12.1376	0.662
12.1786	0.643
12.2196	0.63
12.2607	0.633
12.3017	0.647
12.3427	0.647
12.3837	0.64
12.4247	0.64
12.4657	0.662
12.5068	0.714
12.5478	0.758
12.5888	0.787
12.6298	0.803
12.6708	0.815
12.7118	0.82
12.7528	0.82
12.7939	0.815
12.8349	0.813
12.8759	0.816
12.9169	0.823
12.9579	0.828
12.9989	0.833
13.0399	0.828
13.081	0.821
13.122	0.813
13.163	0.799
13.204	0.782
13.245	0.753
13.286	0.729
13.3271	0.719
13.3681	0.712
13.4091	0.71
13.4501	0.71
13.4911	0.714
13.5321	0.72
13.5731	0.727
13.6142	0.738
13.6552	0.748
13.6962	0.758
13.7372	0.77
13.7782	0.777
13.8192	0.777
13.8602	0.78
13.9013	0.78
13.9423	0.78
13.9833	0.784
14.0243	0.785
14.0653	0.784
14.1063	0.78
14.1474	0.777
14.1884	0.772
14.2294	0.765
14.2704	0.758
14.3114	0.75
14.3524	0.738
14.3934	0.724
14.4345	0.708
14.4755	0.69
14.5165	0.667
14.5575	0.642
14.5985	0.63
14.6395	0.611
14.6805	0.597
14.7216	0.595
14.7626	0.587
14.8036	0.587
14.8446	0.589
14.8856	0.59
14.9266	0.594
14.9677	0.599
15.0087	0.606
15.0497	0.613
15.0907	0.614
15.1317	0.614
15.1727	0.614
15.2137	0.607
15.2548	0.604
15.2958	0.599
15.3368	0.594
15.3778	0.585
15.4188	0.577
15.4598	0.568
15.5008	0.556
15.5419	0.544
15.5829	0.53
15.6239	0.52
15.6649	0.51
15.7059	0.503
15.7469	0.496
15.788	0.496
15.829	0.496
15.87	0.501
15.911	0.508
15.952	0.515
15.993	0.523
