Infrared Spectrum: BENZENE, 1,2,3,4-TETRACHLORO-
Formula: C6 H2 Cl4
CAS: 634-66-2
State: SOLUTION (10% IN CCl4 FOR 3800-1333, 10% IN CS2 FOR 1333-450 CM^-^1) VS. SOLVENT
Melting point: 47 C
Boiling point: 254 C
Class: COBLENTZ III
Instrument: DOW KBr FOREPRISM-GRATING
Instrument parameters: BLAZED AT 3.5, 12.0, 20.0 MICRON, CHANGED AT 5.0, 7.5, 14.9 MICRON
Sampling: TRANSMISSION
Path length: 0.011, 0.011 CM
Resolution: 4
Origin: DOW CHEMICAL COMPANY
1/CM	TRANSMITTANCE
450.476	0.976
459.047	0.982
467.619	0.98
476.19	0.955
484.762	0.9698
493.333	0.989
501.905	0.974
510.476	0.877
519.048	0.847
527.619	1.005
536.191	1.019
544.762	1.008
553.333	0.8842
561.905	1.002
570.476	1.008
579.048	1.005
587.619	1.004
596.191	0.979
604.762	0.6391
613.334	0.85
621.905	0.974
630.477	0.988
639.048	0.982
647.619	0.979
656.191	0.986
664.762	0.988
673.334	0.994
681.905	0.994
690.477	0.994
699.048	0.995
707.62	0.998
716.191	0.997
724.763	0.997
733.334	0.995
741.905	0.97
750.477	0.949
759.048	0.939
767.62	0.785
776.191	0.059
784.763	0.892
793.334	0.92
801.906	0.7014
810.477	0.1295
819.048	0.8499
827.62	0.8041
836.191	0.1501
844.763	0.776
853.334	0.928
861.906	0.894
870.477	0.958
879.049	0.952
887.62	0.982
896.192	0.983
904.763	0.983
913.334	0.979
921.906	0.976
930.477	0.965
939.049	0.954
947.62	0.961
956.192	0.97
964.763	0.971
973.335	0.977
981.906	0.977
990.478	0.98
999.049	0.983
1007.62	0.976
1016.19	0.965
1024.76	0.979
1033.33	0.982
1041.91	0.98
1050.48	0.97
1059.05	0.94
1067.62	0.911
1076.19	0.4025
1084.76	0.955
1093.34	0.979
1101.91	0.983
1110.48	0.974
1119.05	0.961
1127.62	0.946
1136.19	0.949
1144.76	0.964
1153.34	0.945
1161.91	0.835
1170.48	0.664
1179.05	0.044
1187.62	0.538
1196.19	0.776
1204.76	0.936
1213.34	0.89
1221.91	0.979
1230.48	0.989
1239.05	0.98
1247.62	0.952
1256.19	0.968
1264.76	0.965
1273.34	0.983
1281.91	0.979
1290.48	0.983
1299.05	0.983
1307.62	0.985
1316.19	0.976
1324.76	0.965
1333.34	0.933
1341.91	0.758
1350.48	0.625
1359.05	0.158
1367.62	0.204
1376.19	0.841
1384.76	0.874
1393.34	0.897
1401.91	0.903
1410.48	0.843
1419.05	0.4515
1427.62	0.005
1436.19	0.59
1444.76	0.513
1453.34	0.779
1461.91	0.954
1470.48	0.965
1479.05	0.971
1487.62	0.965
1496.19	0.923
1504.76	0.968
1513.34	0.974
1521.91	0.979
1530.48	0.977
1539.05	0.97
1547.62	0.92
1556.19	0.8439
1564.76	0.955
1573.34	0.965
1581.91	0.977
1590.48	0.989
1599.05	0.983
1607.62	0.976
1616.19	0.943
1624.77	0.968
1633.34	0.991
1641.91	1.004
1650.48	0.998
1659.05	0.982
1667.62	0.979
1676.19	0.979
1684.77	0.973
1693.34	0.968
1701.91	0.976
1710.48	0.98
1719.05	0.979
1727.62	0.973
1736.19	0.963
1744.77	0.949
1753.34	0.963
1761.91	0.977
1770.48	0.982
1779.05	0.977
1787.62	0.977
1796.19	0.98
1804.77	0.98
1813.34	0.98
1821.91	0.979
1830.48	0.979
1839.05	0.977
1847.62	0.974
1856.19	0.97
1864.77	0.973
1873.34	0.957
1881.91	0.883
1890.48	0.945
1899.05	0.976
1907.62	0.976
1916.19	0.974
1924.77	0.979
1933.34	0.974
1941.91	0.97
1950.48	0.973
1959.05	0.977
1967.62	0.979
1976.19	0.982
1984.77	0.986
1993.34	0.989
2001.91	0.992
2010.48	0.994
2019.05	0.9952
2027.62	0.997
2036.19	0.9971
2044.77	0.998
2053.34	0.9984
2061.91	1
2070.48	1
2079.05	1
2087.62	1
2096.2	1
2104.77	0.998
2113.34	0.998
2121.91	0.998
2130.48	0.997
2139.05	0.997
2147.62	0.995
2156.2	0.995
2164.77	0.994
2173.34	0.992
2181.91	0.992
2190.48	0.992
2199.05	0.9903
2207.62	0.988
2216.2	0.992
2224.77	0.995
2233.34	0.997
2241.91	0.997
2250.48	0.994
2259.05	0.991
2267.62	0.9916
2276.2	0.994
2284.77	0.9926
2293.34	0.989
2301.91	0.988
2310.48	0.9857
2319.05	0.985
2327.62	0.985
2336.2	0.983
2344.77	0.9825
2353.34	0.98
2361.91	0.98
2370.48	0.9821
2379.05	0.9873
2387.62	0.992
2396.2	0.992
2404.77	0.992
2413.34	0.9912
2421.91	0.991
2430.48	0.989
2439.05	0.989
2447.62	0.989
2456.2	0.989
2464.77	0.988
2473.34	0.988
2481.91	0.985
2490.48	0.9808
2499.05	0.9804
2507.62	0.9903
2516.2	0.991
2524.77	0.991
2533.34	0.991
2541.91	0.991
2550.48	0.991
2559.05	0.991
2567.63	0.991
2576.2	0.991
2584.77	0.99
2593.34	0.989
2601.91	0.986
2610.48	0.986
2619.05	0.986
2627.63	0.986
2636.2	0.989
2644.77	0.9913
2653.34	0.992
2661.91	0.991
2670.48	0.991
2679.05	0.986
2687.63	0.991
2696.2	0.992
2704.77	0.992
2713.34	0.991
2721.91	0.989
2730.48	0.989
2739.05	0.991
2747.63	0.991
2756.2	0.991
2764.77	0.989
2773.34	0.989
2781.91	0.9835
2790.48	0.9721
2799.05	0.9878
2807.63	0.9915
2816.2	0.992
2824.77	0.995
2833.34	0.997
2841.91	0.9976
2850.48	0.998
2859.05	0.998
2867.63	0.998
2876.2	0.998
2884.77	1
2893.34	1
2901.91	1
2910.48	1
2919.05	1.001
2927.63	1.002
2936.2	1.001
2944.77	0.998
2953.34	1
2961.91	0.9979
2970.48	0.9927
2979.05	0.9912
2987.63	0.995
2996.2	0.995
3004.77	0.994
3013.34	0.992
3021.91	0.994
3030.48	0.9974
3039.05	0.997
3047.63	0.994
3056.2	0.991
3064.77	0.9824
3073.34	0.9627
3081.91	0.9685
3090.48	0.9768
3099.06	0.9781
3107.63	0.983
3116.2	0.9792
3124.77	0.976
3133.34	0.9826
3141.91	0.991
3150.48	0.9949
3159.06	0.997
3167.63	0.998
3176.2	1
3184.77	1.0011
3193.34	1.002
3201.91	1.004
3210.48	1.004
3219.06	1.004
3227.63	1.004
3236.2	1.004
3244.77	1.005
3253.34	1.007
3261.91	1.008
3270.48	1.008
3279.06	1.01
3287.63	1.011
3296.2	1.011
3304.77	1.013
3313.34	1.014
3321.91	1.011
3330.48	1.013
3339.06	1.014
3347.63	1.016
3356.2	1.0168
3364.77	1.017
3373.34	1.017
3381.91	1.017
3390.48	1.017
3399.06	1.017
3407.63	1.017
3416.2	1.0164
3424.77	1.016
3433.34	1.013
3441.91	1.011
3450.48	1.011
3459.06	1.01
3467.63	1.01
3476.2	1.007
3484.77	1.005
3493.34	1.005
3501.91	1.0041
3510.48	1.0031
3519.06	1.001
3527.63	1.001
3536.2	1
3544.77	0.998
3553.34	0.998
3561.91	0.998
3570.49	0.998
3579.06	0.998
3587.63	1
3596.2	1
3604.77	0.998
3613.34	0.998
3621.91	0.998
3630.49	0.997
3639.06	0.997
3647.63	0.997
3656.2	0.997
3664.77	0.997
3673.34	0.997
3681.91	0.998
3690.49	1
3699.06	0.998
3707.63	0.9954
3716.2	0.995
3724.77	0.997
3733.34	0.997
3741.91	0.997
3750.49	0.997
3759.06	0.997
3767.63	0.997
3776.2	0.998
3784.77	0.9993
3793.34	1
