Infrared Spectrum: tert-Butyl Ethyl Ether
Formula: ( C H3)3 C O C2 H5
CAS: 637-92-3
State: gas
Melting point: -94 C
Boiling point: 73.1 C
Class: IUPAC A
Instrument: IFS66V (Bruker)
Instrument parameters: KBr Beam splitter; MCT Detector; Multipass cell
Sampling: 1 L/min Flow
Resolution: 0.2410
Temperature: 23 C
Pressure: 101.3 kPa
Origin: NIST, Anayltical Chemistry Division, 301-975-3108
cm-1	(micromol/mol)-1m-1 (base 10)
575.048	4.31422e-07
583.606	-2.90377e-07
592.163	-1.95349e-07
600.721	-4.56777e-07
609.279	1.45582e-07
617.836	-1.22365e-07
626.394	1.58122e-07
634.951	2.99031e-07
643.509	9.04251e-08
652.067	1.71011e-07
660.624	2.34903e-08
669.182	1.60536e-07
677.74	1.17379e-08
686.297	4.84196e-07
694.855	4.46847e-07
703.412	8.18297e-07
711.97	1.61074e-06
720.528	4.49214e-06
729.085	1.25738e-05
737.643	2.31162e-05
746.201	1.96645e-05
754.758	7.87146e-06
763.316	2.44225e-06
771.873	1.75003e-06
780.431	1.63661e-06
788.989	1.49743e-06
797.546	1.60829e-06
806.104	2.0209e-06
814.662	2.88035e-06
823.219	4.99851e-06
831.777	1.53586e-05
840.334	4.6668e-05
848.892	7.16346e-05
857.45	5.35452e-05
866.007	1.36845e-05
874.565	3.68151e-06
883.123	2.4135e-06
891.68	3.01039e-06
900.238	4.77883e-06
908.795	8.76602e-06
917.353	9.90407e-06
925.911	8.72744e-06
934.468	1.24845e-05
943.026	3.35654e-05
951.584	9.21961e-05
960.141	0.000122858
968.699	8.63853e-05
977.256	1.37609e-05
985.814	5.36381e-06
994.372	4.53509e-06
1002.93	6.83339e-06
1011.49	1.44892e-05
1020.04	2.91647e-05
1028.6	2.71844e-05
1037.16	2.07202e-05
1045.72	2.35543e-05
1054.28	4.81321e-05
1062.83	0.000129662
1071.39	0.000348359
1079.95	0.00052998
1088.51	0.000427005
1097.06	0.000124794
1105.62	0.000142199
1114.18	0.000309638
1122.74	0.000363012
1131.29	0.000217561
1139.85	6.25869e-05
1148.41	5.27729e-05
1156.97	6.41031e-05
1165.52	6.32779e-05
1174.08	5.97631e-05
1182.64	7.8067e-05
1191.2	0.000202571
1199.75	0.000483971
1208.31	0.000651041
1216.87	0.000404013
1225.43	0.000152359
1233.99	0.000153492
1242.54	0.000168361
1251.1	0.000154332
1259.66	0.00012794
1268.22	8.1883e-05
1276.77	4.14258e-05
1285.33	2.39172e-05
1293.89	1.76198e-05
1302.45	1.3969e-05
1311	1.01201e-05
1319.56	9.01285e-06
1328.12	8.04407e-06
1336.68	8.51082e-06
1345.23	2.29318e-05
1353.79	0.000114371
1362.35	0.000259846
1370.91	0.000263664
1379.46	0.000142705
1388.02	0.000181369
1396.58	0.000203654
1405.14	0.000121141
1413.7	3.1135e-05
1422.25	2.08291e-05
1430.81	2.34442e-05
1439.37	3.9467e-05
1447.93	5.91041e-05
1456.48	6.8386e-05
1465.04	7.63801e-05
1473.6	6.93808e-05
1482.16	6.13846e-05
1490.71	5.90851e-05
1499.27	4.04721e-05
1507.83	1.22718e-05
1516.39	5.14192e-06
1524.94	3.36572e-06
1533.5	2.97129e-06
1542.06	4.83529e-06
1550.62	2.4811e-06
1559.18	2.8702e-06
1567.73	2.61121e-06
1576.29	6.30524e-06
1584.85	3.13983e-06
1593.41	3.01866e-06
1601.96	2.33841e-06
1610.52	1.67564e-06
1619.08	1.56179e-06
1627.64	2.04687e-06
1636.19	2.47557e-06
1644.75	2.84376e-06
1653.31	7.74552e-06
1661.87	2.70706e-06
1670.42	2.52693e-06
1678.98	2.77015e-06
1687.54	3.62683e-06
1696.1	7.29713e-06
1704.65	4.9971e-06
1713.21	3.08544e-06
1721.77	1.99941e-06
1730.33	2.18164e-06
1738.89	2.72719e-06
1747.44	3.47299e-06
1756	3.84917e-06
1764.56	3.05258e-06
1773.12	2.23993e-06
1781.67	1.96867e-06
1790.23	3.32762e-06
1798.79	6.28921e-06
1807.35	8.8084e-06
1815.9	8.26565e-06
1824.46	4.74703e-06
1833.02	3.2738e-06
1841.58	2.05328e-06
1850.13	2.02423e-06
1858.69	2.20717e-06
1867.25	2.04354e-06
1875.81	1.65649e-06
1884.36	1.61527e-06
1892.92	1.99076e-06
1901.48	3.04586e-06
1910.04	5.46509e-06
1918.6	9.01351e-06
1927.15	1.1539e-05
1935.71	9.29833e-06
1944.27	4.25279e-06
1952.83	2.85733e-06
1961.38	3.73048e-06
1969.94	4.09907e-06
1978.5	3.10125e-06
1987.06	1.61816e-06
1995.61	1.0757e-06
2004.17	9.21523e-07
2012.73	9.52187e-07
2021.29	1.09417e-06
2029.84	1.43004e-06
2038.4	2.13126e-06
2046.96	3.07413e-06
2055.52	3.30417e-06
2064.08	2.02677e-06
2072.63	1.06794e-06
2081.19	1.16658e-06
2089.75	1.6129e-06
2098.31	2.19942e-06
2106.86	2.65017e-06
2115.42	2.14824e-06
2123.98	1.63942e-06
2132.54	1.73872e-06
2141.09	1.91458e-06
2149.65	2.03618e-06
2158.21	2.4609e-06
2166.77	2.84169e-06
2175.32	3.12483e-06
2183.88	3.82536e-06
2192.44	5.00915e-06
2201	4.99168e-06
2209.55	3.53563e-06
2218.11	2.15133e-06
2226.67	2.0273e-06
2235.23	2.46872e-06
2243.79	2.51685e-06
2252.34	2.15315e-06
2260.9	2.42355e-06
2269.46	3.45608e-06
2278.02	3.84541e-06
2286.57	3.14029e-06
2295.13	2.14632e-06
2303.69	1.47833e-06
2312.25	1.62376e-06
2320.8	2.0289e-06
2329.36	2.44031e-06
2337.92	2.78499e-06
2346.48	2.44048e-06
2355.03	1.96945e-06
2363.59	1.57937e-06
2372.15	1.80305e-06
2380.71	2.09273e-06
2389.26	2.04876e-06
2397.82	1.75426e-06
2406.38	1.70811e-06
2414.94	1.65673e-06
2423.5	1.54469e-06
2432.05	1.92458e-06
2440.61	2.54995e-06
2449.17	2.6476e-06
2457.73	2.18447e-06
2466.28	1.70176e-06
2474.84	1.5467e-06
2483.4	1.25732e-06
2491.96	1.1343e-06
2500.51	9.0654e-07
2509.07	7.64015e-07
2517.63	8.24476e-07
2526.19	7.62036e-07
2534.74	7.9896e-07
2543.3	9.5811e-07
2551.86	1.2601e-06
2560.42	1.5297e-06
2568.98	1.83304e-06
2577.53	1.95222e-06
2586.09	2.28238e-06
2594.65	3.12396e-06
2603.21	4.70481e-06
2611.76	6.88923e-06
2620.32	9.06566e-06
2628.88	9.49477e-06
2637.44	7.36688e-06
2645.99	5.31817e-06
2654.55	4.75911e-06
2663.11	4.80391e-06
2671.67	4.6564e-06
2680.22	4.5551e-06
2688.78	4.61628e-06
2697.34	5.06698e-06
2705.9	7.27972e-06
2714.45	1.27438e-05
2723.01	1.75934e-05
2731.57	2.01537e-05
2740.13	1.94341e-05
2748.69	1.64981e-05
2757.24	1.40208e-05
2765.8	1.55775e-05
2774.36	1.82147e-05
2782.92	1.806e-05
2791.47	1.61642e-05
2800.03	1.6077e-05
2808.59	2.00639e-05
2817.15	2.60889e-05
2825.7	3.25392e-05
2834.26	3.98592e-05
2842.82	5.13372e-05
2851.38	6.61511e-05
2859.93	9.23331e-05
2868.49	0.000156505
2877.05	0.000254924
2885.61	0.00033121
2894.16	0.000349825
2902.72	0.00033047
2911.28	0.000275595
2919.84	0.000224379
2928.4	0.000228537
2936.95	0.000295862
2945.51	0.000316313
2954.07	0.000252614
2962.63	0.000281809
2971.18	0.000679229
2979.74	0.00125572
2988.3	0.00114014
2996.86	0.000451505
3005.41	9.04508e-05
3013.97	3.32395e-05
3022.53	3.03402e-05
3031.09	2.5688e-05
3039.64	1.62536e-05
3048.2	9.16017e-06
3056.76	6.3914e-06
3065.32	6.17205e-06
3073.88	6.73528e-06
3082.43	7.50455e-06
3090.99	7.49749e-06
3099.55	6.17224e-06
3108.11	4.89876e-06
3116.66	4.1848e-06
3125.22	4.04088e-06
3133.78	4.01751e-06
3142.34	4.07749e-06
3150.89	4.57694e-06
3159.45	5.45426e-06
3168.01	7.07794e-06
3176.57	8.72211e-06
3185.12	9.29914e-06
3193.68	8.30249e-06
3202.24	7.4496e-06
3210.8	7.87331e-06
3219.35	8.47834e-06
3227.91	9.2815e-06
3236.47	8.79054e-06
3245.03	7.00353e-06
3253.59	4.4155e-06
3262.14	2.6384e-06
3270.7	1.89086e-06
3279.26	1.70351e-06
3287.82	1.58515e-06
3296.37	1.71061e-06
3304.93	2.35055e-06
3313.49	3.56655e-06
3322.05	3.69842e-06
3330.6	3.18932e-06
3339.16	2.25034e-06
3347.72	1.30525e-06
3356.28	7.71842e-07
3364.83	6.34806e-07
3373.39	7.40076e-07
3381.95	6.9849e-07
3390.51	7.09182e-07
3399.06	7.92599e-07
3407.62	1.03187e-06
3416.18	1.57607e-06
3424.74	2.54911e-06
3433.3	3.19862e-06
3441.85	2.5271e-06
3450.41	1.57111e-06
3458.97	9.19749e-07
3467.53	7.94922e-07
3476.08	9.35492e-07
3484.64	1.22685e-06
3493.2	1.00493e-06
3501.76	5.6945e-07
3510.31	1.57951e-07
3518.87	1.41338e-07
3527.43	8.91591e-08
3535.99	7.17951e-08
3544.54	3.96192e-08
3553.1	4.19475e-08
3561.66	6.38607e-08
3570.22	4.83012e-08
3578.78	-4.63185e-08
3587.33	8.47099e-08
3595.89	3.51245e-08
3604.45	-6.73532e-08
3613.01	1.54681e-07
3621.56	1.88395e-07
3630.12	2.92872e-07
3638.68	2.10245e-07
3647.24	8.7651e-07
3655.79	3.70532e-07
3664.35	2.8696e-07
3672.91	3.33452e-07
3681.47	3.5771e-07
3690.02	6.36374e-07
3698.58	8.00162e-07
3707.14	1.29015e-06
3715.7	1.78477e-06
3724.25	1.68065e-06
3732.81	9.8425e-07
3741.37	9.81174e-07
3749.93	9.30403e-07
3758.49	4.87567e-07
3767.04	5.15977e-07
3775.6	6.32927e-07
3784.16	7.46096e-07
3792.72	8.83502e-07
3801.27	3.1565e-06
3809.83	1.04624e-06
3818.39	1.15626e-06
3826.95	1.51859e-06
3835.5	1.41022e-06
3844.06	1.40121e-06
3852.62	1.45294e-06
3861.18	1.22951e-06
3869.73	1.55441e-06
3878.29	1.57865e-06
3886.85	2.21722e-06
3895.41	2.35884e-06
3903.96	2.60043e-06
3912.52	1.72727e-06
3921.08	1.5681e-06
3929.64	1.77752e-06
3938.2	1.96822e-06
3946.75	2.31954e-06
3955.31	2.53597e-06
3963.87	2.63495e-06
3972.43	2.43738e-06
