Infrared Spectrum: tert-Butyl Ethyl Ether
Formula: ( C H3)3 C O C2 H5
CAS: 637-92-3
State: gas
Melting point: -94 C
Boiling point: 73.1 C
Class: IUPAC A
Instrument: IFS66V (Bruker)
Instrument parameters: KBr Beam splitter; MCT Detector; Multipass cell
Sampling: 1 L/min Flow
Resolution: 0.9640
Temperature: 23 C
Pressure: 101.3 kPa
Origin: NIST, Anayltical Chemistry Division, 301-975-3108
cm-1	(micromol/mol)-1m-1 (base 10)
575.169	1.8248e-07
583.847	-2.05974e-07
592.525	1.13988e-07
601.203	-7.9875e-08
609.882	1.35647e-07
618.56	1.66022e-07
627.238	9.09163e-08
635.916	1.88024e-07
644.594	-2.42561e-08
653.272	5.58227e-08
661.951	6.88247e-08
670.629	-1.62981e-09
679.307	1.70731e-07
687.985	2.81522e-07
696.663	6.69077e-07
705.341	8.76521e-07
714.019	2.12084e-06
722.698	5.98806e-06
731.376	1.62341e-05
740.054	2.33068e-05
748.732	1.88739e-05
757.41	4.93703e-06
766.088	1.98722e-06
774.767	1.67009e-06
783.445	1.54411e-06
792.123	1.48164e-06
800.801	1.70075e-06
809.479	2.47768e-06
818.157	3.4623e-06
826.835	7.58646e-06
835.514	2.58072e-05
844.192	6.16707e-05
852.87	6.31789e-05
861.548	3.00476e-05
870.226	6.56316e-06
878.904	2.61289e-06
887.583	2.7333e-06
896.261	3.77157e-06
904.939	6.95819e-06
913.617	9.31696e-06
922.295	9.71031e-06
930.973	9.64573e-06
939.651	2.17644e-05
948.33	6.5297e-05
957.008	0.000116509
965.686	0.000102128
974.364	2.62986e-05
983.042	6.46317e-06
991.72	4.46226e-06
1000.4	5.75904e-06
1009.08	1.156e-05
1017.75	2.59303e-05
1026.43	3.2003e-05
1035.11	2.33753e-05
1043.79	2.11273e-05
1052.47	4.02354e-05
1061.15	0.000105136
1069.82	0.000298261
1078.5	0.000522287
1087.18	0.000457812
1095.86	0.000157231
1104.54	0.000127279
1113.21	0.000289428
1121.89	0.000366225
1130.57	0.000235621
1139.25	6.64371e-05
1147.93	5.21813e-05
1156.61	6.3678e-05
1165.28	6.34977e-05
1173.96	5.97306e-05
1182.64	7.8073e-05
1191.32	0.000205874
1200	0.000493257
1208.67	0.000652985
1217.35	0.000380366
1226.03	0.000149282
1234.71	0.000155092
1243.39	0.000168085
1252.07	0.000152542
1260.74	0.000123087
1269.42	7.52793e-05
1278.1	3.7309e-05
1286.78	2.24857e-05
1295.46	1.68218e-05
1304.13	1.30002e-05
1312.81	9.72271e-06
1321.49	8.84099e-06
1330.17	7.76397e-06
1338.85	9.5138e-06
1347.52	3.62762e-05
1356.2	0.000154507
1364.88	0.000309692
1373.56	0.00022487
1382.24	0.000129863
1390.92	0.000196117
1399.59	0.000194687
1408.27	6.52835e-05
1416.95	2.49824e-05
1425.63	2.03943e-05
1434.31	2.92413e-05
1442.98	4.70183e-05
1451.66	6.15272e-05
1460.34	7.2727e-05
1469.02	7.73633e-05
1477.7	6.1803e-05
1486.38	6.12828e-05
1495.05	4.75827e-05
1503.73	2.25611e-05
1512.41	7.57457e-06
1521.09	5.61458e-06
1529.77	2.7589e-06
1538.44	2.48028e-06
1547.12	2.50227e-06
1555.8	2.33658e-06
1564.48	2.8223e-06
1573.16	2.896e-06
1581.83	3.05357e-06
1590.51	3.15202e-06
1599.19	2.6726e-06
1607.87	1.86102e-06
1616.55	4.07185e-06
1625.23	1.53013e-06
1633.9	1.99914e-06
1642.58	2.75834e-06
1651.26	3.43809e-06
1659.94	2.63354e-06
1668.62	2.44915e-06
1677.29	2.70895e-06
1685.97	3.75058e-06
1694.65	4.846e-06
1703.33	4.64278e-06
1712.01	3.32193e-06
1720.69	2.13553e-06
1729.36	2.04547e-06
1738.04	2.53546e-06
1746.72	3.35205e-06
1755.4	3.89116e-06
1764.08	3.18707e-06
1772.75	3.92453e-06
1781.43	1.91818e-06
1790.11	3.21142e-06
1798.79	6.26575e-06
1807.47	8.89689e-06
1816.15	8.24552e-06
1824.82	4.75716e-06
1833.5	3.26373e-06
1842.18	2.12745e-06
1850.86	2.03286e-06
1859.54	2.17273e-06
1868.21	2.17443e-06
1876.89	1.5896e-06
1885.57	1.59378e-06
1894.25	2.10729e-06
1902.93	3.33686e-06
1911.6	5.9285e-06
1920.28	9.81829e-06
1928.96	1.14131e-05
1937.64	8.33328e-06
1946.32	3.38157e-06
1955	3.03403e-06
1963.67	3.96656e-06
1972.35	3.96829e-06
1981.03	2.57441e-06
1989.71	1.3937e-06
1998.39	1.04511e-06
2007.06	9.47137e-07
2015.74	1.01153e-06
2024.42	1.16787e-06
2033.1	1.60976e-06
2041.78	2.50835e-06
2050.46	3.30929e-06
2059.13	2.91014e-06
2067.81	1.49167e-06
2076.49	1.04696e-06
2085.17	1.27795e-06
2093.85	1.84231e-06
2102.52	2.47731e-06
2111.2	2.4573e-06
2119.88	1.75619e-06
2128.56	1.6628e-06
2137.24	1.85184e-06
2145.91	1.97428e-06
2154.59	2.24902e-06
2163.27	2.69516e-06
2171.95	3.03674e-06
2180.63	3.45842e-06
2189.31	4.58174e-06
2197.98	5.17944e-06
2206.66	4.13238e-06
2215.34	2.51187e-06
2224.02	2.02362e-06
2232.7	2.3202e-06
2241.37	2.55561e-06
2250.05	2.17782e-06
2258.73	2.20006e-06
2267.41	3.18862e-06
2276.09	3.83002e-06
2284.77	3.32451e-06
2293.44	2.37252e-06
2302.12	1.54035e-06
2310.8	1.57129e-06
2319.48	1.94532e-06
2328.16	2.42248e-06
2336.83	2.63475e-06
2345.51	2.45609e-06
2354.19	2.04904e-06
2362.87	1.67313e-06
2371.55	1.85842e-06
2380.23	2.0827e-06
2388.9	2.08991e-06
2397.58	1.79252e-06
2406.26	1.70746e-06
2414.94	1.63705e-06
2423.62	1.54155e-06
2432.29	1.96145e-06
2440.97	2.56078e-06
2449.65	2.62957e-06
2458.33	2.13658e-06
2467.01	1.7176e-06
2475.68	1.52005e-06
2484.36	1.27413e-06
2493.04	1.12488e-06
2501.72	8.76325e-07
2510.4	7.70287e-07
2519.08	8.39996e-07
2527.75	8.48198e-07
2536.43	8.36352e-07
2545.11	1.01066e-06
2553.79	1.3564e-06
2562.47	1.61588e-06
2571.14	1.86683e-06
2579.82	1.99205e-06
2588.5	2.41515e-06
2597.18	3.51587e-06
2605.86	5.34249e-06
2614.54	7.64313e-06
2623.21	9.43045e-06
2631.89	8.82642e-06
2640.57	6.46845e-06
2649.25	5.01536e-06
2657.93	4.78314e-06
2666.6	4.79364e-06
2675.28	4.63354e-06
2683.96	4.56203e-06
2692.64	4.76226e-06
2701.32	5.75196e-06
2709.99	9.58457e-06
2718.67	1.5739e-05
2727.35	1.92492e-05
2736.03	1.9916e-05
2744.71	1.8362e-05
2753.39	1.47564e-05
2762.06	1.43521e-05
2770.74	1.7247e-05
2779.42	1.81747e-05
2788.1	1.68582e-05
2796.78	1.58093e-05
2805.45	1.83073e-05
2814.13	2.38405e-05
2822.81	3.05412e-05
2831.49	3.69316e-05
2840.17	4.76099e-05
2848.85	6.1204e-05
2857.52	8.28054e-05
2866.2	0.000134192
2874.88	0.000230119
2883.56	0.000319473
2892.24	0.000346149
2900.91	0.000340527
2909.59	0.00028557
2918.27	0.00023197
2926.95	0.000218985
2935.63	0.000289341
2944.31	0.000316693
2952.98	0.000260729
2961.66	0.00026445
2970.34	0.00063087
2979.02	0.00119747
2987.7	0.00118891
2996.37	0.00048793
3005.05	9.70887e-05
3013.73	3.35392e-05
3022.41	3.03789e-05
3031.09	2.57533e-05
3039.76	1.61125e-05
3048.44	8.99114e-06
3057.12	6.35587e-06
3065.8	6.19404e-06
3074.48	6.84884e-06
3083.16	7.49963e-06
3091.83	7.34651e-06
3100.51	6.13446e-06
3109.19	4.90436e-06
3117.87	4.18699e-06
3126.55	3.99873e-06
3135.22	3.97875e-06
3143.9	4.08697e-06
3152.58	4.66154e-06
3161.26	5.77886e-06
3169.94	7.44688e-06
3178.62	9.13344e-06
3187.29	9.23759e-06
3195.97	8.00921e-06
3204.65	7.41207e-06
3213.33	8.03354e-06
3222.01	8.83636e-06
3230.68	9.24163e-06
3239.36	8.38293e-06
3248.04	6.13972e-06
3256.72	3.59057e-06
3265.4	2.24413e-06
3274.07	1.72824e-06
3282.75	1.61467e-06
3291.43	1.57158e-06
3300.11	1.90187e-06
3308.79	2.92516e-06
3317.47	3.79253e-06
3326.14	3.66171e-06
3334.82	2.7287e-06
3343.5	1.69454e-06
3352.18	9.92763e-07
3360.86	7.01513e-07
3369.53	5.85049e-07
3378.21	6.24529e-07
3386.89	7.17609e-07
3395.57	8.92201e-07
3404.25	9.41304e-07
3412.93	1.31934e-06
3421.6	2.17884e-06
3430.28	3.13889e-06
3438.96	2.91317e-06
3447.64	1.8877e-06
3456.32	1.05662e-06
3464.99	8.41455e-07
3473.67	1.05165e-06
3482.35	1.31062e-06
3491.03	1.17209e-06
3499.71	6.64064e-07
3508.39	3.73926e-07
3517.06	6.0572e-08
3525.74	5.60282e-08
3534.42	5.04949e-09
3543.1	-1.65818e-08
3551.78	9.81358e-08
3560.45	4.94071e-08
3569.13	5.21756e-08
3577.81	-3.26871e-09
3586.49	6.53334e-07
3595.17	2.22223e-07
3603.84	-1.52758e-08
3612.52	6.391e-07
3621.2	1.32846e-07
3629.88	1.22523e-06
3638.56	2.80865e-07
3647.24	1.00492e-06
3655.91	6.38915e-07
3664.59	2.29579e-07
3673.27	9.97092e-08
3681.95	4.14231e-07
3690.63	6.78088e-07
3699.3	8.03995e-07
3707.98	1.4552e-06
3716.66	1.70485e-06
3725.34	1.68297e-06
3734.02	9.2195e-07
3742.7	7.03631e-07
3751.37	4.49812e-07
3760.05	1.07213e-06
3768.73	5.99703e-07
3777.41	6.27886e-07
3786.09	7.70946e-07
3794.76	9.51414e-07
3803.44	1.15285e-06
3812.12	1.13877e-06
3820.8	2.21323e-06
3829.48	1.24569e-06
3838.16	3.18562e-06
3846.83	1.21651e-06
3855.51	1.16643e-06
3864.19	1.46731e-06
3872.87	1.43992e-06
3881.55	1.96647e-06
3890.22	2.37789e-06
3898.9	2.53212e-06
3907.58	1.97633e-06
3916.26	1.74668e-06
3924.94	1.75e-06
3933.61	1.85113e-06
3942.29	2.15392e-06
3950.97	2.45156e-06
3959.65	2.54068e-06
3968.33	2.44875e-06
