Infrared Spectrum: tert-Butyl Ethyl Ether
Formula: ( C H3)3 C O C2 H5
CAS: 637-92-3
State: gas
Melting point: -94 C
Boiling point: 73.1 C
Class: IUPAC A
Instrument: IFS66V (Bruker)
Instrument parameters: KBr Beam splitter; MCT Detector; Multipass cell
Sampling: 1 L/min Flow
Resolution: 0.2410
Temperature: 23 C
Pressure: 101.3 kPa
Origin: NIST, Anayltical Chemistry Division, 301-975-3108
cm-1	(micromol/mol)-1m-1 (base 10)
575.048	3.94142e-07
583.606	-2.70075e-07
592.163	-2.11198e-07
600.721	-4.24914e-07
609.279	1.3119e-07
617.836	-6.34078e-08
626.394	1.75357e-07
634.951	2.88126e-07
643.509	7.89874e-08
652.067	1.58624e-07
660.624	8.71473e-09
669.182	1.49033e-07
677.74	4.8856e-08
686.297	4.4069e-07
694.855	4.78403e-07
703.412	8.10785e-07
711.97	1.61158e-06
720.528	4.50702e-06
729.085	1.25837e-05
737.643	2.31415e-05
746.201	1.96822e-05
754.758	7.85308e-06
763.316	2.44854e-06
771.873	1.7683e-06
780.431	1.62871e-06
788.989	1.50583e-06
797.546	1.61611e-06
806.104	2.04141e-06
814.662	2.86622e-06
823.219	4.96962e-06
831.777	1.53375e-05
840.334	4.668e-05
848.892	7.16542e-05
857.45	5.35291e-05
866.007	1.36978e-05
874.565	3.67711e-06
883.123	2.42263e-06
891.68	2.99823e-06
900.238	4.7835e-06
908.795	8.74018e-06
917.353	9.90619e-06
925.911	8.7407e-06
934.468	1.24795e-05
943.026	3.35664e-05
951.584	9.21845e-05
960.141	0.000122851
968.699	8.63697e-05
977.256	1.37576e-05
985.814	5.37004e-06
994.372	4.53264e-06
1002.93	6.8329e-06
1011.49	1.44907e-05
1020.04	2.91649e-05
1028.6	2.71934e-05
1037.16	2.07277e-05
1045.72	2.35544e-05
1054.28	4.81193e-05
1062.83	0.000129624
1071.39	0.000348354
1079.95	0.00053014
1088.51	0.000427142
1097.06	0.000124791
1105.62	0.000142207
1114.18	0.000309593
1122.74	0.000363045
1131.29	0.000217557
1139.85	6.26157e-05
1148.41	5.27653e-05
1156.97	6.40827e-05
1165.52	6.32841e-05
1174.08	5.97515e-05
1182.64	7.80639e-05
1191.2	0.000202602
1199.75	0.000483993
1208.31	0.000651166
1216.87	0.000404082
1225.43	0.000152376
1233.99	0.000153498
1242.54	0.00016837
1251.1	0.000154314
1259.66	0.000127937
1268.22	8.18642e-05
1276.77	4.1404e-05
1285.33	2.39202e-05
1293.89	1.76207e-05
1302.45	1.3962e-05
1311	1.01237e-05
1319.56	9.00696e-06
1328.12	8.03442e-06
1336.68	8.47942e-06
1345.23	2.29318e-05
1353.79	0.00011437
1362.35	0.000259854
1370.91	0.000263708
1379.46	0.000142693
1388.02	0.000181346
1396.58	0.000203677
1405.14	0.00012115
1413.7	3.11429e-05
1422.25	2.0827e-05
1430.81	2.34408e-05
1439.37	3.947e-05
1447.93	5.90191e-05
1456.48	6.82615e-05
1465.04	7.63919e-05
1473.6	6.93033e-05
1482.16	6.13881e-05
1490.71	5.90805e-05
1499.27	4.04799e-05
1507.83	1.22645e-05
1516.39	5.14721e-06
1524.94	3.3591e-06
1533.5	3.00293e-06
1542.06	4.73298e-06
1550.62	2.48939e-06
1559.18	2.87868e-06
1567.73	2.60933e-06
1576.29	6.18003e-06
1584.85	3.14228e-06
1593.41	3.01792e-06
1601.96	2.33594e-06
1610.52	1.66946e-06
1619.08	1.56874e-06
1627.64	2.06814e-06
1636.19	2.47761e-06
1644.75	2.82811e-06
1653.31	7.35484e-06
1661.87	2.71003e-06
1670.42	2.52532e-06
1678.98	2.77108e-06
1687.54	3.6255e-06
1696.1	7.43517e-06
1704.65	5.03776e-06
1713.21	3.09041e-06
1721.77	2.00265e-06
1730.33	2.19129e-06
1738.89	2.72332e-06
1747.44	3.48398e-06
1756	3.84694e-06
1764.56	3.05638e-06
1773.12	2.2807e-06
1781.67	1.97416e-06
1790.23	3.3254e-06
1798.79	6.29107e-06
1807.35	8.80944e-06
1815.9	8.26735e-06
1824.46	4.74298e-06
1833.02	3.27451e-06
1841.58	2.05022e-06
1850.13	2.02786e-06
1858.69	2.20393e-06
1867.25	2.04974e-06
1875.81	1.65983e-06
1884.36	1.61545e-06
1892.92	1.99278e-06
1901.48	3.04829e-06
1910.04	5.46056e-06
1918.6	9.01727e-06
1927.15	1.15397e-05
1935.71	9.2981e-06
1944.27	4.25013e-06
1952.83	2.86373e-06
1961.38	3.73637e-06
1969.94	4.09849e-06
1978.5	3.10676e-06
1987.06	1.61778e-06
1995.61	1.07568e-06
2004.17	9.26217e-07
2012.73	9.5601e-07
2021.29	1.08951e-06
2029.84	1.42043e-06
2038.4	2.12851e-06
2046.96	3.07412e-06
2055.52	3.30408e-06
2064.08	2.02633e-06
2072.63	1.07533e-06
2081.19	1.16184e-06
2089.75	1.61003e-06
2098.31	2.20613e-06
2106.86	2.64797e-06
2115.42	2.13688e-06
2123.98	1.63361e-06
2132.54	1.7406e-06
2141.09	1.91013e-06
2149.65	2.03214e-06
2158.21	2.45114e-06
2166.77	2.83956e-06
2175.32	3.13095e-06
2183.88	3.82402e-06
2192.44	5.00121e-06
2201	4.99557e-06
2209.55	3.54068e-06
2218.11	2.14831e-06
2226.67	2.03094e-06
2235.23	2.47075e-06
2243.79	2.52097e-06
2252.34	2.15442e-06
2260.9	2.42426e-06
2269.46	3.45578e-06
2278.02	3.83933e-06
2286.57	3.14391e-06
2295.13	2.15209e-06
2303.69	1.47882e-06
2312.25	1.61851e-06
2320.8	2.02653e-06
2329.36	2.44506e-06
2337.92	2.79576e-06
2346.48	2.43593e-06
2355.03	1.95815e-06
2363.59	1.57188e-06
2372.15	1.80399e-06
2380.71	2.09226e-06
2389.26	2.05105e-06
2397.82	1.75818e-06
2406.38	1.71388e-06
2414.94	1.64991e-06
2423.5	1.54383e-06
2432.05	1.92558e-06
2440.61	2.55011e-06
2449.17	2.64689e-06
2457.73	2.17804e-06
2466.28	1.7142e-06
2474.84	1.5402e-06
2483.4	1.2609e-06
2491.96	1.12893e-06
2500.51	9.02249e-07
2509.07	7.55513e-07
2517.63	8.21852e-07
2526.19	7.71328e-07
2534.74	7.9972e-07
2543.3	9.54111e-07
2551.86	1.25804e-06
2560.42	1.54297e-06
2568.98	1.82728e-06
2577.53	1.9559e-06
2586.09	2.28404e-06
2594.65	3.11951e-06
2603.21	4.70212e-06
2611.76	6.89228e-06
2620.32	9.06072e-06
2628.88	9.48883e-06
2637.44	7.36245e-06
2645.99	5.31808e-06
2654.55	4.75889e-06
2663.11	4.79799e-06
2671.67	4.65289e-06
2680.22	4.55099e-06
2688.78	4.61772e-06
2697.34	5.07186e-06
2705.9	7.27029e-06
2714.45	1.27379e-05
2723.01	1.7598e-05
2731.57	2.01634e-05
2740.13	1.94324e-05
2748.69	1.64933e-05
2757.24	1.40126e-05
2765.8	1.55683e-05
2774.36	1.82065e-05
2782.92	1.80491e-05
2791.47	1.61656e-05
2800.03	1.6075e-05
2808.59	2.00566e-05
2817.15	2.6086e-05
2825.7	3.25226e-05
2834.26	3.98401e-05
2842.82	5.13343e-05
2851.38	6.61609e-05
2859.93	9.234e-05
2868.49	0.000156515
2877.05	0.000254963
2885.61	0.000331276
2894.16	0.000349866
2902.72	0.000330424
2911.28	0.000275576
2919.84	0.000224395
2928.4	0.00022852
2936.95	0.000295924
2945.51	0.000316176
2954.07	0.000252682
2962.63	0.000281936
2971.18	0.000679175
2979.74	0.00125546
2988.3	0.00113998
2996.86	0.000451469
3005.41	9.046e-05
3013.97	3.32319e-05
3022.53	3.03444e-05
3031.09	2.57081e-05
3039.64	1.62604e-05
3048.2	9.14662e-06
3056.76	6.40325e-06
3065.32	6.17073e-06
3073.88	6.73821e-06
3082.43	7.51682e-06
3090.99	7.49122e-06
3099.55	6.17764e-06
3108.11	4.91677e-06
3116.66	4.19033e-06
3125.22	4.05069e-06
3133.78	4.01634e-06
3142.34	4.06972e-06
3150.89	4.5666e-06
3159.45	5.44852e-06
3168.01	7.0579e-06
3176.57	8.72757e-06
3185.12	9.30694e-06
3193.68	8.3077e-06
3202.24	7.4466e-06
3210.8	7.85924e-06
3219.35	8.49015e-06
3227.91	9.24866e-06
3236.47	8.7863e-06
3245.03	7.00333e-06
3253.59	4.40831e-06
3262.14	2.62485e-06
3270.7	1.88889e-06
3279.26	1.70532e-06
3287.82	1.58448e-06
3296.37	1.71623e-06
3304.93	2.35131e-06
3313.49	3.55215e-06
3322.05	3.72282e-06
3330.6	3.20552e-06
3339.16	2.2469e-06
3347.72	1.3162e-06
3356.28	7.80459e-07
3364.83	6.42482e-07
3373.39	7.49131e-07
3381.95	6.93617e-07
3390.51	7.10439e-07
3399.06	7.95516e-07
3407.62	1.02944e-06
3416.18	1.57093e-06
3424.74	2.54703e-06
3433.3	3.18863e-06
3441.85	2.52967e-06
3450.41	1.56679e-06
3458.97	9.24029e-07
3467.53	8.0716e-07
3476.08	9.42546e-07
3484.64	1.2345e-06
3493.2	1.02209e-06
3501.76	5.73992e-07
3510.31	1.60698e-07
3518.87	1.24509e-07
3527.43	7.74667e-08
3535.99	3.88552e-08
3544.54	2.80632e-08
3553.1	4.37228e-08
3561.66	5.19264e-08
3570.22	3.94682e-08
3578.78	-3.77438e-08
3587.33	7.00944e-08
3595.89	2.13657e-08
3604.45	-6.64146e-08
3613.01	1.63741e-07
3621.56	1.82686e-07
3630.12	3.13328e-07
3638.68	2.16724e-07
3647.24	8.74195e-07
3655.79	3.85515e-07
3664.35	2.88019e-07
3672.91	3.41073e-07
3681.47	3.72651e-07
3690.02	6.43573e-07
3698.58	7.95373e-07
3707.14	1.29605e-06
3715.7	1.7796e-06
3724.25	1.67417e-06
3732.81	9.951e-07
3741.37	9.52023e-07
3749.93	9.52909e-07
3758.49	4.925e-07
3767.04	5.16174e-07
3775.6	6.21242e-07
3784.16	7.56796e-07
3792.72	8.8726e-07
3801.27	3.21573e-06
3809.83	1.05863e-06
3818.39	1.14803e-06
3826.95	1.54824e-06
3835.5	1.41873e-06
3844.06	1.41003e-06
3852.62	1.44743e-06
3861.18	1.22067e-06
3869.73	1.59017e-06
3878.29	1.585e-06
3886.85	2.217e-06
3895.41	2.37937e-06
3903.96	2.65224e-06
3912.52	1.7289e-06
3921.08	1.55734e-06
3929.64	1.78051e-06
3938.2	1.95212e-06
3946.75	2.29243e-06
3955.31	2.53495e-06
3963.87	2.62148e-06
3972.43	2.41868e-06
