Infrared Spectrum: tert-Butyl Ethyl Ether
Formula: ( C H3)3 C O C2 H5
CAS: 637-92-3
State: gas
Melting point: -94 C
Boiling point: 73.1 C
Class: IUPAC A
Instrument: IFS66V (Bruker)
Instrument parameters: KBr Beam splitter; MCT Detector; Multipass cell
Sampling: 1 L/min Flow
Resolution: 1.9290
Temperature: 23 C
Pressure: 101.3 kPa
Origin: NIST, Anayltical Chemistry Division, 301-975-3108
cm-1	(micromol/mol)-1m-1 (base 10)
574.687	-1.17728e-07
583.365	-1.32927e-07
592.043	-4.41466e-09
600.721	-7.0993e-08
609.4	1.85259e-07
618.078	1.59948e-07
626.756	1.72199e-07
635.434	1.90838e-07
644.112	6.39408e-08
652.79	1.15896e-07
661.469	4.36228e-08
670.147	1.35696e-07
678.825	2.06825e-07
687.503	4.23215e-07
696.181	6.39641e-07
704.859	1.03427e-06
713.537	2.16925e-06
722.216	5.78425e-06
730.894	1.53821e-05
739.572	2.30142e-05
748.25	1.87643e-05
756.928	5.61553e-06
765.606	2.27748e-06
774.285	1.84857e-06
782.963	1.69872e-06
791.641	1.65801e-06
800.319	1.89926e-06
808.997	2.5594e-06
817.675	3.61462e-06
826.353	7.62418e-06
835.032	2.45177e-05
843.71	5.90893e-05
852.388	6.40632e-05
861.066	3.27807e-05
869.744	7.81182e-06
878.422	3.10496e-06
887.101	3.04039e-06
895.779	3.96768e-06
904.457	6.91049e-06
913.135	9.48338e-06
921.813	1.0284e-05
930.491	1.01021e-05
939.169	2.14445e-05
947.848	6.18675e-05
956.526	0.000113768
965.204	0.000101388
973.882	3.15102e-05
982.56	7.80427e-06
991.238	5.25431e-06
999.917	6.2797e-06
1008.59	1.17873e-05
1017.27	2.52415e-05
1025.95	3.12076e-05
1034.63	2.50253e-05
1043.31	2.24096e-05
1051.99	4.09906e-05
1060.66	0.000102521
1069.34	0.000283179
1078.02	0.000507989
1086.7	0.000465842
1095.38	0.000181245
1104.05	0.000126768
1112.73	0.000276947
1121.41	0.000360998
1130.09	0.000242898
1138.77	7.46028e-05
1147.45	5.39501e-05
1156.12	6.42954e-05
1164.8	6.51862e-05
1173.48	6.1859e-05
1182.16	7.94842e-05
1190.84	0.000196851
1199.51	0.000469351
1208.19	0.000636492
1216.87	0.000400729
1225.55	0.000157285
1234.23	0.000155232
1242.9	0.000167624
1251.58	0.000152909
1260.26	0.000124789
1268.94	7.8402e-05
1277.62	3.99528e-05
1286.3	2.39722e-05
1294.97	1.78417e-05
1303.65	1.39855e-05
1312.33	1.05948e-05
1321.01	9.65556e-06
1329.69	8.86949e-06
1338.36	1.08303e-05
1347.04	3.57379e-05
1355.72	0.000146013
1364.4	0.000292142
1373.08	0.000231814
1381.76	0.000133543
1390.43	0.000193824
1399.11	0.000190188
1407.79	7.45907e-05
1416.47	2.74773e-05
1425.15	2.15813e-05
1433.82	2.91193e-05
1442.5	4.62158e-05
1451.18	6.1232e-05
1459.86	7.1874e-05
1468.54	7.62918e-05
1477.22	6.25589e-05
1485.89	6.13131e-05
1494.57	4.85723e-05
1503.25	2.48482e-05
1511.93	8.09492e-06
1520.61	4.91528e-06
1529.28	3.19317e-06
1537.96	3.23851e-06
1546.64	2.69261e-06
1555.32	2.89866e-06
1564	2.78223e-06
1572.67	2.86669e-06
1581.35	3.12911e-06
1590.03	3.19667e-06
1598.71	2.75158e-06
1607.39	1.96158e-06
1616.07	2.3174e-06
1624.74	1.82753e-06
1633.42	2.15924e-06
1642.1	2.72353e-06
1650.78	3.18159e-06
1659.46	2.83532e-06
1668.13	2.78262e-06
1676.81	2.82757e-06
1685.49	4.2784e-06
1694.17	4.5874e-06
1702.85	4.7633e-06
1711.53	3.5116e-06
1720.2	2.25334e-06
1728.88	2.11488e-06
1737.56	2.72528e-06
1746.24	3.45502e-06
1754.92	3.91799e-06
1763.59	3.24931e-06
1772.27	2.72218e-06
1780.95	2.13967e-06
1789.63	3.2716e-06
1798.31	6.09972e-06
1806.98	8.66921e-06
1815.66	8.19915e-06
1824.34	4.89654e-06
1833.02	3.34093e-06
1841.7	2.14995e-06
1850.38	2.08163e-06
1859.05	2.21239e-06
1867.73	2.15071e-06
1876.41	1.70707e-06
1885.09	1.65439e-06
1893.77	2.13771e-06
1902.44	3.29851e-06
1911.12	5.80604e-06
1919.8	9.46928e-06
1928.48	1.12978e-05
1937.16	8.4904e-06
1945.84	3.70042e-06
1954.51	3.06571e-06
1963.19	3.94012e-06
1971.87	3.98557e-06
1980.55	2.70714e-06
1989.23	1.46698e-06
1997.9	1.07297e-06
2006.58	9.9414e-07
2015.26	1.04369e-06
2023.94	1.18899e-06
2032.62	1.59668e-06
2041.3	2.46943e-06
2049.97	3.28776e-06
2058.65	2.98176e-06
2067.33	1.59911e-06
2076.01	1.10462e-06
2084.69	1.31401e-06
2093.36	1.8313e-06
2102.04	2.45516e-06
2110.72	2.48554e-06
2119.4	1.83567e-06
2128.08	1.67197e-06
2136.75	1.85846e-06
2145.43	1.99725e-06
2154.11	2.2424e-06
2162.79	2.69121e-06
2171.47	3.02555e-06
2180.15	3.45499e-06
2188.82	4.47976e-06
2197.5	5.11652e-06
2206.18	4.20379e-06
2214.86	2.59984e-06
2223.54	2.04773e-06
2232.21	2.31638e-06
2240.89	2.58015e-06
2249.57	2.2307e-06
2258.25	2.22262e-06
2266.93	3.16352e-06
2275.61	3.81268e-06
2284.28	3.37995e-06
2292.96	2.43818e-06
2301.64	1.63476e-06
2310.32	1.58842e-06
2319	1.93756e-06
2327.67	2.422e-06
2336.35	2.7195e-06
2345.03	2.50994e-06
2353.71	2.08249e-06
2362.39	1.62954e-06
2371.06	1.79763e-06
2379.74	2.10735e-06
2388.42	2.11199e-06
2397.1	1.84262e-06
2405.78	1.71324e-06
2414.46	1.65935e-06
2423.13	1.59071e-06
2431.81	1.94963e-06
2440.49	2.55079e-06
2449.17	2.67497e-06
2457.85	2.19279e-06
2466.52	1.77846e-06
2475.2	1.57284e-06
2483.88	1.31272e-06
2492.56	1.1491e-06
2501.24	9.29148e-07
2509.92	8.1136e-07
2518.59	8.90158e-07
2527.27	8.87644e-07
2535.95	8.86265e-07
2544.63	1.05506e-06
2553.31	1.36071e-06
2561.98	1.66499e-06
2570.66	1.90507e-06
2579.34	2.09997e-06
2588.02	2.47448e-06
2596.7	3.50761e-06
2605.38	5.261e-06
2614.05	7.56951e-06
2622.73	9.35476e-06
2631.41	8.93942e-06
2640.09	6.69041e-06
2648.77	5.14067e-06
2657.44	4.85357e-06
2666.12	4.8865e-06
2674.8	4.75202e-06
2683.48	4.71285e-06
2692.16	4.90107e-06
2700.83	5.84383e-06
2709.51	9.45977e-06
2718.19	1.54198e-05
2726.87	1.90896e-05
2735.55	1.99825e-05
2744.23	1.85166e-05
2752.9	1.51874e-05
2761.58	1.45201e-05
2770.26	1.72699e-05
2778.94	1.84554e-05
2787.62	1.73198e-05
2796.29	1.6257e-05
2804.97	1.85521e-05
2813.65	2.39126e-05
2822.33	3.06655e-05
2831.01	3.71965e-05
2839.69	4.75999e-05
2848.36	6.12094e-05
2857.04	8.25259e-05
2865.72	0.000131351
2874.4	0.000224046
2883.08	0.000313872
2891.75	0.000343196
2900.43	0.00034054
2909.11	0.000288638
2917.79	0.000235918
2926.47	0.000219698
2935.14	0.000285852
2943.82	0.000316386
2952.5	0.000268053
2961.18	0.000267362
2969.86	0.000603427
2978.54	0.00114682
2987.21	0.00119635
2995.89	0.000528824
3004.57	0.000117049
3013.25	3.94455e-05
3021.93	3.29196e-05
3030.6	2.77367e-05
3039.28	1.79235e-05
3047.96	1.03528e-05
3056.64	7.34893e-06
3065.32	6.86228e-06
3074	7.32003e-06
3082.67	7.9255e-06
3091.35	7.74954e-06
3100.03	6.51102e-06
3108.71	5.19203e-06
3117.39	4.50407e-06
3126.06	4.30094e-06
3134.74	4.2288e-06
3143.42	4.32199e-06
3152.1	4.77514e-06
3160.78	5.8372e-06
3169.46	7.49918e-06
3178.13	9.09271e-06
3186.81	9.25392e-06
3195.49	8.21008e-06
3204.17	7.59721e-06
3212.85	8.05668e-06
3221.52	8.85244e-06
3230.2	9.2269e-06
3238.88	8.44821e-06
3247.56	6.30293e-06
3256.24	3.78541e-06
3264.91	2.38197e-06
3273.59	1.89907e-06
3282.27	1.7077e-06
3290.95	1.65212e-06
3299.63	1.94242e-06
3308.31	2.89718e-06
3316.98	3.76432e-06
3325.66	3.67964e-06
3334.34	2.82069e-06
3343.02	1.80392e-06
3351.7	1.10377e-06
3360.37	7.93301e-07
3369.05	6.61705e-07
3377.73	7.0752e-07
3386.41	7.78414e-07
3395.09	8.75351e-07
3403.77	1.00595e-06
3412.44	1.3278e-06
3421.12	2.15282e-06
3429.8	3.03228e-06
3438.48	2.93857e-06
3447.16	1.98972e-06
3455.83	1.11696e-06
3464.51	8.50179e-07
3473.19	1.0075e-06
3481.87	1.24718e-06
3490.55	1.18899e-06
3499.22	7.2018e-07
3507.9	3.18673e-07
3516.58	1.00972e-07
3525.26	9.0185e-08
3533.94	4.15018e-08
3542.62	6.10577e-08
3551.29	1.10163e-07
3559.97	1.0619e-07
3568.65	1.99056e-07
3577.33	3.4597e-08
3586.01	2.20178e-07
3594.68	1.13472e-07
3603.36	3.02769e-08
3612.04	2.32091e-07
3620.72	2.6233e-07
3629.4	9.16402e-07
3638.08	2.8075e-07
3646.75	6.39841e-07
3655.43	5.50543e-07
3664.11	2.95337e-07
3672.79	3.91506e-07
3681.47	4.71138e-07
3690.14	7.74134e-07
3698.82	8.26734e-07
3707.5	1.38152e-06
3716.18	1.76827e-06
3724.86	1.61636e-06
3733.54	1.13914e-06
3742.21	7.56919e-07
3750.89	9.33481e-07
3759.57	7.36791e-07
3768.25	5.50007e-07
3776.93	6.2048e-07
3785.6	8.3632e-07
3794.28	1.01829e-06
3802.96	1.25666e-06
3811.64	1.11103e-06
3820.32	1.52718e-06
3828.99	1.28879e-06
3837.67	2.20409e-06
3846.35	1.21983e-06
3855.03	2.06077e-06
3863.71	1.38644e-06
3872.39	1.53052e-06
3881.06	2.07377e-06
3889.74	2.31215e-06
3898.42	2.54334e-06
3907.1	2.05304e-06
3915.78	1.69314e-06
3924.45	1.69888e-06
3933.13	1.91233e-06
3941.81	2.15175e-06
3950.49	2.44688e-06
3959.17	2.55858e-06
3967.85	2.42319e-06
