Infrared Spectrum: tert-Butyl Ethyl Ether
Formula: ( C H3)3 C O C2 H5
CAS: 637-92-3
State: gas
Melting point: -94 C
Boiling point: 73.1 C
Class: IUPAC A
Instrument: IFS66V (Bruker)
Instrument parameters: KBr Beam splitter; MCT Detector; Multipass cell
Sampling: 1 L/min Flow
Resolution: 0.9640
Temperature: 23 C
Pressure: 101.3 kPa
Origin: NIST, Anayltical Chemistry Division, 301-975-3108
cm-1	(micromol/mol)-1m-1 (base 10)
575.169	-7.49056e-08
583.847	-1.64068e-07
592.525	2.60041e-08
601.203	-1.51863e-07
609.882	1.86034e-07
618.56	1.4114e-07
627.238	1.32669e-07
635.916	1.66004e-07
644.594	-4.47469e-09
653.272	3.91936e-08
661.951	1.9203e-08
670.629	3.92663e-08
679.307	1.53689e-07
687.985	3.45723e-07
696.663	6.04252e-07
705.341	9.21615e-07
714.019	2.13005e-06
722.698	5.97037e-06
731.376	1.62398e-05
740.054	2.33849e-05
748.732	1.87979e-05
757.41	4.89618e-06
766.088	2.00515e-06
774.767	1.70825e-06
783.445	1.54519e-06
792.123	1.49449e-06
800.801	1.71884e-06
809.479	2.44849e-06
818.157	3.43185e-06
826.835	7.58513e-06
835.514	2.58129e-05
844.192	6.16394e-05
852.87	6.33648e-05
861.548	3.00668e-05
870.226	6.58711e-06
878.904	2.61182e-06
887.583	2.75971e-06
896.261	3.75233e-06
904.939	6.94266e-06
913.617	9.32416e-06
922.295	9.77114e-06
930.973	9.65854e-06
939.651	2.17821e-05
948.33	6.53753e-05
957.008	0.000116478
965.686	0.000102045
974.364	2.64053e-05
983.042	6.4722e-06
991.72	4.46039e-06
1000.4	5.75065e-06
1009.08	1.15722e-05
1017.75	2.58974e-05
1026.43	3.18574e-05
1035.11	2.34058e-05
1043.79	2.11342e-05
1052.47	4.02677e-05
1061.15	0.000105243
1069.82	0.000298437
1078.5	0.000522164
1087.18	0.000458723
1095.86	0.000157723
1104.54	0.000127334
1113.21	0.00028935
1121.89	0.000366263
1130.57	0.000235362
1139.25	6.65371e-05
1147.93	5.2175e-05
1156.61	6.36511e-05
1165.28	6.35041e-05
1173.96	5.97388e-05
1182.64	7.81316e-05
1191.32	0.000206089
1200	0.00049288
1208.67	0.000652687
1217.35	0.000380162
1226.03	0.00014945
1234.71	0.000155085
1243.39	0.00016802
1252.07	0.00015255
1260.74	0.000123063
1269.42	7.52622e-05
1278.1	3.73189e-05
1286.78	2.24989e-05
1295.46	1.68436e-05
1304.13	1.30143e-05
1312.81	9.74579e-06
1321.49	8.84087e-06
1330.17	7.78574e-06
1338.85	9.53847e-06
1347.52	3.63822e-05
1356.2	0.000154459
1364.88	0.000309621
1373.56	0.000225142
1382.24	0.000130019
1390.92	0.000196237
1399.59	0.000194536
1408.27	6.54952e-05
1416.95	2.50982e-05
1425.63	2.03975e-05
1434.31	2.92264e-05
1442.98	4.69998e-05
1451.66	6.15775e-05
1460.34	7.27212e-05
1469.02	7.72138e-05
1477.7	6.18291e-05
1486.38	6.12608e-05
1495.05	4.74901e-05
1503.73	2.26232e-05
1512.41	7.33094e-06
1521.09	5.09868e-06
1529.77	2.79931e-06
1538.44	3.3321e-06
1547.12	2.4582e-06
1555.8	2.48669e-06
1564.48	2.74138e-06
1573.16	2.74621e-06
1581.83	3.04155e-06
1590.51	3.11418e-06
1599.19	2.63644e-06
1607.87	1.83008e-06
1616.55	3.23026e-06
1625.23	1.6505e-06
1633.9	2.09735e-06
1642.58	2.69341e-06
1651.26	3.08587e-06
1659.94	2.72994e-06
1668.62	2.78696e-06
1677.29	2.69393e-06
1685.97	3.46269e-06
1694.65	4.63917e-06
1703.33	4.66535e-06
1712.01	3.3522e-06
1720.69	2.0846e-06
1729.36	2.07601e-06
1738.04	2.65597e-06
1746.72	3.41121e-06
1755.4	3.86832e-06
1764.08	3.12828e-06
1772.75	3.17232e-06
1781.43	2.01924e-06
1790.11	3.2928e-06
1798.79	6.29871e-06
1807.47	8.84722e-06
1816.15	8.2209e-06
1824.82	4.81673e-06
1833.5	3.23875e-06
1842.18	2.04957e-06
1850.86	2.03311e-06
1859.54	2.17246e-06
1868.21	2.12487e-06
1876.89	1.62113e-06
1885.57	1.58765e-06
1894.25	2.11456e-06
1902.93	3.33116e-06
1911.6	5.95016e-06
1920.28	9.76879e-06
1928.96	1.14107e-05
1937.64	8.31562e-06
1946.32	3.39266e-06
1955	3.03235e-06
1963.67	3.97388e-06
1972.35	3.9579e-06
1981.03	2.57307e-06
1989.71	1.37551e-06
1998.39	1.02588e-06
2007.06	9.53146e-07
2015.74	1.01105e-06
2024.42	1.16358e-06
2033.1	1.59709e-06
2041.78	2.5095e-06
2050.46	3.3187e-06
2059.13	2.92148e-06
2067.81	1.48914e-06
2076.49	1.0497e-06
2085.17	1.28359e-06
2093.85	1.84568e-06
2102.52	2.48384e-06
2111.2	2.44143e-06
2119.88	1.76607e-06
2128.56	1.65135e-06
2137.24	1.84815e-06
2145.91	1.96706e-06
2154.59	2.24812e-06
2163.27	2.69211e-06
2171.95	3.02404e-06
2180.63	3.46506e-06
2189.31	4.57098e-06
2197.98	5.15994e-06
2206.66	4.12645e-06
2215.34	2.49818e-06
2224.02	2.01368e-06
2232.7	2.31804e-06
2241.37	2.56012e-06
2250.05	2.17534e-06
2258.73	2.20652e-06
2267.41	3.19178e-06
2276.09	3.82391e-06
2284.77	3.33574e-06
2293.44	2.36278e-06
2302.12	1.5493e-06
2310.8	1.5633e-06
2319.48	1.94201e-06
2328.16	2.43056e-06
2336.83	2.68321e-06
2345.51	2.46172e-06
2354.19	2.04482e-06
2362.87	1.6061e-06
2371.55	1.80981e-06
2380.23	2.08767e-06
2388.9	2.08503e-06
2397.58	1.78868e-06
2406.26	1.69081e-06
2414.94	1.63438e-06
2423.62	1.54078e-06
2432.29	1.9582e-06
2440.97	2.55655e-06
2449.65	2.62992e-06
2458.33	2.13639e-06
2467.01	1.72108e-06
2475.68	1.52732e-06
2484.36	1.26542e-06
2493.04	1.10477e-06
2501.72	8.73993e-07
2510.4	7.64024e-07
2519.08	8.35714e-07
2527.75	8.44163e-07
2536.43	8.35212e-07
2545.11	1.01148e-06
2553.79	1.33081e-06
2562.47	1.62105e-06
2571.14	1.85378e-06
2579.82	2.00905e-06
2588.5	2.40855e-06
2597.18	3.5068e-06
2605.86	5.32627e-06
2614.54	7.65955e-06
2623.21	9.45232e-06
2631.89	8.83031e-06
2640.57	6.47137e-06
2649.25	4.98106e-06
2657.93	4.76471e-06
2666.6	4.78484e-06
2675.28	4.61466e-06
2683.96	4.56684e-06
2692.64	4.76081e-06
2701.32	5.72751e-06
2709.99	9.57912e-06
2718.67	1.57402e-05
2727.35	1.92377e-05
2736.03	1.98983e-05
2744.71	1.83306e-05
2753.39	1.47872e-05
2762.06	1.43481e-05
2770.74	1.72444e-05
2779.42	1.81831e-05
2788.1	1.68753e-05
2796.78	1.58e-05
2805.45	1.83241e-05
2814.13	2.38284e-05
2822.81	3.0528e-05
2831.49	3.69577e-05
2840.17	4.75668e-05
2848.85	6.11538e-05
2857.52	8.27982e-05
2866.2	0.00013415
2874.88	0.000230084
2883.56	0.00031951
2892.24	0.000346319
2900.91	0.000340549
2909.59	0.000285616
2918.27	0.000231984
2926.95	0.000219092
2935.63	0.000289157
2944.31	0.000316855
2952.98	0.000260825
2961.66	0.000264905
2970.34	0.00063083
2979.02	0.00119762
2987.7	0.00118831
2996.37	0.000488191
3005.05	9.72909e-05
3013.73	3.35795e-05
3022.41	3.03682e-05
3031.09	2.5787e-05
3039.76	1.61259e-05
3048.44	8.97846e-06
3057.12	6.38705e-06
3065.8	6.18641e-06
3074.48	6.83404e-06
3083.16	7.51227e-06
3091.83	7.35037e-06
3100.51	6.13282e-06
3109.19	4.86238e-06
3117.87	4.20234e-06
3126.55	4.03823e-06
3135.22	3.97007e-06
3143.9	4.10992e-06
3152.58	4.63786e-06
3161.26	5.76287e-06
3169.94	7.46924e-06
3178.62	9.12181e-06
3187.29	9.17757e-06
3195.97	8.03795e-06
3204.65	7.45658e-06
3213.33	8.02428e-06
3222.01	8.8393e-06
3230.68	9.22653e-06
3239.36	8.37158e-06
3248.04	6.10904e-06
3256.72	3.57365e-06
3265.4	2.22579e-06
3274.07	1.75772e-06
3282.75	1.62822e-06
3291.43	1.57088e-06
3300.11	1.90503e-06
3308.79	2.90047e-06
3317.47	3.77712e-06
3326.14	3.64211e-06
3334.82	2.74004e-06
3343.5	1.69905e-06
3352.18	1.00345e-06
3360.86	7.1445e-07
3369.53	6.04109e-07
3378.21	6.4459e-07
3386.89	7.47715e-07
3395.57	8.53131e-07
3404.25	9.46363e-07
3412.93	1.32823e-06
3421.6	2.17791e-06
3430.28	3.11439e-06
3438.96	2.89846e-06
3447.64	1.90934e-06
3456.32	1.04013e-06
3464.99	8.06143e-07
3473.67	1.00227e-06
3482.35	1.26148e-06
3491.03	1.14387e-06
3499.71	6.77914e-07
3508.39	2.95797e-07
3517.06	5.89331e-08
3525.74	5.77199e-08
3534.42	3.84896e-09
3543.1	1.28929e-08
3551.78	1.24506e-07
3560.45	6.86356e-08
3569.13	4.87887e-08
3577.81	-3.15229e-09
3586.49	4.06522e-07
3595.17	1.67897e-07
3603.84	-7.83435e-09
3612.52	3.95996e-07
3621.2	1.55319e-07
3629.88	1.0292e-06
3638.56	2.56518e-07
3647.24	8.18619e-07
3655.91	8.07034e-07
3664.59	2.49879e-07
3673.27	3.23091e-07
3681.95	4.36681e-07
3690.63	7.79096e-07
3699.3	8.03656e-07
3707.98	1.39824e-06
3716.66	1.75743e-06
3725.34	1.59049e-06
3734.02	1.08596e-06
3742.7	6.47957e-07
3751.37	8.22854e-07
3760.05	8.38153e-07
3768.73	4.99939e-07
3777.41	6.00711e-07
3786.09	8.03167e-07
3794.76	1.0215e-06
3803.44	1.17815e-06
3812.12	1.06148e-06
3820.8	1.85605e-06
3829.48	1.25199e-06
3838.16	2.73425e-06
3846.83	1.16411e-06
3855.51	1.169e-06
3864.19	1.41728e-06
3872.87	1.49787e-06
3881.55	1.93989e-06
3890.22	2.3134e-06
3898.9	2.68918e-06
3907.58	1.9561e-06
3916.26	1.68621e-06
3924.94	1.72972e-06
3933.61	1.86191e-06
3942.29	2.20728e-06
3950.97	2.4253e-06
3959.65	2.56887e-06
3968.33	2.44198e-06
