Infrared Spectrum: tert-Butyl Ethyl Ether
Formula: ( C H3)3 C O C2 H5
CAS: 637-92-3
State: gas
Melting point: -94 C
Boiling point: 73.1 C
Class: IUPAC A
Instrument: IFS66V (Bruker)
Instrument parameters: KBr Beam splitter; MCT Detector; Multipass cell
Sampling: 1 L/min Flow
Resolution: 0.4820
Temperature: 23 C
Pressure: 101.3 kPa
Origin: NIST, Anayltical Chemistry Division, 301-975-3108
cm-1	(micromol/mol)-1m-1 (base 10)
574.928	9.73158e-07
583.606	-3.73695e-07
592.284	-2.29333e-07
600.962	-5.22537e-07
609.641	2.76934e-07
618.319	2.17395e-07
626.997	3.25688e-08
635.675	-1.24527e-08
644.353	-3.17921e-08
653.031	1.22943e-07
661.71	3.36566e-08
670.388	-2.64207e-08
679.066	1.44303e-07
687.744	3.93336e-07
696.422	8.75697e-07
705.1	8.79517e-07
713.778	2.06858e-06
722.457	5.72122e-06
731.135	1.59857e-05
739.813	2.32517e-05
748.491	1.91174e-05
757.169	5.18814e-06
765.847	2.04962e-06
774.526	1.76847e-06
783.204	1.53821e-06
791.882	1.39088e-06
800.56	1.69433e-06
809.238	2.32803e-06
817.916	3.35239e-06
826.594	7.33322e-06
835.273	2.48726e-05
843.951	6.11552e-05
852.629	6.35591e-05
861.307	3.13271e-05
869.985	6.93748e-06
878.663	2.56819e-06
887.342	2.80608e-06
896.02	3.75497e-06
904.698	6.80295e-06
913.376	9.35863e-06
922.054	9.78346e-06
930.732	9.61709e-06
939.41	2.12112e-05
948.089	6.34817e-05
956.767	0.000116258
965.445	0.000102357
974.123	2.79532e-05
982.801	6.59066e-06
991.479	4.45758e-06
1000.16	5.61885e-06
1008.84	1.1359e-05
1017.51	2.54448e-05
1026.19	3.16719e-05
1034.87	2.37699e-05
1043.55	2.08341e-05
1052.23	3.93471e-05
1060.9	0.000102075
1069.58	0.000291484
1078.26	0.000520626
1086.94	0.000463999
1095.62	0.000165417
1104.3	0.000124364
1112.97	0.000284342
1121.65	0.000366908
1130.33	0.000241303
1139.01	6.80908e-05
1147.69	5.19871e-05
1156.36	6.33374e-05
1165.04	6.37051e-05
1173.72	5.97172e-05
1182.4	7.67085e-05
1191.08	0.000199536
1199.76	0.000483977
1208.43	0.000652064
1217.11	0.000392348
1225.79	0.000150552
1234.47	0.000154553
1243.15	0.000168179
1251.82	0.000153083
1260.5	0.000124133
1269.18	7.66195e-05
1277.86	3.79844e-05
1286.54	2.27794e-05
1295.21	1.68941e-05
1303.89	1.31426e-05
1312.57	9.80478e-06
1321.25	8.88096e-06
1329.93	7.76989e-06
1338.61	9.48091e-06
1347.28	3.45131e-05
1355.96	0.000150584
1364.64	0.000304509
1373.32	0.000229416
1382	0.00012944
1390.67	0.000196388
1399.35	0.000194046
1408.03	6.84415e-05
1416.71	2.52607e-05
1425.39	2.03467e-05
1434.07	2.87128e-05
1442.74	4.64609e-05
1451.42	6.1478e-05
1460.1	7.24421e-05
1468.78	7.72742e-05
1477.46	6.20133e-05
1486.13	6.16242e-05
1494.81	4.78085e-05
1503.49	2.35048e-05
1512.17	7.81873e-06
1520.85	3.76969e-06
1529.52	2.83446e-06
1538.2	2.77564e-06
1546.88	2.39904e-06
1555.56	2.5049e-06
1564.24	2.60542e-06
1572.92	2.69718e-06
1581.59	3.06218e-06
1590.27	3.16542e-06
1598.95	2.64937e-06
1607.63	1.82524e-06
1616.31	1.73019e-06
1624.98	1.64387e-06
1633.66	2.05775e-06
1642.34	2.68616e-06
1651.02	2.91524e-06
1659.7	2.78757e-06
1668.38	2.84811e-06
1677.05	2.70453e-06
1685.73	3.30869e-06
1694.41	4.70139e-06
1703.09	4.56499e-06
1711.77	3.40382e-06
1720.44	2.11379e-06
1729.12	1.9995e-06
1737.8	2.76138e-06
1746.48	3.35897e-06
1755.16	3.80547e-06
1763.84	3.19594e-06
1772.51	3.15344e-06
1781.19	1.98641e-06
1789.87	3.2165e-06
1798.55	6.21856e-06
1807.23	8.7563e-06
1815.9	8.26432e-06
1824.58	4.75568e-06
1833.26	3.30254e-06
1841.94	2.00714e-06
1850.62	2.00841e-06
1859.29	2.15216e-06
1867.97	2.26828e-06
1876.65	1.66565e-06
1885.33	1.59227e-06
1894.01	2.0978e-06
1902.69	3.2997e-06
1911.36	5.85364e-06
1920.04	9.66707e-06
1928.72	1.14855e-05
1937.4	8.4146e-06
1946.08	3.46501e-06
1954.75	2.99145e-06
1963.43	3.94031e-06
1972.11	4.0329e-06
1980.79	2.61298e-06
1989.47	1.36731e-06
1998.15	1.03054e-06
2006.82	9.58088e-07
2015.5	9.8106e-07
2024.18	1.13669e-06
2032.86	1.56338e-06
2041.54	2.51415e-06
2050.21	3.28899e-06
2058.89	2.94101e-06
2067.57	1.50889e-06
2076.25	1.06455e-06
2084.93	1.23636e-06
2093.6	1.80612e-06
2102.28	2.43592e-06
2110.96	2.46523e-06
2119.64	1.78098e-06
2128.32	1.66089e-06
2137	1.85625e-06
2145.67	1.96663e-06
2154.35	2.22236e-06
2163.03	2.68698e-06
2171.71	3.03614e-06
2180.39	3.43159e-06
2189.06	4.54268e-06
2197.74	5.19404e-06
2206.42	4.1791e-06
2215.1	2.55789e-06
2223.78	2.00312e-06
2232.46	2.30576e-06
2241.13	2.55411e-06
2249.81	2.19874e-06
2258.49	2.18162e-06
2267.17	3.1654e-06
2275.85	3.84609e-06
2284.52	3.31551e-06
2293.2	2.37113e-06
2301.88	1.55482e-06
2310.56	1.58314e-06
2319.24	2.0107e-06
2327.92	2.35827e-06
2336.59	2.70563e-06
2345.27	2.49346e-06
2353.95	2.04355e-06
2362.63	1.66881e-06
2371.31	1.80527e-06
2379.98	2.07374e-06
2388.66	2.09603e-06
2397.34	1.79055e-06
2406.02	1.64462e-06
2414.7	1.62819e-06
2423.37	1.5949e-06
2432.05	1.91476e-06
2440.73	2.56197e-06
2449.41	2.64412e-06
2458.09	2.15385e-06
2466.77	1.77487e-06
2475.44	1.52098e-06
2484.12	1.28549e-06
2492.8	1.06594e-06
2501.48	8.6865e-07
2510.16	7.96331e-07
2518.83	8.73276e-07
2527.51	8.22994e-07
2536.19	8.37839e-07
2544.87	9.70773e-07
2553.55	1.32296e-06
2562.23	1.60103e-06
2570.9	1.86117e-06
2579.58	2.06807e-06
2588.26	2.37108e-06
2596.94	3.49936e-06
2605.62	5.26664e-06
2614.29	7.56645e-06
2622.97	9.47382e-06
2631.65	8.90091e-06
2640.33	6.55355e-06
2649.01	5.02906e-06
2657.68	4.793e-06
2666.36	4.8316e-06
2675.04	4.62861e-06
2683.72	4.59533e-06
2692.4	4.72627e-06
2701.08	5.67265e-06
2709.75	9.4126e-06
2718.43	1.55402e-05
2727.11	1.91737e-05
2735.79	1.99552e-05
2744.47	1.84223e-05
2753.14	1.4853e-05
2761.82	1.43021e-05
2770.5	1.71396e-05
2779.18	1.82146e-05
2787.86	1.69347e-05
2796.54	1.58121e-05
2805.21	1.81213e-05
2813.89	2.3651e-05
2822.57	3.04499e-05
2831.25	3.67388e-05
2839.93	4.73012e-05
2848.6	6.06258e-05
2857.28	8.19237e-05
2865.96	0.000131881
2874.64	0.000227499
2883.32	0.000318205
2892	0.000345915
2900.67	0.000341701
2909.35	0.000287214
2918.03	0.000233364
2926.71	0.000217643
2935.39	0.000287654
2944.06	0.000316967
2952.74	0.000262893
2961.42	0.000261404
2970.1	0.000616885
2978.78	0.00117788
2987.45	0.00120919
2996.13	0.000506269
3004.81	0.000101656
3013.49	3.39288e-05
3022.17	3.04802e-05
3030.85	2.61e-05
3039.52	1.64142e-05
3048.2	9.14227e-06
3056.88	6.39575e-06
3065.56	6.08598e-06
3074.24	6.69722e-06
3082.91	7.4674e-06
3091.59	7.41596e-06
3100.27	6.18611e-06
3108.95	4.87601e-06
3117.63	4.22034e-06
3126.31	4.0472e-06
3134.98	4.01983e-06
3143.66	4.11977e-06
3152.34	4.57958e-06
3161.02	5.73099e-06
3169.7	7.4653e-06
3178.37	9.10223e-06
3187.05	9.26014e-06
3195.73	8.06866e-06
3204.41	7.41977e-06
3213.09	7.99354e-06
3221.77	8.60725e-06
3230.44	9.24759e-06
3239.12	8.44997e-06
3247.8	6.13986e-06
3256.48	3.6188e-06
3265.16	2.20318e-06
3273.83	1.79359e-06
3282.51	1.71031e-06
3291.19	1.51585e-06
3299.87	1.92704e-06
3308.55	2.94378e-06
3317.22	3.77557e-06
3325.9	3.59802e-06
3334.58	2.75298e-06
3343.26	1.6924e-06
3351.94	1.06231e-06
3360.62	7.37163e-07
3369.29	6.21091e-07
3377.97	5.99343e-07
3386.65	7.62236e-07
3395.33	9.00079e-07
3404.01	9.39203e-07
3412.68	1.29066e-06
3421.36	2.12218e-06
3430.04	3.10491e-06
3438.72	2.94752e-06
3447.4	1.90429e-06
3456.08	1.14385e-06
3464.75	8.3383e-07
3473.43	1.03516e-06
3482.11	1.27935e-06
3490.79	1.18431e-06
3499.47	6.68313e-07
3508.14	3.66017e-07
3516.82	-7.33595e-09
3525.5	1.36613e-07
3534.18	7.38597e-08
3542.86	-4.01704e-08
3551.53	3.01732e-08
3560.21	2.24195e-07
3568.89	1.23587e-07
3577.57	-3.23888e-08
3586.25	1.67546e-07
3594.93	-3.42532e-08
3603.6	-1.22963e-08
3612.28	1.29444e-07
3620.96	1.46606e-07
3629.64	2.53295e-06
3638.32	2.95195e-07
3646.99	7.80721e-07
3655.67	5.09043e-07
3664.35	3.62103e-07
3673.03	2.93396e-07
3681.71	4.34669e-07
3690.39	9.04868e-07
3699.06	7.84244e-07
3707.74	1.37823e-06
3716.42	1.81568e-06
3725.1	1.75327e-06
3733.78	1.00297e-06
3742.45	6.91411e-07
3751.13	7.52774e-07
3759.81	1.40338e-06
3768.49	4.71682e-07
3777.17	6.5052e-07
3785.85	7.14806e-07
3794.52	1.10461e-06
3803.2	1.08968e-06
3811.88	1.015e-06
3820.56	2.03676e-06
3829.24	1.29705e-06
3837.91	5.46905e-06
3846.59	1.24713e-06
3855.27	1.01125e-06
3863.95	1.172e-06
3872.63	1.51669e-06
3881.3	2.05902e-06
3889.98	2.32955e-06
3898.66	2.36703e-06
3907.34	1.97997e-06
3916.02	1.47615e-06
3924.7	1.62102e-06
3933.37	1.71705e-06
3942.05	2.12901e-06
3950.73	2.46247e-06
3959.41	2.5594e-06
3968.09	2.45064e-06
