Infrared Spectrum: tert-Butyl Ethyl Ether
Formula: ( C H3)3 C O C2 H5
CAS: 637-92-3
State: gas
Melting point: -94 C
Boiling point: 73.1 C
Class: IUPAC A
Instrument: IFS66V (Bruker)
Instrument parameters: KBr Beam splitter; MCT Detector; Multipass cell
Sampling: 1 L/min Flow
Resolution: 0.1250
Temperature: 23 C
Pressure: 101.3 kPa
Origin: NIST, Anayltical Chemistry Division, 301-975-3108
cm-1	(micromol/mol)-1m-1 (base 10)
574.988	1.24775e-06
583.546	-6.02697e-07
592.103	2.8351e-07
600.661	-5.32028e-07
609.219	2.76481e-07
617.776	-1.79031e-07
626.334	1.29479e-07
634.891	4.51387e-07
643.449	6.61381e-08
652.007	2.57589e-07
660.564	1.47827e-07
669.122	1.47803e-07
677.68	-4.91143e-08
686.237	5.98079e-07
694.795	5.92167e-07
703.352	7.61289e-07
711.91	1.54526e-06
720.468	4.53047e-06
729.025	1.25468e-05
737.583	2.31341e-05
746.141	1.96814e-05
754.698	8.00451e-06
763.256	2.37774e-06
771.813	1.7219e-06
780.371	1.82902e-06
788.929	1.58476e-06
797.486	1.67867e-06
806.044	1.99248e-06
814.602	2.89551e-06
823.159	5.08672e-06
831.717	1.51606e-05
840.274	4.63396e-05
848.832	7.14701e-05
857.39	5.38691e-05
865.947	1.38064e-05
874.505	3.67195e-06
883.063	2.38599e-06
891.62	3.01879e-06
900.178	4.79291e-06
908.735	8.76005e-06
917.293	9.97324e-06
925.851	8.6859e-06
934.408	1.23701e-05
942.966	3.32916e-05
951.524	9.16951e-05
960.081	0.000122643
968.639	8.69083e-05
977.196	1.39332e-05
985.754	5.47366e-06
994.312	4.54793e-06
1002.87	6.77551e-06
1011.43	1.43582e-05
1019.98	2.91413e-05
1028.54	2.72885e-05
1037.1	2.07736e-05
1045.66	2.35091e-05
1054.22	4.78228e-05
1062.77	0.000128803
1071.33	0.000346378
1079.89	0.000529715
1088.45	0.000427879
1097	0.000126237
1105.56	0.000141291
1114.12	0.000308505
1122.68	0.000363365
1131.23	0.000218956
1139.79	6.29072e-05
1148.35	5.27161e-05
1156.91	6.41212e-05
1165.46	6.32487e-05
1174.02	5.98383e-05
1182.58	7.77741e-05
1191.14	0.000201042
1199.69	0.000481686
1208.25	0.000650726
1216.81	0.000407207
1225.37	0.000152743
1233.93	0.000153355
1242.48	0.000168445
1251.04	0.000154493
1259.6	0.000128249
1268.16	8.21826e-05
1276.71	4.15965e-05
1285.27	2.39849e-05
1293.83	1.7602e-05
1302.39	1.40046e-05
1310.94	1.01549e-05
1319.5	8.99905e-06
1328.06	8.04259e-06
1336.62	8.51738e-06
1345.17	2.26769e-05
1353.73	0.000113349
1362.29	0.0002585
1370.85	0.00026427
1379.4	0.000143307
1387.96	0.000180977
1396.52	0.000204778
1405.08	0.000122694
1413.64	3.12812e-05
1422.19	2.0854e-05
1430.75	2.33847e-05
1439.31	3.93566e-05
1447.87	5.87703e-05
1456.42	6.80454e-05
1464.98	7.67329e-05
1473.54	7.01807e-05
1482.1	6.13803e-05
1490.65	5.86819e-05
1499.21	4.06901e-05
1507.77	1.23458e-05
1516.33	5.22137e-06
1524.88	3.43002e-06
1533.44	2.94014e-06
1542	4.58922e-06
1550.56	2.49061e-06
1559.11	2.82983e-06
1567.67	2.58577e-06
1576.23	7.70678e-06
1584.79	3.14302e-06
1593.35	3.04267e-06
1601.9	2.35042e-06
1610.46	1.69177e-06
1619.02	1.5364e-06
1627.58	1.90978e-06
1636.13	2.5137e-06
1644.69	2.84025e-06
1653.25	8.32984e-06
1661.81	2.66949e-06
1670.36	2.53375e-06
1678.92	2.75245e-06
1687.48	3.60863e-06
1696.04	8.48809e-06
1704.59	5.19843e-06
1713.15	3.09759e-06
1721.71	2.02066e-06
1730.27	2.19888e-06
1738.83	2.7269e-06
1747.38	3.48674e-06
1755.94	3.8358e-06
1764.5	3.06027e-06
1773.06	2.30009e-06
1781.61	1.96522e-06
1790.17	3.31988e-06
1798.73	6.26266e-06
1807.29	8.82054e-06
1815.84	8.27492e-06
1824.4	4.75784e-06
1832.96	3.25061e-06
1841.52	2.07954e-06
1850.07	2.01184e-06
1858.63	2.22917e-06
1867.19	2.04315e-06
1875.75	1.67645e-06
1884.3	1.62883e-06
1892.86	1.99691e-06
1901.42	3.05243e-06
1909.98	5.4833e-06
1918.54	8.97911e-06
1927.09	1.1575e-05
1935.65	9.33719e-06
1944.21	4.28234e-06
1952.77	2.88159e-06
1961.32	3.71776e-06
1969.88	4.09944e-06
1978.44	3.13981e-06
1987	1.63579e-06
1995.55	1.11631e-06
2004.11	9.35731e-07
2012.67	9.34232e-07
2021.23	1.14453e-06
2029.78	1.42782e-06
2038.34	2.11702e-06
2046.9	3.05052e-06
2055.46	3.34307e-06
2064.01	2.06615e-06
2072.57	1.06919e-06
2081.13	1.15257e-06
2089.69	1.60355e-06
2098.25	2.21956e-06
2106.8	2.6411e-06
2115.36	2.13903e-06
2123.92	1.63348e-06
2132.48	1.70494e-06
2141.03	1.89846e-06
2149.59	2.00642e-06
2158.15	2.45587e-06
2166.71	2.83073e-06
2175.26	3.10273e-06
2183.82	3.80007e-06
2192.38	5.02403e-06
2200.94	4.9705e-06
2209.49	3.56518e-06
2218.05	2.17301e-06
2226.61	1.98848e-06
2235.17	2.51276e-06
2243.72	2.51408e-06
2252.28	2.15045e-06
2260.84	2.41235e-06
2269.4	3.479e-06
2277.96	3.8483e-06
2286.51	3.12359e-06
2295.07	2.12368e-06
2303.63	1.47358e-06
2312.19	1.63036e-06
2320.74	2.01396e-06
2329.3	2.44679e-06
2337.86	2.78217e-06
2346.42	2.44695e-06
2354.97	1.96566e-06
2363.53	1.51851e-06
2372.09	1.81915e-06
2380.65	2.07306e-06
2389.2	2.02913e-06
2397.76	1.73562e-06
2406.32	1.72151e-06
2414.88	1.68494e-06
2423.44	1.55862e-06
2431.99	1.87634e-06
2440.55	2.54645e-06
2449.11	2.61091e-06
2457.67	2.20613e-06
2466.22	1.71451e-06
2474.78	1.51082e-06
2483.34	1.25086e-06
2491.9	1.12637e-06
2500.45	9.09697e-07
2509.01	8.16467e-07
2517.57	8.40107e-07
2526.13	7.86842e-07
2534.68	7.81739e-07
2543.24	9.69038e-07
2551.8	1.28287e-06
2560.36	1.49455e-06
2568.91	1.8578e-06
2577.47	1.95225e-06
2586.03	2.31673e-06
2594.59	3.11849e-06
2603.15	4.74576e-06
2611.7	6.85248e-06
2620.26	9.06129e-06
2628.82	9.51407e-06
2637.38	7.41495e-06
2645.93	5.3374e-06
2654.49	4.7927e-06
2663.05	4.82683e-06
2671.61	4.62798e-06
2680.16	4.57901e-06
2688.72	4.62807e-06
2697.28	5.08029e-06
2705.84	7.21857e-06
2714.39	1.26945e-05
2722.95	1.75105e-05
2731.51	2.01889e-05
2740.07	1.93844e-05
2748.62	1.6532e-05
2757.18	1.40359e-05
2765.74	1.55378e-05
2774.3	1.82611e-05
2782.86	1.80484e-05
2791.41	1.61558e-05
2799.97	1.60724e-05
2808.53	2.00225e-05
2817.09	2.61202e-05
2825.64	3.26165e-05
2834.2	3.97791e-05
2842.76	5.11539e-05
2851.32	6.60216e-05
2859.87	9.19892e-05
2868.43	0.000155945
2876.99	0.000254123
2885.55	0.000331442
2894.1	0.000349899
2902.66	0.000330723
2911.22	0.000275894
2919.78	0.000224695
2928.34	0.000228092
2936.89	0.000295665
2945.45	0.000316788
2954.01	0.000252651
2962.57	0.000280333
2971.12	0.000676306
2979.68	0.0012505
2988.24	0.00114553
2996.8	0.000456015
3005.35	9.1404e-05
3013.91	3.32513e-05
3022.47	3.03387e-05
3031.03	2.56841e-05
3039.58	1.62691e-05
3048.14	9.21923e-06
3056.7	6.40688e-06
3065.26	6.2593e-06
3073.81	6.7093e-06
3082.37	7.51226e-06
3090.93	7.5153e-06
3099.49	6.22792e-06
3108.05	4.93343e-06
3116.6	4.12796e-06
3125.16	4.0671e-06
3133.72	4.06831e-06
3142.28	4.10655e-06
3150.83	4.53824e-06
3159.39	5.40594e-06
3167.95	6.97249e-06
3176.51	8.69036e-06
3185.06	9.23268e-06
3193.62	8.33704e-06
3202.18	7.42549e-06
3210.74	7.8061e-06
3219.29	8.47131e-06
3227.85	9.22531e-06
3236.41	8.85112e-06
3244.97	6.97434e-06
3253.52	4.42111e-06
3262.08	2.66264e-06
3270.64	1.91081e-06
3279.2	1.74971e-06
3287.76	1.54601e-06
3296.31	1.70403e-06
3304.87	2.30646e-06
3313.43	3.52994e-06
3321.99	3.74259e-06
3330.54	3.20406e-06
3339.1	2.28198e-06
3347.66	1.36482e-06
3356.22	7.95958e-07
3364.77	6.42224e-07
3373.33	7.80864e-07
3381.89	6.86569e-07
3390.45	7.10432e-07
3399	8.28753e-07
3407.56	9.99686e-07
3416.12	1.57883e-06
3424.68	2.54432e-06
3433.23	3.22158e-06
3441.79	2.51845e-06
3450.35	1.53238e-06
3458.91	8.73794e-07
3467.47	7.92297e-07
3476.02	9.10612e-07
3484.58	1.19298e-06
3493.14	9.85314e-07
3501.7	5.79467e-07
3510.25	2.21037e-07
3518.81	1.0014e-07
3527.37	6.86647e-08
3535.93	2.45453e-08
3544.48	5.11297e-08
3553.04	4.04723e-08
3561.6	5.01766e-08
3570.16	2.94511e-08
3578.71	-4.8836e-08
3587.27	1.17719e-07
3595.83	3.88225e-08
3604.39	-7.78724e-08
3612.95	8.28855e-08
3621.5	1.77894e-07
3630.06	3.72465e-07
3638.62	2.08621e-07
3647.18	1.04761e-06
3655.73	3.98837e-07
3664.29	2.54634e-07
3672.85	3.15833e-07
3681.41	3.89575e-07
3689.96	6.96882e-07
3698.52	7.45089e-07
3707.08	1.23013e-06
3715.64	1.82718e-06
3724.19	1.69534e-06
3732.75	9.04924e-07
3741.31	1.09243e-06
3749.87	1.09076e-06
3758.42	4.79216e-07
3766.98	4.73477e-07
3775.54	5.94266e-07
3784.1	6.75322e-07
3792.66	8.91429e-07
3801.21	2.28445e-06
3809.77	9.66491e-07
3818.33	1.09051e-06
3826.89	1.58419e-06
3835.44	1.42892e-06
3844	1.38774e-06
3852.56	1.49802e-06
3861.12	1.24869e-06
3869.67	1.41649e-06
3878.23	1.60108e-06
3886.79	2.1438e-06
3895.35	2.40124e-06
3903.9	2.38484e-06
3912.46	1.73261e-06
3921.02	1.6037e-06
3929.58	1.80631e-06
3938.13	1.95081e-06
3946.69	2.3213e-06
3955.25	2.59029e-06
3963.81	2.68349e-06
3972.37	2.41028e-06
