Infrared Spectrum: tert-Butyl Ethyl Ether
Formula: ( C H3)3 C O C2 H5
CAS: 637-92-3
State: gas
Melting point: -94 C
Boiling point: 73.1 C
Class: IUPAC A
Instrument: IFS66V (Bruker)
Instrument parameters: KBr Beam splitter; MCT Detector; Multipass cell
Sampling: 1 L/min Flow
Resolution: 0.4820
Temperature: 23 C
Pressure: 101.3 kPa
Origin: NIST, Anayltical Chemistry Division, 301-975-3108
cm-1	(micromol/mol)-1m-1 (base 10)
574.928	1.18341e-07
583.606	-1.95051e-07
592.284	-5.24739e-08
600.962	-3.28633e-07
609.641	1.55486e-07
618.319	1.71635e-07
626.997	8.08136e-08
635.675	1.04033e-07
644.353	-1.238e-08
653.031	9.73354e-08
661.71	-3.11282e-08
670.388	7.13586e-09
679.066	1.67324e-07
687.744	3.49293e-07
696.422	6.44201e-07
705.1	9.21741e-07
713.778	2.09446e-06
722.457	5.76267e-06
731.135	1.58967e-05
739.813	2.33252e-05
748.491	1.90755e-05
757.169	5.13358e-06
765.847	2.03014e-06
774.526	1.72418e-06
783.204	1.54947e-06
791.882	1.48026e-06
800.56	1.70951e-06
809.238	2.40079e-06
817.916	3.38099e-06
826.594	7.33784e-06
835.273	2.4968e-05
843.951	6.1038e-05
852.629	6.36387e-05
861.307	3.13074e-05
869.985	6.87921e-06
878.663	2.62174e-06
887.342	2.72574e-06
896.02	3.74057e-06
904.698	6.79449e-06
913.376	9.3007e-06
922.054	9.87344e-06
930.732	9.56122e-06
939.41	2.11715e-05
948.089	6.35353e-05
956.767	0.000116262
965.445	0.000102367
974.123	2.80105e-05
982.801	6.57849e-06
991.479	4.47429e-06
1000.16	5.65607e-06
1008.84	1.13238e-05
1017.51	2.54682e-05
1026.19	3.16369e-05
1034.87	2.37726e-05
1043.55	2.08779e-05
1052.23	3.93592e-05
1060.9	0.000102095
1069.58	0.000291118
1078.26	0.000520525
1086.94	0.000464591
1095.62	0.000165575
1104.3	0.000124246
1112.97	0.000284247
1121.65	0.000366915
1130.33	0.000241054
1139.01	6.81753e-05
1147.69	5.19282e-05
1156.36	6.33765e-05
1165.04	6.37078e-05
1173.72	5.97014e-05
1182.4	7.67711e-05
1191.08	0.000199544
1199.76	0.000484079
1208.43	0.00065191
1217.11	0.000392216
1225.79	0.000150512
1234.47	0.000154549
1243.15	0.000168167
1251.82	0.000153042
1260.5	0.000124132
1269.18	7.65773e-05
1277.86	3.79829e-05
1286.54	2.27382e-05
1295.21	1.69478e-05
1303.89	1.31464e-05
1312.57	9.79189e-06
1321.25	8.87768e-06
1329.93	7.81143e-06
1338.61	9.38825e-06
1347.28	3.45728e-05
1355.96	0.000150543
1364.64	0.000304313
1373.32	0.000229488
1382	0.000129648
1390.67	0.000196376
1399.35	0.000193933
1408.03	6.85052e-05
1416.71	2.5328e-05
1425.39	2.0369e-05
1434.07	2.87535e-05
1442.74	4.64785e-05
1451.42	6.14378e-05
1460.1	7.25036e-05
1468.78	7.73422e-05
1477.46	6.20798e-05
1486.13	6.15989e-05
1494.81	4.77851e-05
1503.49	2.34643e-05
1512.17	7.62696e-06
1520.85	4.44736e-06
1529.52	2.80876e-06
1538.2	2.8578e-06
1546.88	2.44745e-06
1555.56	2.48996e-06
1564.24	2.60138e-06
1572.92	2.73409e-06
1581.59	3.04464e-06
1590.27	3.12289e-06
1598.95	2.65625e-06
1607.63	1.84994e-06
1616.31	2.45339e-06
1624.98	1.65342e-06
1633.66	2.054e-06
1642.34	2.68807e-06
1651.02	3.02756e-06
1659.7	2.74445e-06
1668.38	2.70618e-06
1677.05	2.68092e-06
1685.73	3.48136e-06
1694.41	4.56486e-06
1703.09	4.67635e-06
1711.77	3.41034e-06
1720.44	2.08068e-06
1729.12	2.01142e-06
1737.8	2.65865e-06
1746.48	3.3335e-06
1755.16	3.86409e-06
1763.84	3.1613e-06
1772.51	3.26672e-06
1781.19	2.03533e-06
1789.87	3.21045e-06
1798.55	6.18215e-06
1807.23	8.79118e-06
1815.9	8.27211e-06
1824.58	4.71714e-06
1833.26	3.27115e-06
1841.94	2.05736e-06
1850.62	2.02918e-06
1859.29	2.16518e-06
1867.97	2.19936e-06
1876.65	1.64531e-06
1885.33	1.58962e-06
1894.01	2.0876e-06
1902.69	3.28943e-06
1911.36	5.85314e-06
1920.04	9.66902e-06
1928.72	1.14548e-05
1937.4	8.41505e-06
1946.08	3.46895e-06
1954.75	3.0065e-06
1963.43	3.9665e-06
1972.11	4.00215e-06
1980.79	2.62295e-06
1989.47	1.38335e-06
1998.15	1.02674e-06
2006.82	9.54854e-07
2015.5	1.01621e-06
2024.18	1.14015e-06
2032.86	1.56939e-06
2041.54	2.49282e-06
2050.21	3.30699e-06
2058.89	2.96112e-06
2067.57	1.51004e-06
2076.25	1.05418e-06
2084.93	1.25599e-06
2093.6	1.81553e-06
2102.28	2.4615e-06
2110.96	2.46817e-06
2119.64	1.78521e-06
2128.32	1.65112e-06
2137	1.83963e-06
2145.67	1.96569e-06
2154.35	2.23129e-06
2163.03	2.68861e-06
2171.71	3.0186e-06
2180.39	3.43958e-06
2189.06	4.52825e-06
2197.74	5.17555e-06
2206.42	4.17917e-06
2215.1	2.54352e-06
2223.78	2.00941e-06
2232.46	2.30027e-06
2241.13	2.56954e-06
2249.81	2.17956e-06
2258.49	2.18651e-06
2267.17	3.16707e-06
2275.85	3.83982e-06
2284.52	3.34262e-06
2293.2	2.38609e-06
2301.88	1.55778e-06
2310.56	1.55907e-06
2319.24	1.93935e-06
2327.92	2.38547e-06
2336.59	2.66983e-06
2345.27	2.46093e-06
2353.95	2.04832e-06
2362.63	1.62402e-06
2371.31	1.7955e-06
2379.98	2.08788e-06
2388.66	2.09334e-06
2397.34	1.80134e-06
2406.02	1.67547e-06
2414.7	1.63531e-06
2423.37	1.54962e-06
2432.05	1.93399e-06
2440.73	2.55551e-06
2449.41	2.64538e-06
2458.09	2.15251e-06
2466.77	1.73687e-06
2475.44	1.52066e-06
2484.12	1.26988e-06
2492.8	1.10001e-06
2501.48	8.75441e-07
2510.16	7.76983e-07
2518.83	8.65516e-07
2527.51	8.3053e-07
2536.19	8.34628e-07
2544.87	9.90713e-07
2553.55	1.31858e-06
2562.23	1.61323e-06
2570.9	1.85255e-06
2579.58	2.03294e-06
2588.26	2.38377e-06
2596.94	3.47964e-06
2605.62	5.27511e-06
2614.29	7.58265e-06
2622.97	9.40501e-06
2631.65	8.8804e-06
2640.33	6.54928e-06
2649.01	5.02357e-06
2657.68	4.75552e-06
2666.36	4.78747e-06
2675.04	4.62576e-06
2683.72	4.56016e-06
2692.4	4.73228e-06
2701.08	5.6704e-06
2709.75	9.4265e-06
2718.43	1.55648e-05
2727.11	1.91543e-05
2735.79	1.99307e-05
2744.47	1.84021e-05
2753.14	1.48632e-05
2761.82	1.42982e-05
2770.5	1.71439e-05
2779.18	1.82032e-05
2787.86	1.69452e-05
2796.54	1.58107e-05
2805.21	1.817e-05
2813.89	2.36394e-05
2822.57	3.03775e-05
2831.25	3.67367e-05
2839.93	4.723e-05
2848.6	6.06773e-05
2857.28	8.19219e-05
2865.96	0.000131948
2874.64	0.000227493
2883.32	0.000318075
2892	0.000345896
2900.67	0.000341744
2909.35	0.000287185
2918.03	0.000233257
2926.71	0.000217803
2935.39	0.000287782
2944.06	0.000316906
2952.74	0.000262815
2961.42	0.000261083
2970.1	0.000616794
2978.78	0.00117775
2987.45	0.00120794
2996.13	0.000506773
3004.81	0.000101847
3013.49	3.39065e-05
3022.17	3.04191e-05
3030.85	2.6027e-05
3039.52	1.64061e-05
3048.2	9.12204e-06
3056.88	6.40644e-06
3065.56	6.16348e-06
3074.24	6.76573e-06
3082.91	7.52101e-06
3091.59	7.37728e-06
3100.27	6.17391e-06
3108.95	4.85311e-06
3117.63	4.21234e-06
3126.31	4.0471e-06
3134.98	3.99684e-06
3143.66	4.1156e-06
3152.34	4.61872e-06
3161.02	5.72724e-06
3169.7	7.42052e-06
3178.37	9.08102e-06
3187.05	9.20552e-06
3195.73	8.06539e-06
3204.41	7.46507e-06
3213.09	7.98791e-06
3221.77	8.76209e-06
3230.44	9.22517e-06
3239.12	8.42135e-06
3247.8	6.21307e-06
3256.48	3.64097e-06
3265.16	2.21957e-06
3273.83	1.79867e-06
3282.51	1.64478e-06
3291.19	1.56803e-06
3299.87	1.89523e-06
3308.55	2.87904e-06
3317.22	3.74889e-06
3325.9	3.66059e-06
3334.58	2.74697e-06
3343.26	1.6942e-06
3351.94	1.0583e-06
3360.62	7.18861e-07
3369.29	5.88151e-07
3377.97	6.14199e-07
3386.65	7.41514e-07
3395.33	8.72117e-07
3404.01	9.60749e-07
3412.68	1.2976e-06
3421.36	2.12252e-06
3430.04	3.08427e-06
3438.72	2.93155e-06
3447.4	1.95262e-06
3456.08	1.06364e-06
3464.75	8.05912e-07
3473.43	1.00131e-06
3482.11	1.26194e-06
3490.79	1.20855e-06
3499.47	7.18803e-07
3508.14	3.09747e-07
3516.82	3.14411e-08
3525.5	7.39306e-08
3534.18	3.90153e-08
3542.86	2.21643e-08
3551.53	5.1077e-08
3560.21	1.21117e-07
3568.89	6.97815e-08
3577.57	3.30872e-09
3586.25	3.07502e-07
3594.93	8.93556e-08
3603.6	7.85799e-09
3612.28	3.0356e-07
3620.96	1.44201e-07
3629.64	1.61979e-06
3638.32	2.76096e-07
3646.99	7.00109e-07
3655.67	4.05771e-07
3664.35	2.69305e-07
3673.03	3.40573e-07
3681.71	4.3287e-07
3690.39	7.42835e-07
3699.06	7.88379e-07
3707.74	1.36959e-06
3716.42	1.79104e-06
3725.1	1.67597e-06
3733.78	9.99755e-07
3742.45	6.36206e-07
3751.13	6.96486e-07
3759.81	1.03467e-06
3768.49	4.87432e-07
3777.17	5.92866e-07
3785.85	8.03222e-07
3794.52	1.03372e-06
3803.2	1.20497e-06
3811.88	1.05921e-06
3820.56	1.90937e-06
3829.24	1.24631e-06
3837.91	3.71759e-06
3846.59	1.18088e-06
3855.27	1.20541e-06
3863.95	1.31458e-06
3872.63	1.48423e-06
3881.3	2.03654e-06
3889.98	2.31756e-06
3898.66	2.42632e-06
3907.34	1.96826e-06
3916.02	1.63666e-06
3924.7	1.67429e-06
3933.37	1.83111e-06
3942.05	2.11224e-06
3950.73	2.43594e-06
3959.41	2.5689e-06
3968.09	2.44993e-06
