Infrared Spectrum: tert-Butyl Ethyl Ether
Formula: ( C H3)3 C O C2 H5
CAS: 637-92-3
State: gas
Melting point: -94 C
Boiling point: 73.1 C
Class: IUPAC A
Instrument: IFS66V (Bruker)
Instrument parameters: KBr Beam splitter; MCT Detector; Multipass cell
Sampling: 1 L/min Flow
Resolution: 0.1250
Temperature: 23 C
Pressure: 101.3 kPa
Origin: NIST, Anayltical Chemistry Division, 301-975-3108
cm-1	(micromol/mol)-1m-1 (base 10)
574.988	1.09311e-06
583.546	-5.98683e-07
592.103	8.15667e-08
600.661	-4.90242e-07
609.219	2.55343e-07
617.776	-1.46968e-07
626.334	1.15398e-07
634.891	4.51347e-07
643.449	6.19999e-08
652.007	2.28737e-07
660.564	1.08489e-07
669.122	1.70877e-07
677.68	-3.67561e-08
686.237	5.7401e-07
694.795	5.68258e-07
703.352	7.62636e-07
711.91	1.56081e-06
720.468	4.49658e-06
729.025	1.25393e-05
737.583	2.31286e-05
746.141	1.96679e-05
754.698	7.99793e-06
763.256	2.41653e-06
771.813	1.73247e-06
780.371	1.79595e-06
788.929	1.56623e-06
797.486	1.67106e-06
806.044	2.00639e-06
814.602	2.85887e-06
823.159	5.05384e-06
831.717	1.5188e-05
840.274	4.63644e-05
848.832	7.14668e-05
857.39	5.38438e-05
865.947	1.38243e-05
874.505	3.68151e-06
883.063	2.40673e-06
891.62	3.02126e-06
900.178	4.78485e-06
908.735	8.74976e-06
917.293	9.97771e-06
925.851	8.70358e-06
934.408	1.23898e-05
942.966	3.32886e-05
951.524	9.1693e-05
960.081	0.000122639
968.639	8.69421e-05
977.196	1.39148e-05
985.754	5.44838e-06
994.312	4.53971e-06
1002.87	6.78395e-06
1011.43	1.43551e-05
1019.98	2.91394e-05
1028.54	2.72577e-05
1037.1	2.07797e-05
1045.66	2.34948e-05
1054.22	4.78387e-05
1062.77	0.000128752
1071.33	0.000346362
1079.89	0.00052969
1088.45	0.000428071
1097	0.000126216
1105.56	0.000141326
1114.12	0.000308437
1122.68	0.000363403
1131.23	0.000218971
1139.79	6.29168e-05
1148.35	5.27087e-05
1156.91	6.41032e-05
1165.46	6.32798e-05
1174.02	5.98087e-05
1182.58	7.77672e-05
1191.14	0.00020107
1199.69	0.000481722
1208.25	0.000650673
1216.81	0.000407154
1225.37	0.000152744
1233.93	0.000153362
1242.48	0.000168448
1251.04	0.000154475
1259.6	0.000128235
1268.16	8.21884e-05
1276.71	4.15965e-05
1285.27	2.39968e-05
1293.83	1.76123e-05
1302.39	1.40085e-05
1310.94	1.01539e-05
1319.5	8.99748e-06
1328.06	8.03922e-06
1336.62	8.50131e-06
1345.17	2.26665e-05
1353.73	0.000113335
1362.29	0.000258511
1370.85	0.000264296
1379.4	0.000143271
1387.96	0.000180913
1396.52	0.000204754
1405.08	0.000122675
1413.64	3.12839e-05
1422.19	2.08588e-05
1430.75	2.33764e-05
1439.31	3.9357e-05
1447.87	5.87743e-05
1456.42	6.80551e-05
1464.98	7.67356e-05
1473.54	7.00652e-05
1482.1	6.13785e-05
1490.65	5.87225e-05
1499.21	4.06929e-05
1507.77	1.23454e-05
1516.33	5.21163e-06
1524.88	3.42118e-06
1533.44	2.95218e-06
1542	4.57691e-06
1550.56	2.49928e-06
1559.11	2.84487e-06
1567.67	2.59067e-06
1576.23	7.54444e-06
1584.79	3.14344e-06
1593.35	3.03619e-06
1601.9	2.34921e-06
1610.46	1.69e-06
1619.02	1.54315e-06
1627.58	1.91503e-06
1636.13	2.51794e-06
1644.69	2.83169e-06
1653.25	8.12789e-06
1661.81	2.6745e-06
1670.36	2.53293e-06
1678.92	2.7541e-06
1687.48	3.60957e-06
1696.04	8.56059e-06
1704.59	5.21654e-06
1713.15	3.0977e-06
1721.71	2.01725e-06
1730.27	2.19837e-06
1738.83	2.71657e-06
1747.38	3.48566e-06
1755.94	3.83937e-06
1764.5	3.06755e-06
1773.06	2.31901e-06
1781.61	1.96994e-06
1790.17	3.31742e-06
1798.73	6.26622e-06
1807.29	8.80564e-06
1815.84	8.27758e-06
1824.4	4.75379e-06
1832.96	3.25607e-06
1841.52	2.07432e-06
1850.07	2.01605e-06
1858.63	2.2208e-06
1867.19	2.04201e-06
1875.75	1.67189e-06
1884.3	1.6214e-06
1892.86	2.00145e-06
1901.42	3.05541e-06
1909.98	5.47394e-06
1918.54	8.97965e-06
1927.09	1.15646e-05
1935.65	9.32896e-06
1944.21	4.28884e-06
1952.77	2.87359e-06
1961.32	3.72168e-06
1969.88	4.10552e-06
1978.44	3.13394e-06
1987	1.63291e-06
1995.55	1.10785e-06
2004.11	9.38927e-07
2012.67	9.35767e-07
2021.23	1.1315e-06
2029.78	1.42352e-06
2038.34	2.12132e-06
2046.9	3.06106e-06
2055.46	3.33842e-06
2064.01	2.05883e-06
2072.57	1.06608e-06
2081.13	1.14423e-06
2089.69	1.60597e-06
2098.25	2.2146e-06
2106.8	2.64371e-06
2115.36	2.13266e-06
2123.92	1.63528e-06
2132.48	1.70849e-06
2141.03	1.90112e-06
2149.59	2.00707e-06
2158.15	2.45186e-06
2166.71	2.83863e-06
2175.26	3.10947e-06
2183.82	3.80311e-06
2192.38	5.01723e-06
2200.94	4.97527e-06
2209.49	3.56048e-06
2218.05	2.16769e-06
2226.61	2.00095e-06
2235.17	2.50402e-06
2243.72	2.51509e-06
2252.28	2.14808e-06
2260.84	2.41535e-06
2269.4	3.47621e-06
2277.96	3.84464e-06
2286.51	3.13056e-06
2295.07	2.13187e-06
2303.63	1.47545e-06
2312.19	1.6245e-06
2320.74	2.01293e-06
2329.3	2.44462e-06
2337.86	2.78972e-06
2346.42	2.4383e-06
2354.97	1.96922e-06
2363.53	1.53159e-06
2372.09	1.81247e-06
2380.65	2.06851e-06
2389.2	2.04044e-06
2397.76	1.74076e-06
2406.32	1.72208e-06
2414.88	1.67975e-06
2423.44	1.56244e-06
2431.99	1.88323e-06
2440.55	2.55308e-06
2449.11	2.62163e-06
2457.67	2.20527e-06
2466.22	1.71661e-06
2474.78	1.50884e-06
2483.34	1.2585e-06
2491.9	1.12251e-06
2500.45	9.14696e-07
2509.01	8.02107e-07
2517.57	8.39892e-07
2526.13	7.78702e-07
2534.68	7.88122e-07
2543.24	9.62531e-07
2551.8	1.27433e-06
2560.36	1.50589e-06
2568.91	1.84545e-06
2577.47	1.95132e-06
2586.03	2.30939e-06
2594.59	3.10818e-06
2603.15	4.7336e-06
2611.7	6.85683e-06
2620.26	9.06121e-06
2628.82	9.50413e-06
2637.38	7.41438e-06
2645.93	5.33289e-06
2654.49	4.78736e-06
2663.05	4.8143e-06
2671.61	4.63373e-06
2680.16	4.57663e-06
2688.72	4.61639e-06
2697.28	5.07612e-06
2705.84	7.22145e-06
2714.39	1.26921e-05
2722.95	1.75262e-05
2731.51	2.01785e-05
2740.07	1.94014e-05
2748.62	1.6517e-05
2757.18	1.40275e-05
2765.74	1.55239e-05
2774.3	1.82413e-05
2782.86	1.80487e-05
2791.41	1.61719e-05
2799.97	1.60648e-05
2808.53	2.00219e-05
2817.09	2.60977e-05
2825.64	3.257e-05
2834.2	3.97711e-05
2842.76	5.11788e-05
2851.32	6.60289e-05
2859.87	9.20219e-05
2868.43	0.000155943
2876.99	0.000254141
2885.55	0.000331288
2894.1	0.000349883
2902.66	0.000330735
2911.22	0.00027592
2919.78	0.000224684
2928.34	0.000228106
2936.89	0.000295704
2945.45	0.000316689
2954.01	0.000252758
2962.57	0.000280354
2971.12	0.000676164
2979.68	0.00125076
2988.24	0.00114517
2996.8	0.000455946
3005.35	9.14165e-05
3013.91	3.32587e-05
3022.47	3.03386e-05
3031.03	2.56934e-05
3039.58	1.62822e-05
3048.14	9.21511e-06
3056.7	6.40283e-06
3065.26	6.24905e-06
3073.81	6.71727e-06
3082.37	7.5025e-06
3090.93	7.51496e-06
3099.49	6.21598e-06
3108.05	4.93322e-06
3116.6	4.15e-06
3125.16	4.06615e-06
3133.72	4.06296e-06
3142.28	4.09649e-06
3150.83	4.54535e-06
3159.39	5.4108e-06
3167.95	6.99643e-06
3176.51	8.69208e-06
3185.06	9.25294e-06
3193.62	8.32911e-06
3202.18	7.43259e-06
3210.74	7.81125e-06
3219.29	8.47584e-06
3227.85	9.22059e-06
3236.41	8.83987e-06
3244.97	6.97707e-06
3253.52	4.41237e-06
3262.08	2.65367e-06
3270.64	1.89487e-06
3279.2	1.74546e-06
3287.76	1.54435e-06
3296.31	1.71975e-06
3304.87	2.30342e-06
3313.43	3.51976e-06
3321.99	3.74871e-06
3330.54	3.21043e-06
3339.1	2.27472e-06
3347.66	1.3674e-06
3356.22	8.0026e-07
3364.77	6.58544e-07
3373.33	7.62367e-07
3381.89	6.84771e-07
3390.45	7.04207e-07
3399	8.20717e-07
3407.56	1.01088e-06
3416.12	1.57702e-06
3424.68	2.54134e-06
3433.23	3.20828e-06
3441.79	2.52353e-06
3450.35	1.53592e-06
3458.91	8.88403e-07
3467.47	8.11683e-07
3476.02	9.30579e-07
3484.58	1.2139e-06
3493.14	1.00229e-06
3501.7	5.82226e-07
3510.25	2.06873e-07
3518.81	1.13222e-07
3527.37	7.28029e-08
3535.93	2.21115e-08
3544.48	4.55454e-08
3553.04	5.20265e-08
3561.6	5.50187e-08
3570.16	2.72592e-08
3578.71	-5.80109e-08
3587.27	1.04117e-07
3595.83	3.57539e-08
3604.39	-7.13313e-08
3612.95	1.12076e-07
3621.5	1.73358e-07
3630.06	3.77991e-07
3638.62	2.12642e-07
3647.18	1.01229e-06
3655.73	3.82908e-07
3664.29	2.59969e-07
3672.85	3.25086e-07
3681.41	3.76474e-07
3689.96	6.83022e-07
3698.52	7.60725e-07
3707.08	1.24908e-06
3715.64	1.81994e-06
3724.19	1.69093e-06
3732.75	9.22807e-07
3741.31	1.0687e-06
3749.87	1.07813e-06
3758.42	4.77757e-07
3766.98	4.85078e-07
3775.54	5.93224e-07
3784.1	6.86494e-07
3792.66	8.88166e-07
3801.21	2.32339e-06
3809.77	9.8566e-07
3818.33	1.10881e-06
3826.89	1.60366e-06
3835.44	1.43835e-06
3844	1.40232e-06
3852.56	1.50008e-06
3861.12	1.26471e-06
3869.67	1.44076e-06
3878.23	1.59728e-06
3886.79	2.15648e-06
3895.35	2.38877e-06
3903.9	2.40121e-06
3912.46	1.73005e-06
3921.02	1.60094e-06
3929.58	1.79995e-06
3938.13	1.95946e-06
3946.69	2.30212e-06
3955.25	2.58209e-06
3963.81	2.67383e-06
3972.37	2.40774e-06
