Infrared Spectrum: tert-Butyl Ethyl Ether
Formula: ( C H3)3 C O C2 H5
CAS: 637-92-3
State: gas
Melting point: -94 C
Boiling point: 73.1 C
Class: IUPAC A
Instrument: IFS66V (Bruker)
Instrument parameters: KBr Beam splitter; MCT Detector; Multipass cell
Sampling: 1 L/min Flow
Resolution: 0.9640
Temperature: 23 C
Pressure: 101.3 kPa
Origin: NIST, Anayltical Chemistry Division, 301-975-3108
cm-1	(micromol/mol)-1m-1 (base 10)
575.169	-5.67758e-08
583.847	-1.67841e-07
592.525	2.94438e-08
601.203	-1.21244e-07
609.882	1.88723e-07
618.56	1.54657e-07
627.238	1.48061e-07
635.916	1.79934e-07
644.594	2.5171e-08
653.272	6.4059e-08
661.951	5.04803e-08
670.629	7.25082e-08
679.307	1.83009e-07
687.985	3.76893e-07
696.663	6.44667e-07
705.341	9.78047e-07
714.019	2.20537e-06
722.698	6.0519e-06
731.376	1.61677e-05
740.054	2.32112e-05
748.732	1.85895e-05
757.41	5.04018e-06
766.088	2.10406e-06
774.767	1.78003e-06
783.445	1.61188e-06
792.123	1.57225e-06
800.801	1.80895e-06
809.479	2.54718e-06
818.157	3.58756e-06
826.835	7.83265e-06
835.514	2.59689e-05
844.192	6.10433e-05
852.87	6.30619e-05
861.548	3.02068e-05
870.226	6.90997e-06
878.904	2.82548e-06
887.583	2.92517e-06
896.261	3.90368e-06
904.939	7.05812e-06
913.617	9.44828e-06
922.295	9.9241e-06
930.973	9.99969e-06
939.651	2.22328e-05
948.33	6.53504e-05
957.008	0.000115448
965.686	0.000101203
974.364	2.72372e-05
983.042	6.98297e-06
991.72	4.83356e-06
1000.4	6.10405e-06
1009.08	1.19214e-05
1017.75	2.59932e-05
1026.43	3.1766e-05
1035.11	2.38898e-05
1043.79	2.20185e-05
1052.47	4.15236e-05
1061.15	0.000106869
1069.82	0.00029785
1078.5	0.000517193
1087.18	0.000455721
1095.86	0.000161389
1104.54	0.000129793
1113.21	0.000288028
1121.89	0.000362965
1130.57	0.000234035
1139.25	6.86255e-05
1147.93	5.32725e-05
1156.61	6.42153e-05
1165.28	6.41637e-05
1173.96	6.08591e-05
1182.64	8.00895e-05
1191.32	0.000207564
1200	0.000489474
1208.67	0.000645083
1217.35	0.000379089
1226.03	0.00015192
1234.71	0.000155621
1243.39	0.000167706
1252.07	0.000152269
1260.74	0.000122858
1269.42	7.55444e-05
1278.1	3.79245e-05
1286.78	2.2995e-05
1295.46	1.72267e-05
1304.13	1.3364e-05
1312.81	1.01219e-05
1321.49	9.22868e-06
1330.17	8.30484e-06
1338.85	1.03811e-05
1347.52	3.7721e-05
1356.2	0.000154098
1364.88	0.000305538
1373.56	0.000224312
1382.24	0.000131709
1390.92	0.000195273
1399.59	0.000192815
1408.27	6.68249e-05
1416.95	2.59371e-05
1425.63	2.09806e-05
1434.31	2.96116e-05
1442.98	4.71094e-05
1451.66	6.15381e-05
1460.34	7.25116e-05
1469.02	7.67377e-05
1477.7	6.18883e-05
1486.38	6.10302e-05
1495.05	4.75631e-05
1503.73	2.2889e-05
1512.41	7.59912e-06
1521.09	5.20067e-06
1529.77	2.95996e-06
1538.44	3.37104e-06
1547.12	2.55956e-06
1555.8	2.63902e-06
1564.48	2.7925e-06
1573.16	2.80757e-06
1581.83	3.08743e-06
1590.51	3.15074e-06
1599.19	2.67204e-06
1607.87	1.87778e-06
1616.55	3.14366e-06
1625.23	1.71919e-06
1633.9	2.16655e-06
1642.58	2.72715e-06
1651.26	3.16403e-06
1659.94	2.77499e-06
1668.62	2.79265e-06
1677.29	2.7448e-06
1685.97	3.54219e-06
1694.65	4.70567e-06
1703.33	4.70036e-06
1712.01	3.38617e-06
1720.69	2.13857e-06
1729.36	2.1081e-06
1738.04	2.70588e-06
1746.72	3.44544e-06
1755.4	3.89645e-06
1764.08	3.15348e-06
1772.75	3.14433e-06
1781.43	2.06301e-06
1790.11	3.33943e-06
1798.79	6.29286e-06
1807.47	8.79577e-06
1816.15	8.16998e-06
1824.82	4.82939e-06
1833.5	3.26209e-06
1842.18	2.09094e-06
1850.86	2.05917e-06
1859.54	2.18977e-06
1868.21	2.14204e-06
1876.89	1.65046e-06
1885.57	1.62125e-06
1894.25	2.14828e-06
1902.93	3.36643e-06
1911.6	5.96586e-06
1920.28	9.7242e-06
1928.96	1.13298e-05
1937.64	8.28998e-06
1946.32	3.46318e-06
1955	3.0675e-06
1963.67	3.97624e-06
1972.35	3.9499e-06
1981.03	2.58927e-06
1989.71	1.40464e-06
1998.39	1.05127e-06
2007.06	9.74404e-07
2015.74	1.03047e-06
2024.42	1.18387e-06
2033.1	1.61547e-06
2041.78	2.51531e-06
2050.46	3.30892e-06
2059.13	2.9154e-06
2067.81	1.51375e-06
2076.49	1.07559e-06
2085.17	1.30546e-06
2093.85	1.85942e-06
2102.52	2.48432e-06
2111.2	2.44496e-06
2119.88	1.78454e-06
2128.56	1.66888e-06
2137.24	1.86179e-06
2145.91	1.98396e-06
2154.59	2.26149e-06
2163.27	2.70158e-06
2171.95	3.03465e-06
2180.63	3.47913e-06
2189.31	4.56498e-06
2197.98	5.14e-06
2206.66	4.12246e-06
2215.34	2.52264e-06
2224.02	2.0383e-06
2232.7	2.33211e-06
2241.37	2.56676e-06
2250.05	2.1957e-06
2258.73	2.23167e-06
2267.41	3.19802e-06
2276.09	3.81694e-06
2284.77	3.33563e-06
2293.44	2.37497e-06
2302.12	1.57628e-06
2310.8	1.58548e-06
2319.48	1.95918e-06
2328.16	2.43813e-06
2336.83	2.68973e-06
2345.51	2.47142e-06
2354.19	2.05686e-06
2362.87	1.63282e-06
2371.55	1.82572e-06
2380.23	2.09927e-06
2388.9	2.09583e-06
2397.58	1.80512e-06
2406.26	1.7063e-06
2414.94	1.64976e-06
2423.62	1.56456e-06
2432.29	1.9751e-06
2440.97	2.56464e-06
2449.65	2.63723e-06
2458.33	2.15224e-06
2467.01	1.74225e-06
2475.68	1.54778e-06
2484.36	1.28811e-06
2493.04	1.12731e-06
2501.72	8.98381e-07
2510.4	7.91844e-07
2519.08	8.61653e-07
2527.75	8.71501e-07
2536.43	8.66167e-07
2545.11	1.0433e-06
2553.79	1.36074e-06
2562.47	1.65153e-06
2571.14	1.88725e-06
2579.82	2.04976e-06
2588.5	2.45903e-06
2597.18	3.55171e-06
2605.86	5.35686e-06
2614.54	7.6706e-06
2623.21	9.43688e-06
2631.89	8.83102e-06
2640.57	6.51483e-06
2649.25	5.04256e-06
2657.93	4.81963e-06
2666.6	4.83882e-06
2675.28	4.67875e-06
2683.96	4.64059e-06
2692.64	4.85016e-06
2701.32	5.84026e-06
2709.99	9.67022e-06
2718.67	1.57472e-05
2727.35	1.92325e-05
2736.03	1.99121e-05
2744.71	1.83654e-05
2753.39	1.49099e-05
2762.06	1.44937e-05
2770.74	1.73367e-05
2779.42	1.82938e-05
2788.1	1.70352e-05
2796.78	1.60299e-05
2805.45	1.85705e-05
2814.13	2.40688e-05
2822.81	3.07809e-05
2831.49	3.72975e-05
2840.17	4.79397e-05
2848.85	6.16532e-05
2857.52	8.35205e-05
2866.2	0.000134821
2874.88	0.000229747
2883.56	0.000318173
2892.24	0.000345147
2900.91	0.000339367
2909.59	0.000285485
2918.27	0.000232666
2926.95	0.000220404
2935.63	0.000288889
2944.31	0.000316397
2952.98	0.000262562
2961.66	0.000269536
2970.34	0.000630794
2979.02	0.00118814
2987.7	0.00117645
2996.37	0.000490127
3005.05	0.000102124
3013.73	3.60235e-05
3022.41	3.15669e-05
3031.09	2.65282e-05
3039.76	1.67577e-05
3048.44	9.52375e-06
3057.12	6.81927e-06
3065.8	6.52417e-06
3074.48	7.09699e-06
3083.16	7.71923e-06
3091.83	7.52176e-06
3100.51	6.29485e-06
3109.19	5.01711e-06
3117.87	4.34419e-06
3126.55	4.16514e-06
3135.22	4.08887e-06
3143.9	4.21784e-06
3152.58	4.73874e-06
3161.26	5.84659e-06
3169.94	7.5294e-06
3178.62	9.14734e-06
3187.29	9.208e-06
3195.97	8.09228e-06
3204.65	7.51523e-06
3213.33	8.06806e-06
3222.01	8.86325e-06
3230.68	9.23089e-06
3239.36	8.37692e-06
3248.04	6.13586e-06
3256.72	3.62741e-06
3265.4	2.28316e-06
3274.07	1.80963e-06
3282.75	1.67124e-06
3291.43	1.61448e-06
3300.11	1.94476e-06
3308.79	2.92731e-06
3317.47	3.78661e-06
3326.14	3.65196e-06
3334.82	2.75876e-06
3343.5	1.73044e-06
3352.18	1.03754e-06
3360.86	7.45647e-07
3369.53	6.35426e-07
3378.21	6.72568e-07
3386.89	7.68253e-07
3395.57	8.75039e-07
3404.25	9.70393e-07
3412.93	1.34966e-06
3421.6	2.19359e-06
3430.28	3.10315e-06
3438.96	2.89714e-06
3447.64	1.91665e-06
3456.32	1.06365e-06
3464.99	8.31963e-07
3473.67	1.01607e-06
3482.35	1.26829e-06
3491.03	1.15128e-06
3499.71	6.92877e-07
3508.39	3.13348e-07
3517.06	7.66391e-08
3525.74	7.6379e-08
3534.42	1.80825e-08
3543.1	2.96657e-08
3551.78	1.30892e-07
3560.45	8.05735e-08
3569.13	7.07547e-08
3577.81	1.06956e-08
3586.49	3.96328e-07
3595.17	1.71766e-07
3603.84	1.04864e-08
3612.52	3.8821e-07
3621.2	1.91624e-07
3629.88	1.0055e-06
3638.56	2.6966e-07
3647.24	7.98139e-07
3655.91	7.75839e-07
3664.59	2.74853e-07
3673.27	3.89798e-07
3681.95	4.60591e-07
3690.63	7.77241e-07
3699.3	8.20771e-07
3707.98	1.42351e-06
3716.66	1.76247e-06
3725.34	1.60515e-06
3734.02	1.11394e-06
3742.7	7.1127e-07
3751.37	8.22641e-07
3760.05	8.2764e-07
3768.73	5.27875e-07
3777.41	6.15978e-07
3786.09	8.16438e-07
3794.76	1.03796e-06
3803.44	1.19048e-06
3812.12	1.07097e-06
3820.8	1.81834e-06
3829.48	1.27699e-06
3838.16	2.63008e-06
3846.83	1.1838e-06
3855.51	1.26759e-06
3864.19	1.41871e-06
3872.87	1.53412e-06
3881.55	1.95969e-06
3890.22	2.32909e-06
3898.9	2.65768e-06
3907.58	1.97442e-06
3916.26	1.69904e-06
3924.94	1.73521e-06
3933.61	1.87089e-06
3942.29	2.2009e-06
3950.97	2.42772e-06
3959.65	2.5687e-06
3968.33	2.44504e-06
