Infrared Spectrum: tert-Butyl Ethyl Ether
Formula: ( C H3)3 C O C2 H5
CAS: 637-92-3
State: gas
Melting point: -94 C
Boiling point: 73.1 C
Class: IUPAC A
Instrument: IFS66V (Bruker)
Instrument parameters: KBr Beam splitter; MCT Detector; Multipass cell
Sampling: 1 L/min Flow
Resolution: 0.2410
Temperature: 23 C
Pressure: 101.3 kPa
Origin: NIST, Anayltical Chemistry Division, 301-975-3108
cm-1	(micromol/mol)-1m-1 (base 10)
575.048	4.35949e-07
583.606	-2.91241e-07
592.163	-1.96395e-07
600.721	-4.57774e-07
609.279	1.46346e-07
617.836	-1.23989e-07
626.394	1.55683e-07
634.951	3.00119e-07
643.509	9.18239e-08
652.067	1.72019e-07
660.624	2.34958e-08
669.182	1.60625e-07
677.74	1.14396e-08
686.297	4.84844e-07
694.855	4.44493e-07
703.412	8.1938e-07
711.97	1.60984e-06
720.528	4.49192e-06
729.085	1.2573e-05
737.643	2.31157e-05
746.201	1.96625e-05
754.758	7.87199e-06
763.316	2.44211e-06
771.873	1.7491e-06
780.431	1.63686e-06
788.989	1.49709e-06
797.546	1.60952e-06
806.104	2.01954e-06
814.662	2.88164e-06
823.219	4.99973e-06
831.777	1.53614e-05
840.334	4.66703e-05
848.892	7.16342e-05
857.45	5.35429e-05
866.007	1.3684e-05
874.565	3.68153e-06
883.123	2.41376e-06
891.68	3.0102e-06
900.238	4.77787e-06
908.795	8.76776e-06
917.353	9.90428e-06
925.911	8.72622e-06
934.468	1.24854e-05
943.026	3.35658e-05
951.584	9.2195e-05
960.141	0.000122857
968.699	8.6386e-05
977.256	1.37604e-05
985.814	5.36396e-06
994.372	4.53558e-06
1002.93	6.83391e-06
1011.49	1.4489e-05
1020.04	2.91653e-05
1028.6	2.71844e-05
1037.16	2.07214e-05
1045.72	2.35524e-05
1054.28	4.81325e-05
1062.83	0.000129662
1071.39	0.000348359
1079.95	0.000529978
1088.51	0.00042699
1097.06	0.000124793
1105.62	0.000142196
1114.18	0.000309639
1122.74	0.000363009
1131.29	0.000217559
1139.85	6.2585e-05
1148.41	5.27749e-05
1156.97	6.41049e-05
1165.52	6.32773e-05
1174.08	5.97628e-05
1182.64	7.80665e-05
1191.2	0.000202567
1199.75	0.000483968
1208.31	0.000651034
1216.87	0.000404008
1225.43	0.000152355
1233.99	0.000153492
1242.54	0.000168361
1251.1	0.000154334
1259.66	0.000127941
1268.22	8.18837e-05
1276.77	4.14266e-05
1285.33	2.39166e-05
1293.89	1.76198e-05
1302.45	1.39697e-05
1311	1.01201e-05
1319.56	9.01313e-06
1328.12	8.04485e-06
1336.68	8.51209e-06
1345.23	2.2932e-05
1353.79	0.000114372
1362.35	0.000259848
1370.91	0.000263661
1379.46	0.000142704
1388.02	0.000181373
1396.58	0.000203652
1405.14	0.00012114
1413.7	3.11349e-05
1422.25	2.08287e-05
1430.81	2.3444e-05
1439.37	3.94667e-05
1447.93	5.91115e-05
1456.48	6.8394e-05
1465.04	7.6383e-05
1473.6	6.93913e-05
1482.16	6.13851e-05
1490.71	5.90886e-05
1499.27	4.04716e-05
1507.83	1.22704e-05
1516.39	5.14057e-06
1524.94	3.36537e-06
1533.5	2.96676e-06
1542.06	4.85004e-06
1550.62	2.47972e-06
1559.18	2.86906e-06
1567.73	2.6108e-06
1576.29	6.325e-06
1584.85	3.14033e-06
1593.41	3.0185e-06
1601.96	2.33854e-06
1610.52	1.67533e-06
1619.08	1.56213e-06
1627.64	2.0461e-06
1636.19	2.47436e-06
1644.75	2.84423e-06
1653.31	7.78049e-06
1661.87	2.70677e-06
1670.42	2.52628e-06
1678.98	2.7695e-06
1687.54	3.62685e-06
1696.1	7.30048e-06
1704.65	4.9951e-06
1713.21	3.08495e-06
1721.77	1.99905e-06
1730.33	2.17965e-06
1738.89	2.72735e-06
1747.44	3.47158e-06
1756	3.84884e-06
1764.56	3.05273e-06
1773.12	2.236e-06
1781.67	1.96826e-06
1790.23	3.32757e-06
1798.79	6.28933e-06
1807.35	8.80834e-06
1815.9	8.26539e-06
1824.46	4.74725e-06
1833.02	3.27297e-06
1841.58	2.05316e-06
1850.13	2.02431e-06
1858.69	2.20721e-06
1867.25	2.04343e-06
1875.81	1.65624e-06
1884.36	1.61561e-06
1892.92	1.99057e-06
1901.48	3.04597e-06
1910.04	5.46528e-06
1918.6	9.01256e-06
1927.15	1.15392e-05
1935.71	9.29805e-06
1944.27	4.25281e-06
1952.83	2.85724e-06
1961.38	3.72987e-06
1969.94	4.09869e-06
1978.5	3.10139e-06
1987.06	1.61811e-06
1995.61	1.07551e-06
2004.17	9.20908e-07
2012.73	9.52187e-07
2021.29	1.09464e-06
2029.84	1.4307e-06
2038.4	2.13186e-06
2046.96	3.0742e-06
2055.52	3.30455e-06
2064.08	2.02669e-06
2072.63	1.06768e-06
2081.19	1.16706e-06
2089.75	1.61306e-06
2098.31	2.20002e-06
2106.86	2.65056e-06
2115.42	2.14847e-06
2123.98	1.63967e-06
2132.54	1.73912e-06
2141.09	1.91485e-06
2149.65	2.03548e-06
2158.21	2.46138e-06
2166.77	2.84169e-06
2175.32	3.12444e-06
2183.88	3.82509e-06
2192.44	5.00937e-06
2201	4.99169e-06
2209.55	3.53558e-06
2218.11	2.1505e-06
2226.67	2.027e-06
2235.23	2.46869e-06
2243.79	2.51699e-06
2252.34	2.15279e-06
2260.9	2.42382e-06
2269.46	3.4563e-06
2278.02	3.84615e-06
2286.57	3.14001e-06
2295.13	2.14571e-06
2303.69	1.47798e-06
2312.25	1.62442e-06
2320.8	2.02874e-06
2329.36	2.43989e-06
2337.92	2.78387e-06
2346.48	2.4411e-06
2355.03	1.96975e-06
2363.59	1.57994e-06
2372.15	1.80272e-06
2380.71	2.09283e-06
2389.26	2.04802e-06
2397.82	1.75385e-06
2406.38	1.70837e-06
2414.94	1.65741e-06
2423.5	1.54444e-06
2432.05	1.92422e-06
2440.61	2.54948e-06
2449.17	2.64713e-06
2457.73	2.18451e-06
2466.28	1.70105e-06
2474.84	1.54707e-06
2483.4	1.25743e-06
2491.96	1.13474e-06
2500.51	9.06561e-07
2509.07	7.64565e-07
2517.63	8.24445e-07
2526.19	7.60847e-07
2534.74	7.9873e-07
2543.3	9.58066e-07
2551.86	1.2601e-06
2560.42	1.52965e-06
2568.98	1.8336e-06
2577.53	1.95113e-06
2586.09	2.28309e-06
2594.65	3.12429e-06
2603.21	4.70498e-06
2611.76	6.88903e-06
2620.32	9.06617e-06
2628.88	9.49549e-06
2637.44	7.36727e-06
2645.99	5.31774e-06
2654.55	4.75877e-06
2663.11	4.80438e-06
2671.67	4.65593e-06
2680.22	4.55641e-06
2688.78	4.61611e-06
2697.34	5.06644e-06
2705.9	7.28076e-06
2714.45	1.2744e-05
2723.01	1.75919e-05
2731.57	2.01531e-05
2740.13	1.9433e-05
2748.69	1.6498e-05
2757.24	1.40209e-05
2765.8	1.55782e-05
2774.36	1.82158e-05
2782.92	1.80602e-05
2791.47	1.61649e-05
2800.03	1.60773e-05
2808.59	2.00637e-05
2817.15	2.60902e-05
2825.7	3.25393e-05
2834.26	3.98605e-05
2842.82	5.13366e-05
2851.38	6.61526e-05
2859.93	9.23318e-05
2868.49	0.000156506
2877.05	0.000254924
2885.61	0.000331213
2894.16	0.000349825
2902.72	0.00033048
2911.28	0.0002756
2919.84	0.000224382
2928.4	0.000228539
2936.95	0.000295857
2945.51	0.000316318
2954.07	0.000252609
2962.63	0.000281799
2971.18	0.000679224
2979.74	0.00125575
2988.3	0.00114012
2996.86	0.000451505
3005.41	9.04472e-05
3013.97	3.32385e-05
3022.53	3.03408e-05
3031.09	2.56858e-05
3039.64	1.62535e-05
3048.2	9.1611e-06
3056.76	6.39033e-06
3065.32	6.17259e-06
3073.88	6.73448e-06
3082.43	7.50332e-06
3090.99	7.49816e-06
3099.55	6.17208e-06
3108.11	4.89853e-06
3116.66	4.18424e-06
3125.22	4.04116e-06
3133.78	4.01632e-06
3142.34	4.07735e-06
3150.89	4.57767e-06
3159.45	5.45386e-06
3168.01	7.07956e-06
3176.57	8.72255e-06
3185.12	9.29892e-06
3193.68	8.30204e-06
3202.24	7.44901e-06
3210.8	7.87432e-06
3219.35	8.47581e-06
3227.91	9.28269e-06
3236.47	8.79047e-06
3245.03	7.00386e-06
3253.59	4.4156e-06
3262.14	2.63873e-06
3270.7	1.8913e-06
3279.26	1.70278e-06
3287.82	1.58606e-06
3296.37	1.71103e-06
3304.93	2.35109e-06
3313.49	3.56759e-06
3322.05	3.69711e-06
3330.6	3.1884e-06
3339.16	2.25102e-06
3347.72	1.30515e-06
3356.28	7.70935e-07
3364.83	6.34247e-07
3373.39	7.40376e-07
3381.95	6.9797e-07
3390.51	7.08587e-07
3399.06	7.92913e-07
3407.62	1.03146e-06
3416.18	1.57586e-06
3424.74	2.55033e-06
3433.3	3.1987e-06
3441.85	2.5256e-06
3450.41	1.57152e-06
3458.97	9.18539e-07
3467.53	7.94178e-07
3476.08	9.34397e-07
3484.64	1.22444e-06
3493.2	1.00489e-06
3501.76	5.69464e-07
3510.31	1.58348e-07
3518.87	1.44833e-07
3527.43	9.0185e-08
3535.99	7.27374e-08
3544.54	4.00303e-08
3553.1	4.10835e-08
3561.66	6.50958e-08
3570.22	4.92616e-08
3578.78	-4.88633e-08
3587.33	8.49482e-08
3595.89	3.47589e-08
3604.45	-6.67638e-08
3613.01	1.55255e-07
3621.56	1.89596e-07
3630.12	2.92181e-07
3638.68	2.09055e-07
3647.24	8.75944e-07
3655.79	3.69195e-07
3664.35	2.87131e-07
3672.91	3.32846e-07
3681.47	3.56198e-07
3690.02	6.36641e-07
3698.58	7.9916e-07
3707.14	1.28966e-06
3715.7	1.78547e-06
3724.25	1.6819e-06
3732.81	9.83057e-07
3741.37	9.84305e-07
3749.93	9.24067e-07
3758.49	4.87036e-07
3767.04	5.15533e-07
3775.6	6.33902e-07
3784.16	7.45056e-07
3792.72	8.82924e-07
3801.27	3.15914e-06
3809.83	1.04645e-06
3818.39	1.15655e-06
3826.95	1.51753e-06
3835.5	1.4096e-06
3844.06	1.3974e-06
3852.62	1.45219e-06
3861.18	1.22915e-06
3869.73	1.55118e-06
3878.29	1.57838e-06
3886.85	2.21628e-06
3895.41	2.35773e-06
3903.96	2.59463e-06
3912.52	1.72718e-06
3921.08	1.5688e-06
3929.64	1.77653e-06
3938.2	1.96924e-06
3946.75	2.32147e-06
3955.31	2.53633e-06
3963.87	2.63672e-06
3972.43	2.43947e-06
