Infrared Spectrum: tert-Butyl Ethyl Ether
Formula: ( C H3)3 C O C2 H5
CAS: 637-92-3
State: gas
Melting point: -94 C
Boiling point: 73.1 C
Class: IUPAC A
Instrument: IFS66V (Bruker)
Instrument parameters: KBr Beam splitter; MCT Detector; Multipass cell
Sampling: 1 L/min Flow
Resolution: 1.9290
Temperature: 23 C
Pressure: 101.3 kPa
Origin: NIST, Anayltical Chemistry Division, 301-975-3108
cm-1	(micromol/mol)-1m-1 (base 10)
574.687	-1.40091e-07
583.365	-1.62451e-07
592.043	-3.01641e-08
600.721	-1.10521e-07
609.4	1.64396e-07
618.078	1.25237e-07
626.756	1.35958e-07
635.434	1.56825e-07
644.112	1.48265e-08
652.79	6.84409e-08
661.469	-1.35059e-08
670.147	8.24162e-08
678.825	1.38403e-07
687.503	3.56449e-07
696.181	5.5659e-07
704.859	9.24486e-07
713.537	2.01734e-06
722.216	5.61914e-06
730.894	1.54885e-05
739.572	2.33837e-05
748.25	1.90969e-05
756.928	5.34978e-06
765.606	2.07952e-06
774.285	1.7052e-06
782.963	1.56276e-06
791.641	1.51005e-06
800.319	1.73181e-06
808.997	2.35739e-06
817.675	3.31712e-06
826.353	7.15782e-06
835.032	2.42102e-05
843.71	6.01645e-05
852.388	6.5121e-05
861.066	3.2685e-05
869.744	7.18143e-06
878.422	2.67858e-06
887.101	2.70767e-06
895.779	3.66235e-06
904.457	6.66957e-06
913.135	9.24973e-06
921.813	1.00027e-05
930.491	9.45358e-06
939.169	2.059e-05
947.848	6.18559e-05
956.526	0.000115848
965.204	0.000102878
973.882	3.01482e-05
982.56	6.77056e-06
991.238	4.50919e-06
999.917	5.57483e-06
1008.59	1.1098e-05
1017.27	2.49803e-05
1025.95	3.10236e-05
1034.63	2.41492e-05
1043.31	2.06918e-05
1051.99	3.85948e-05
1060.66	9.94328e-05
1069.34	0.000284028
1078.02	0.000517654
1086.7	0.000473272
1095.38	0.000175706
1104.05	0.000121737
1112.73	0.000279041
1121.41	0.000367346
1130.09	0.000245523
1138.77	7.06246e-05
1147.45	5.16926e-05
1156.12	6.31227e-05
1164.8	6.39111e-05
1173.48	5.97059e-05
1182.16	7.58013e-05
1190.84	0.000193859
1199.51	0.000475354
1208.19	0.000650509
1216.87	0.000404192
1225.55	0.000152381
1234.23	0.000154027
1242.9	0.000168157
1251.58	0.000153408
1260.26	0.000125192
1268.94	7.78847e-05
1277.62	3.87791e-05
1286.3	2.29773e-05
1294.97	1.70607e-05
1303.65	1.32979e-05
1312.33	9.84435e-06
1321.01	8.88242e-06
1329.69	7.86139e-06
1338.36	9.21756e-06
1347.04	3.32177e-05
1355.72	0.000146466
1364.4	0.000299106
1373.08	0.00023409
1381.76	0.000130574
1390.43	0.000195918
1399.11	0.000192735
1407.79	7.24867e-05
1416.47	2.57611e-05
1425.15	2.04357e-05
1433.82	2.83264e-05
1442.5	4.59826e-05
1451.18	6.13477e-05
1459.86	7.22725e-05
1468.54	7.70384e-05
1477.22	6.25323e-05
1485.89	6.17716e-05
1494.57	4.86699e-05
1503.25	2.44439e-05
1511.93	7.51247e-06
1520.61	4.58219e-06
1529.28	2.9148e-06
1537.96	3.05144e-06
1546.64	2.51244e-06
1555.32	2.71276e-06
1564	2.64523e-06
1572.67	2.71199e-06
1581.35	3.02273e-06
1590.03	3.12298e-06
1598.71	2.67576e-06
1607.39	1.86005e-06
1616.07	2.28536e-06
1624.74	1.74613e-06
1633.42	2.06723e-06
1642.1	2.65599e-06
1650.78	3.09184e-06
1659.46	2.75872e-06
1668.13	2.7216e-06
1676.81	2.77076e-06
1685.49	4.29871e-06
1694.17	4.58699e-06
1702.85	4.71265e-06
1711.53	3.4638e-06
1720.2	2.13798e-06
1728.88	2.03368e-06
1737.56	2.63769e-06
1746.24	3.3933e-06
1754.92	3.89436e-06
1763.59	3.21219e-06
1772.27	2.69749e-06
1780.95	2.05716e-06
1789.63	3.18222e-06
1798.31	6.10002e-06
1806.98	8.75996e-06
1815.66	8.28158e-06
1824.34	4.84808e-06
1833.02	3.28402e-06
1841.7	2.0578e-06
1850.38	2.02917e-06
1859.05	2.17594e-06
1867.73	2.12521e-06
1876.41	1.65036e-06
1885.09	1.59013e-06
1893.77	2.07184e-06
1902.44	3.2297e-06
1911.12	5.77947e-06
1919.8	9.55102e-06
1928.48	1.14567e-05
1937.16	8.54987e-06
1945.84	3.57107e-06
1954.51	2.99098e-06
1963.19	3.93326e-06
1971.87	3.99784e-06
1980.55	2.68297e-06
1989.23	1.40945e-06
1997.9	1.02438e-06
2006.58	9.4992e-07
2015.26	1.00312e-06
2023.94	1.14716e-06
2032.62	1.55844e-06
2041.3	2.45527e-06
2049.97	3.306e-06
2058.65	2.99409e-06
2067.33	1.55424e-06
2076.01	1.05174e-06
2084.69	1.27296e-06
2093.36	1.80297e-06
2102.04	2.4506e-06
2110.72	2.48005e-06
2119.4	1.80161e-06
2128.08	1.63391e-06
2136.75	1.8311e-06
2145.43	1.96681e-06
2154.11	2.21349e-06
2162.79	2.67e-06
2171.47	3.00263e-06
2180.15	3.42694e-06
2188.82	4.48627e-06
2197.5	5.15297e-06
2206.18	4.21296e-06
2214.86	2.55172e-06
2223.54	1.99784e-06
2232.21	2.28615e-06
2240.89	2.56489e-06
2249.57	2.19151e-06
2258.25	2.175e-06
2266.93	3.15274e-06
2275.61	3.82976e-06
2284.28	3.37923e-06
2292.96	2.41149e-06
2301.64	1.58068e-06
2310.32	1.54324e-06
2319	1.90385e-06
2327.67	2.40166e-06
2336.35	2.70852e-06
2345.03	2.49203e-06
2353.71	2.0548e-06
2362.39	1.58286e-06
2371.06	1.76211e-06
2379.74	2.0872e-06
2388.42	2.08977e-06
2397.1	1.80908e-06
2405.78	1.67697e-06
2414.46	1.62318e-06
2423.13	1.54428e-06
2431.81	1.91236e-06
2440.49	2.53341e-06
2449.17	2.66347e-06
2457.85	2.15879e-06
2466.52	1.73692e-06
2475.2	1.53177e-06
2483.88	1.26761e-06
2492.56	1.10344e-06
2501.24	8.77703e-07
2509.92	7.53916e-07
2518.59	8.37775e-07
2527.27	8.29253e-07
2535.95	8.23209e-07
2544.63	9.89791e-07
2553.31	1.29866e-06
2561.98	1.601e-06
2570.66	1.83982e-06
2579.34	2.02193e-06
2588.02	2.38245e-06
2596.7	3.41783e-06
2605.38	5.19277e-06
2614.05	7.54649e-06
2622.73	9.38269e-06
2631.41	8.94439e-06
2640.09	6.61111e-06
2648.77	5.01711e-06
2657.44	4.7411e-06
2666.12	4.77609e-06
2674.8	4.6267e-06
2683.48	4.56693e-06
2692.16	4.72581e-06
2700.83	5.62054e-06
2709.51	9.27749e-06
2718.19	1.53876e-05
2726.87	1.90953e-05
2735.55	1.99652e-05
2744.23	1.8446e-05
2752.9	1.49534e-05
2761.58	1.42274e-05
2770.26	1.70794e-05
2778.94	1.82514e-05
2787.62	1.70074e-05
2796.29	1.58105e-05
2804.97	1.80551e-05
2813.65	2.34221e-05
2822.33	3.01618e-05
2831.01	3.65327e-05
2839.69	4.68487e-05
2848.36	6.0236e-05
2857.04	8.11341e-05
2865.72	0.000130037
2874.4	0.000224631
2883.08	0.000316519
2891.75	0.000345582
2900.43	0.000342987
2909.11	0.000289127
2917.79	0.000234722
2926.47	0.000217197
2935.14	0.000286342
2943.82	0.000317385
2952.5	0.000265103
2961.18	0.000258814
2969.86	0.000602823
2978.54	0.00116471
2987.21	0.00122101
2995.89	0.00052702
3004.57	0.00010769
3013.25	3.4411e-05
3021.93	3.04254e-05
3030.6	2.62136e-05
3039.28	1.66537e-05
3047.96	9.25965e-06
3056.64	6.4715e-06
3065.32	6.17903e-06
3074	6.78341e-06
3082.67	7.50797e-06
3091.35	7.40132e-06
3100.03	6.1851e-06
3108.71	4.87791e-06
3117.39	4.21705e-06
3126.06	4.04689e-06
3134.74	3.99766e-06
3143.42	4.10424e-06
3152.1	4.57704e-06
3160.78	5.66642e-06
3169.46	7.37626e-06
3178.13	9.02534e-06
3186.81	9.19031e-06
3195.49	8.10762e-06
3204.17	7.47961e-06
3212.85	7.96764e-06
3221.52	8.80244e-06
3230.2	9.20871e-06
3238.88	8.43525e-06
3247.56	6.24807e-06
3256.24	3.6762e-06
3264.91	2.26737e-06
3273.59	1.79801e-06
3282.27	1.61652e-06
3290.95	1.56212e-06
3299.63	1.85742e-06
3308.31	2.84712e-06
3316.98	3.74654e-06
3325.66	3.66269e-06
3334.34	2.78298e-06
3343.02	1.74312e-06
3351.7	1.0366e-06
3360.37	7.32587e-07
3369.05	6.00429e-07
3377.73	6.58349e-07
3386.41	7.30531e-07
3395.09	8.29089e-07
3403.77	9.56985e-07
3412.44	1.27999e-06
3421.12	2.12548e-06
3429.8	3.04084e-06
3438.48	2.94466e-06
3447.16	1.96545e-06
3455.83	1.06643e-06
3464.51	8.03265e-07
3473.19	9.7828e-07
3481.87	1.22964e-06
3490.55	1.17355e-06
3499.22	6.88129e-07
3507.9	2.84632e-07
3516.58	6.20199e-08
3525.26	5.84638e-08
3533.94	6.12632e-09
3542.62	3.03533e-08
3551.29	8.53374e-08
3559.97	8.05262e-08
3568.65	1.80617e-07
3577.33	2.53384e-09
3586.01	1.98769e-07
3594.68	9.48762e-08
3603.36	-4.26369e-09
3612.04	2.00674e-07
3620.72	2.4032e-07
3629.4	9.56283e-07
3638.08	2.46221e-07
3646.75	6.14149e-07
3655.43	5.49365e-07
3664.11	2.54244e-07
3672.79	3.32755e-07
3681.47	4.23218e-07
3690.14	7.84659e-07
3698.82	7.86443e-07
3707.5	1.36747e-06
3716.18	1.76375e-06
3724.86	1.61349e-06
3733.54	1.1236e-06
3742.21	6.82558e-07
3750.89	9.73282e-07
3759.57	7.12404e-07
3768.25	5.26118e-07
3776.93	5.79565e-07
3785.6	8.21e-07
3794.28	9.87992e-07
3802.96	1.26849e-06
3811.64	1.07626e-06
3820.32	1.54646e-06
3828.99	1.24795e-06
3837.67	2.24161e-06
3846.35	1.18126e-06
3855.03	2.09525e-06
3863.71	1.37401e-06
3872.39	1.49054e-06
3881.06	2.0697e-06
3889.74	2.3175e-06
3898.42	2.5537e-06
3907.1	2.02544e-06
3915.78	1.67455e-06
3924.45	1.68182e-06
3933.13	1.90406e-06
3941.81	2.1467e-06
3950.49	2.446e-06
3959.17	2.55764e-06
3967.85	2.41697e-06
