Infrared Spectrum: tert-Butyl Ethyl Ether
Formula: ( C H3)3 C O C2 H5
CAS: 637-92-3
State: gas
Melting point: -94 C
Boiling point: 73.1 C
Class: IUPAC A
Instrument: IFS66V (Bruker)
Instrument parameters: KBr Beam splitter; MCT Detector; Multipass cell
Sampling: 1 L/min Flow
Resolution: 0.9640
Temperature: 23 C
Pressure: 101.3 kPa
Origin: NIST, Anayltical Chemistry Division, 301-975-3108
cm-1	(micromol/mol)-1m-1 (base 10)
575.169	-7.41398e-08
583.847	-1.63712e-07
592.525	2.50055e-08
601.203	-1.4932e-07
609.882	1.84817e-07
618.56	1.40343e-07
627.238	1.32416e-07
635.916	1.65971e-07
644.594	-4.48742e-09
653.272	3.96047e-08
661.951	1.90211e-08
670.629	4.02577e-08
679.307	1.53431e-07
687.985	3.45273e-07
696.663	6.04296e-07
705.341	9.22176e-07
714.019	2.13031e-06
722.698	5.97001e-06
731.376	1.62401e-05
740.054	2.33873e-05
748.732	1.8794e-05
757.41	4.89749e-06
766.088	2.00557e-06
774.767	1.70808e-06
783.445	1.54542e-06
792.123	1.49516e-06
800.801	1.71982e-06
809.479	2.44759e-06
818.157	3.43127e-06
826.835	7.58564e-06
835.514	2.58156e-05
844.192	6.1637e-05
852.87	6.33755e-05
861.548	3.00701e-05
870.226	6.58767e-06
878.904	2.61222e-06
887.583	2.76021e-06
896.261	3.75226e-06
904.939	6.94259e-06
913.617	9.32421e-06
922.295	9.7712e-06
930.973	9.6597e-06
939.651	2.17831e-05
948.33	6.53776e-05
957.008	0.000116476
965.686	0.000102043
974.364	2.64136e-05
983.042	6.47276e-06
991.72	4.46121e-06
1000.4	5.75063e-06
1009.08	1.15732e-05
1017.75	2.58968e-05
1026.43	3.18366e-05
1035.11	2.34061e-05
1043.79	2.1135e-05
1052.47	4.027e-05
1061.15	0.00010525
1069.82	0.000298445
1078.5	0.000522152
1087.18	0.000458748
1095.86	0.000157763
1104.54	0.000127343
1113.21	0.000289347
1121.89	0.000366255
1130.57	0.000235347
1139.25	6.65488e-05
1147.93	5.21759e-05
1156.61	6.36503e-05
1165.28	6.35046e-05
1173.96	5.97403e-05
1182.64	7.81375e-05
1191.32	0.000206101
1200	0.000492879
1208.67	0.000652649
1217.35	0.00038016
1226.03	0.000149461
1234.71	0.000155086
1243.39	0.000168016
1252.07	0.000152549
1260.74	0.000123063
1269.42	7.52626e-05
1278.1	3.73208e-05
1286.78	2.24995e-05
1295.46	1.6843e-05
1304.13	1.30145e-05
1312.81	9.74599e-06
1321.49	8.84045e-06
1330.17	7.78595e-06
1338.85	9.53881e-06
1347.52	3.63899e-05
1356.2	0.000154457
1364.88	0.000309614
1373.56	0.000225158
1382.24	0.000130038
1390.92	0.000196243
1399.59	0.000194519
1408.27	6.55103e-05
1416.95	2.50981e-05
1425.63	2.03986e-05
1434.31	2.92273e-05
1442.98	4.7001e-05
1451.66	6.15766e-05
1460.34	7.27223e-05
1469.02	7.7206e-05
1477.7	6.18316e-05
1486.38	6.12613e-05
1495.05	4.75044e-05
1503.73	2.26241e-05
1512.41	7.3279e-06
1521.09	5.08803e-06
1529.77	2.80044e-06
1538.44	3.32529e-06
1547.12	2.45864e-06
1555.8	2.48522e-06
1564.48	2.74148e-06
1573.16	2.74828e-06
1581.83	3.04173e-06
1590.51	3.11476e-06
1599.19	2.63667e-06
1607.87	1.83055e-06
1616.55	3.21499e-06
1625.23	1.64828e-06
1633.9	2.09913e-06
1642.58	2.69413e-06
1651.26	3.10355e-06
1659.94	2.72867e-06
1668.62	2.78791e-06
1677.29	2.69435e-06
1685.97	3.48405e-06
1694.65	4.65408e-06
1703.33	4.66848e-06
1712.01	3.35173e-06
1720.69	2.08514e-06
1729.36	2.07676e-06
1738.04	2.65395e-06
1746.72	3.41122e-06
1755.4	3.86945e-06
1764.08	3.12917e-06
1772.75	3.16301e-06
1781.43	2.01935e-06
1790.11	3.294e-06
1798.79	6.30047e-06
1807.47	8.84724e-06
1816.15	8.22051e-06
1824.82	4.81473e-06
1833.5	3.23871e-06
1842.18	2.0503e-06
1850.86	2.03304e-06
1859.54	2.17276e-06
1868.21	2.12687e-06
1876.89	1.62073e-06
1885.57	1.58797e-06
1894.25	2.11492e-06
1902.93	3.33118e-06
1911.6	5.95001e-06
1920.28	9.76907e-06
1928.96	1.14106e-05
1937.64	8.316e-06
1946.32	3.39281e-06
1955	3.03228e-06
1963.67	3.97377e-06
1972.35	3.95805e-06
1981.03	2.57317e-06
1989.71	1.37562e-06
1998.39	1.02565e-06
2007.06	9.53235e-07
2015.74	1.01121e-06
2024.42	1.16363e-06
2033.1	1.59714e-06
2041.78	2.50948e-06
2050.46	3.31891e-06
2059.13	2.92128e-06
2067.81	1.48913e-06
2076.49	1.04974e-06
2085.17	1.28395e-06
2093.85	1.84547e-06
2102.52	2.4838e-06
2111.2	2.44142e-06
2119.88	1.7661e-06
2128.56	1.65111e-06
2137.24	1.84817e-06
2145.91	1.96739e-06
2154.59	2.24786e-06
2163.27	2.69204e-06
2171.95	3.02411e-06
2180.63	3.46504e-06
2189.31	4.5707e-06
2197.98	5.15968e-06
2206.66	4.12632e-06
2215.34	2.49778e-06
2224.02	2.01339e-06
2232.7	2.31815e-06
2241.37	2.56005e-06
2250.05	2.17544e-06
2258.73	2.20662e-06
2267.41	3.19198e-06
2276.09	3.82389e-06
2284.77	3.33588e-06
2293.44	2.36306e-06
2302.12	1.54966e-06
2310.8	1.56327e-06
2319.48	1.94169e-06
2328.16	2.43056e-06
2336.83	2.68452e-06
2345.51	2.46207e-06
2354.19	2.04413e-06
2362.87	1.60602e-06
2371.55	1.80987e-06
2380.23	2.0877e-06
2388.9	2.08473e-06
2397.58	1.78875e-06
2406.26	1.69049e-06
2414.94	1.63381e-06
2423.62	1.54096e-06
2432.29	1.95802e-06
2440.97	2.55673e-06
2449.65	2.62999e-06
2458.33	2.13637e-06
2467.01	1.72102e-06
2475.68	1.52728e-06
2484.36	1.26527e-06
2493.04	1.10468e-06
2501.72	8.73722e-07
2510.4	7.64012e-07
2519.08	8.35998e-07
2527.75	8.43939e-07
2536.43	8.34981e-07
2545.11	1.01154e-06
2553.79	1.33101e-06
2562.47	1.62083e-06
2571.14	1.85382e-06
2579.82	2.00953e-06
2588.5	2.40907e-06
2597.18	3.50679e-06
2605.86	5.32602e-06
2614.54	7.65984e-06
2623.21	9.45205e-06
2631.89	8.83062e-06
2640.57	6.47162e-06
2649.25	4.98092e-06
2657.93	4.76453e-06
2666.6	4.78442e-06
2675.28	4.61506e-06
2683.96	4.5673e-06
2692.64	4.76042e-06
2701.32	5.72795e-06
2709.99	9.5794e-06
2718.67	1.57402e-05
2727.35	1.92379e-05
2736.03	1.98985e-05
2744.71	1.83305e-05
2753.39	1.47872e-05
2762.06	1.43487e-05
2770.74	1.72446e-05
2779.42	1.81835e-05
2788.1	1.68753e-05
2796.78	1.58006e-05
2805.45	1.83238e-05
2814.13	2.38275e-05
2822.81	3.05276e-05
2831.49	3.69578e-05
2840.17	4.75664e-05
2848.85	6.11541e-05
2857.52	8.27983e-05
2866.2	0.000134153
2874.88	0.000230082
2883.56	0.000319509
2892.24	0.000346321
2900.91	0.000340545
2909.59	0.000285623
2918.27	0.000231989
2926.95	0.000219102
2935.63	0.000289156
2944.31	0.000316856
2952.98	0.000260831
2961.66	0.000264928
2970.34	0.000630827
2979.02	0.00119762
2987.7	0.00118826
2996.37	0.000488225
3005.05	9.73099e-05
3013.73	3.35823e-05
3022.41	3.03682e-05
3031.09	2.57867e-05
3039.76	1.6126e-05
3048.44	8.97847e-06
3057.12	6.38746e-06
3065.8	6.18631e-06
3074.48	6.83425e-06
3083.16	7.512e-06
3091.83	7.35046e-06
3100.51	6.13215e-06
3109.19	4.86207e-06
3117.87	4.20221e-06
3126.55	4.03779e-06
3135.22	3.97044e-06
3143.9	4.10957e-06
3152.58	4.63722e-06
3161.26	5.76264e-06
3169.94	7.46915e-06
3178.62	9.12138e-06
3187.29	9.17756e-06
3195.97	8.03759e-06
3204.65	7.45648e-06
3213.33	8.02443e-06
3222.01	8.83942e-06
3230.68	9.22618e-06
3239.36	8.37091e-06
3248.04	6.1088e-06
3256.72	3.57386e-06
3265.4	2.22596e-06
3274.07	1.75805e-06
3282.75	1.62755e-06
3291.43	1.57048e-06
3300.11	1.90479e-06
3308.79	2.90096e-06
3317.47	3.77759e-06
3326.14	3.64173e-06
3334.82	2.73963e-06
3343.5	1.69912e-06
3352.18	1.00316e-06
3360.86	7.14857e-07
3369.53	6.04189e-07
3378.21	6.4479e-07
3386.89	7.47754e-07
3395.57	8.53209e-07
3404.25	9.47217e-07
3412.93	1.32748e-06
3421.6	2.17829e-06
3430.28	3.11372e-06
3438.96	2.89834e-06
3447.64	1.90949e-06
3456.32	1.04066e-06
3464.99	8.06216e-07
3473.67	1.00242e-06
3482.35	1.26095e-06
3491.03	1.14399e-06
3499.71	6.77264e-07
3508.39	2.9661e-07
3517.06	5.90714e-08
3525.74	5.72779e-08
3534.42	3.52336e-09
3543.1	1.27802e-08
3551.78	1.23692e-07
3560.45	6.84209e-08
3569.13	5.14808e-08
3577.81	-2.8558e-09
3586.49	4.03863e-07
3595.17	1.66111e-07
3603.84	-8.2709e-09
3612.52	3.93238e-07
3621.2	1.54066e-07
3629.88	1.02174e-06
3638.56	2.56767e-07
3647.24	8.15245e-07
3655.91	8.0063e-07
3664.59	2.49859e-07
3673.27	3.20608e-07
3681.95	4.36037e-07
3690.63	7.80697e-07
3699.3	8.0394e-07
3707.98	1.39987e-06
3716.66	1.7566e-06
3725.34	1.59228e-06
3734.02	1.08511e-06
3742.7	6.50284e-07
3751.37	8.3405e-07
3760.05	8.36178e-07
3768.73	5.05671e-07
3777.41	6.00869e-07
3786.09	8.02703e-07
3794.76	1.01965e-06
3803.44	1.1773e-06
3812.12	1.06294e-06
3820.8	1.85665e-06
3829.48	1.25185e-06
3838.16	2.71929e-06
3846.83	1.16472e-06
3855.51	1.18404e-06
3864.19	1.42324e-06
3872.87	1.4981e-06
3881.55	1.94209e-06
3890.22	2.3194e-06
3898.9	2.68574e-06
3907.58	1.95654e-06
3916.26	1.68835e-06
3924.94	1.72867e-06
3933.61	1.86272e-06
3942.29	2.20583e-06
3950.97	2.42629e-06
3959.65	2.56817e-06
3968.33	2.4411e-06
