Infrared Spectrum: tert-Butyl Ethyl Ether
Formula: ( C H3)3 C O C2 H5
CAS: 637-92-3
State: gas
Melting point: -94 C
Boiling point: 73.1 C
Class: IUPAC A
Instrument: IFS66V (Bruker)
Instrument parameters: KBr Beam splitter; MCT Detector; Multipass cell
Sampling: 1 L/min Flow
Resolution: 0.4820
Temperature: 23 C
Pressure: 101.3 kPa
Origin: NIST, Anayltical Chemistry Division, 301-975-3108
cm-1	(micromol/mol)-1m-1 (base 10)
574.928	2.74775e-07
583.606	-2.24782e-07
592.284	-8.33475e-08
600.962	-3.3584e-07
609.641	1.78089e-07
618.319	1.94853e-07
626.997	8.24998e-08
635.675	9.90689e-08
644.353	5.33871e-09
653.031	1.13393e-07
661.71	-1.66619e-08
670.388	2.58568e-08
679.066	1.73687e-07
687.744	3.60544e-07
696.422	6.98143e-07
705.1	9.46072e-07
713.778	2.12903e-06
722.457	5.79845e-06
731.135	1.58879e-05
739.813	2.32363e-05
748.491	1.89654e-05
757.169	5.21322e-06
765.847	2.07458e-06
774.526	1.76632e-06
783.204	1.58692e-06
791.882	1.5018e-06
800.56	1.76261e-06
809.238	2.43277e-06
817.916	3.45477e-06
826.594	7.46058e-06
835.273	2.5045e-05
843.951	6.07554e-05
852.629	6.34958e-05
861.307	3.13673e-05
869.985	7.04867e-06
878.663	2.723e-06
887.342	2.82517e-06
896.02	3.81299e-06
904.698	6.85585e-06
913.376	9.36937e-06
922.054	9.92254e-06
930.732	9.73941e-06
939.41	2.14044e-05
948.089	6.35312e-05
956.767	0.000115736
965.445	0.000101983
974.123	2.84213e-05
982.801	6.83888e-06
991.479	4.65759e-06
1000.16	5.82522e-06
1008.84	1.15082e-05
1017.51	2.55185e-05
1026.19	3.15952e-05
1034.87	2.40072e-05
1043.55	2.13142e-05
1052.23	3.99856e-05
1060.9	0.000102919
1069.58	0.000290946
1078.26	0.000518012
1086.94	0.000462982
1095.62	0.000167333
1104.3	0.000125553
1112.97	0.00028365
1121.65	0.000365272
1130.33	0.000240333
1139.01	6.92371e-05
1147.69	5.25051e-05
1156.36	6.36503e-05
1165.04	6.40349e-05
1173.72	6.0257e-05
1182.4	7.77423e-05
1191.08	0.000200348
1199.76	0.000482439
1208.43	0.000648182
1217.11	0.000391494
1225.79	0.000151812
1234.47	0.000154834
1243.15	0.000168018
1251.82	0.000152916
1260.5	0.000124033
1269.18	7.67188e-05
1277.86	3.82872e-05
1286.54	2.29981e-05
1295.21	1.71321e-05
1303.89	1.33188e-05
1312.57	9.98225e-06
1321.25	9.07294e-06
1329.93	8.05954e-06
1338.61	9.81726e-06
1347.28	3.52446e-05
1355.96	0.000150396
1364.64	0.000302517
1373.32	0.000228992
1382	0.000130502
1390.67	0.000195823
1399.35	0.000193178
1408.03	6.91661e-05
1416.71	2.5759e-05
1425.39	2.06601e-05
1434.07	2.89466e-05
1442.74	4.65372e-05
1451.42	6.14183e-05
1460.1	7.24031e-05
1468.78	7.70913e-05
1477.46	6.20942e-05
1486.13	6.14854e-05
1494.81	4.78446e-05
1503.49	2.35924e-05
1512.17	7.79994e-06
1520.85	4.33818e-06
1529.52	2.89041e-06
1538.2	2.97345e-06
1546.88	2.50048e-06
1555.56	2.55916e-06
1564.24	2.64272e-06
1572.92	2.77262e-06
1581.59	3.06698e-06
1590.27	3.14693e-06
1598.95	2.6721e-06
1607.63	1.87234e-06
1616.31	2.22518e-06
1624.98	1.68512e-06
1633.66	2.08686e-06
1642.34	2.70806e-06
1651.02	3.07793e-06
1659.7	2.76523e-06
1668.38	2.74899e-06
1677.05	2.70948e-06
1685.73	3.55366e-06
1694.41	4.5983e-06
1703.09	4.69039e-06
1711.77	3.42917e-06
1720.44	2.1087e-06
1729.12	2.03827e-06
1737.8	2.68398e-06
1746.48	3.35661e-06
1755.16	3.87223e-06
1763.84	3.18167e-06
1772.51	3.22692e-06
1781.19	2.04156e-06
1789.87	3.23605e-06
1798.55	6.18798e-06
1807.23	8.75944e-06
1815.9	8.24432e-06
1824.58	4.74141e-06
1833.26	3.28975e-06
1841.94	2.07676e-06
1850.62	2.0402e-06
1859.29	2.17341e-06
1867.97	2.22196e-06
1876.65	1.66041e-06
1885.33	1.60823e-06
1894.01	2.10706e-06
1902.69	3.31048e-06
1911.36	5.86188e-06
1920.04	9.64401e-06
1928.72	1.14197e-05
1937.4	8.40311e-06
1946.08	3.50449e-06
1954.75	3.0202e-06
1963.43	3.96442e-06
1972.11	4.00213e-06
1980.79	2.62721e-06
1989.47	1.39193e-06
1998.15	1.04031e-06
2006.82	9.68505e-07
2015.5	1.02166e-06
2024.18	1.14895e-06
2032.86	1.57566e-06
2041.54	2.49794e-06
2050.21	3.29869e-06
2058.89	2.95474e-06
2067.57	1.52124e-06
2076.25	1.06781e-06
2084.93	1.26501e-06
2093.6	1.82047e-06
2102.28	2.45511e-06
2110.96	2.4699e-06
2119.64	1.7963e-06
2128.32	1.66074e-06
2137	1.85009e-06
2145.67	1.97215e-06
2154.35	2.23728e-06
2163.03	2.69276e-06
2171.71	3.02613e-06
2180.39	3.44475e-06
2189.06	4.52659e-06
2197.74	5.16724e-06
2206.42	4.17555e-06
2215.1	2.55637e-06
2223.78	2.02042e-06
2232.46	2.30629e-06
2241.13	2.57127e-06
2249.81	2.19224e-06
2258.49	2.19814e-06
2267.17	3.16977e-06
2275.85	3.838e-06
2284.52	3.33839e-06
2293.2	2.3882e-06
2301.88	1.57263e-06
2310.56	1.5736e-06
2319.24	1.95787e-06
2327.92	2.38569e-06
2336.59	2.68124e-06
2345.27	2.47209e-06
2353.95	2.05044e-06
2362.63	1.64173e-06
2371.31	1.80508e-06
2379.98	2.0918e-06
2388.66	2.09757e-06
2397.34	1.80947e-06
2406.02	1.67943e-06
2414.7	1.64268e-06
2423.37	1.56585e-06
2432.05	1.93982e-06
2440.73	2.55946e-06
2449.41	2.64889e-06
2458.09	2.16058e-06
2466.77	1.75584e-06
2475.44	1.52807e-06
2484.12	1.28279e-06
2492.8	1.10715e-06
2501.48	8.87073e-07
2510.16	7.92642e-07
2518.83	8.8304e-07
2527.51	8.41315e-07
2536.19	8.51728e-07
2544.87	1.00191e-06
2553.55	1.33615e-06
2562.23	1.62333e-06
2570.9	1.8687e-06
2579.58	2.06062e-06
2588.26	2.40799e-06
2596.94	3.50701e-06
2605.62	5.28813e-06
2614.29	7.58495e-06
2622.97	9.40513e-06
2631.65	8.88197e-06
2640.33	6.56978e-06
2649.01	5.05227e-06
2657.68	4.78621e-06
2666.36	4.82083e-06
2675.04	4.6602e-06
2683.72	4.6027e-06
2692.4	4.77474e-06
2701.08	5.72859e-06
2709.75	9.47039e-06
2718.43	1.55693e-05
2727.11	1.91549e-05
2735.79	1.99427e-05
2744.47	1.8424e-05
2753.14	1.49233e-05
2761.82	1.43738e-05
2770.5	1.71909e-05
2779.18	1.82616e-05
2787.86	1.70223e-05
2796.54	1.59302e-05
2805.21	1.82814e-05
2813.89	2.37643e-05
2822.57	3.05089e-05
2831.25	3.69039e-05
2839.93	4.74284e-05
2848.6	6.09188e-05
2857.28	8.22723e-05
2865.96	0.000132286
2874.64	0.000227331
2883.32	0.000317418
2892	0.000345302
2900.67	0.000341132
2909.35	0.000287133
2918.03	0.000233625
2926.71	0.000218476
2935.39	0.00028762
2944.06	0.000316687
2952.74	0.000263653
2961.42	0.000263483
2970.1	0.00061683
2978.78	0.0011738
2987.45	0.00120178
2996.13	0.000507522
3004.81	0.000104299
3013.49	3.51639e-05
3022.17	3.10338e-05
3030.85	2.64064e-05
3039.52	1.67216e-05
3048.2	9.39903e-06
3056.88	6.61758e-06
3065.56	6.31979e-06
3074.24	6.88989e-06
3082.91	7.61839e-06
3091.59	7.4694e-06
3100.27	6.25562e-06
3108.95	4.93785e-06
3117.63	4.28675e-06
3126.31	4.1125e-06
3134.98	4.06137e-06
3143.66	4.17286e-06
3152.34	4.66261e-06
3161.02	5.76893e-06
3169.7	7.45428e-06
3178.37	9.09763e-06
3187.05	9.22241e-06
3195.73	8.08251e-06
3204.41	7.48464e-06
3213.09	8.01403e-06
3221.77	8.75294e-06
3230.44	9.22724e-06
3239.12	8.42456e-06
3247.8	6.2152e-06
3256.48	3.66423e-06
3265.16	2.24022e-06
3273.83	1.82528e-06
3282.51	1.6776e-06
3291.19	1.5773e-06
3299.87	1.92028e-06
3308.55	2.90236e-06
3317.22	3.75578e-06
3325.9	3.65832e-06
3334.58	2.76533e-06
3343.26	1.71028e-06
3351.94	1.07322e-06
3360.62	7.38997e-07
3369.29	6.12747e-07
3377.97	6.24603e-07
3386.65	7.55859e-07
3395.33	8.86047e-07
3404.01	9.66639e-07
3412.68	1.30623e-06
3421.36	2.13031e-06
3430.04	3.08604e-06
3438.72	2.93033e-06
3447.4	1.9494e-06
3456.08	1.08986e-06
3464.75	8.24391e-07
3473.43	1.01092e-06
3482.11	1.26687e-06
3490.79	1.20935e-06
3499.47	7.17857e-07
3508.14	3.23913e-07
3516.82	3.42041e-08
3525.5	9.47125e-08
3534.18	5.05786e-08
3542.86	1.75404e-08
3551.53	6.27584e-08
3560.21	1.41518e-07
3568.89	8.44862e-08
3577.57	6.38098e-09
3586.25	2.71403e-07
3594.93	6.25675e-08
3603.6	1.07356e-08
3612.28	2.57369e-07
3620.96	1.63472e-07
3629.64	1.74858e-06
3638.32	2.87392e-07
3646.99	6.97637e-07
3655.67	4.26902e-07
3664.35	2.898e-07
3673.03	3.61746e-07
3681.71	4.48828e-07
3690.39	7.96289e-07
3699.06	7.96993e-07
3707.74	1.37529e-06
3716.42	1.79619e-06
3725.1	1.69019e-06
3733.78	1.00999e-06
3742.45	6.73405e-07
3751.13	7.48336e-07
3759.81	1.09509e-06
3768.49	5.09216e-07
3777.17	6.12187e-07
3785.85	7.95324e-07
3794.52	1.05253e-06
3803.2	1.21821e-06
3811.88	1.06626e-06
3820.56	1.91577e-06
3829.24	1.26076e-06
3837.91	3.91473e-06
3846.59	1.19804e-06
3855.27	1.28967e-06
3863.95	1.31174e-06
3872.63	1.50872e-06
3881.3	2.04466e-06
3889.98	2.34e-06
3898.66	2.42781e-06
3907.34	1.97527e-06
3916.02	1.62162e-06
3924.7	1.66273e-06
3933.37	1.82703e-06
3942.05	2.12093e-06
3950.73	2.44434e-06
3959.41	2.56317e-06
3968.09	2.44942e-06
