Infrared Spectrum: tert-Butyl Ethyl Ether
Formula: ( C H3)3 C O C2 H5
CAS: 637-92-3
State: gas
Melting point: -94 C
Boiling point: 73.1 C
Class: IUPAC A
Instrument: IFS66V (Bruker)
Instrument parameters: KBr Beam splitter; MCT Detector; Multipass cell
Sampling: 1 L/min Flow
Resolution: 0.1250
Temperature: 23 C
Pressure: 101.3 kPa
Origin: NIST, Anayltical Chemistry Division, 301-975-3108
cm-1	(micromol/mol)-1m-1 (base 10)
3975.02	2.27397e-06
3966.46	2.28397e-06
3957.9	2.63497e-06
3949.34	2.36897e-06
3940.79	2.21497e-06
3932.23	2.09198e-06
3923.67	1.64898e-06
3915.11	1.71898e-06
3906.56	2.09998e-06
3898	2.57597e-06
3889.44	2.15698e-06
3880.88	1.94298e-06
3872.33	1.38598e-06
3863.77	1.44298e-06
3855.21	1.28098e-06
3846.65	1.13199e-06
3838.09	2.61997e-06
3829.54	1.22999e-06
3820.98	1.72698e-06
3812.42	1.04299e-06
3803.86	1.15199e-06
3795.31	1.12399e-06
3786.75	8.0279e-07
3778.19	4.40094e-07
3769.63	9.54888e-07
3761.08	4.69193e-07
3752.52	1.91398e-06
3743.96	2.39197e-06
3735.4	1.53798e-06
3726.85	1.58298e-06
3718.29	1.84298e-06
3709.73	1.64398e-06
3701.17	7.8719e-07
3692.62	6.85192e-07
3684.06	3.95695e-07
3675.5	5.99992e-07
3666.94	3.70295e-07
3658.38	2.85496e-07
3649.83	4.83593e-07
3641.27	2.14996e-07
3632.71	5.08693e-07
3624.15	-3.15484e-08
3615.6	3.8998e-08
3607.04	5.60592e-07
3598.48	7.36387e-08
3589.92	1.30798e-07
3581.37	-3.73582e-08
3572.81	1.74797e-07
3564.25	-2.32684e-08
3555.69	7.39679e-08
3547.14	4.23394e-07
3538.58	7.36087e-08
3530.02	-9.88779e-08
3521.46	-1.31498e-07
3512.91	3.05796e-07
3504.35	6.51791e-07
3495.79	8.21189e-07
3487.23	1.09499e-06
3478.67	1.00399e-06
3470.12	7.7369e-07
3461.56	8.88789e-07
3453	1.35298e-06
3444.44	2.30097e-06
3435.89	2.89697e-06
3427.33	2.76597e-06
3418.77	2.03898e-06
3410.21	1.05299e-06
3401.66	7.68791e-07
3393.1	7.6349e-07
3384.54	5.37593e-07
3375.98	7.9479e-07
3367.43	7.31791e-07
3358.87	8.58589e-07
3350.31	1.10999e-06
3341.75	1.67998e-06
3333.2	3.14696e-06
3324.64	3.77296e-06
3316.08	3.71296e-06
3307.52	2.81197e-06
3298.96	1.76098e-06
3290.41	1.74198e-06
3281.85	1.64598e-06
3273.29	1.73898e-06
3264.73	2.18297e-06
3256.18	3.64696e-06
3247.62	6.30893e-06
3239.06	8.3479e-06
3230.5	9.41389e-06
3221.95	8.8169e-06
3213.39	8.04191e-06
3204.83	7.35292e-06
3196.27	8.14491e-06
3187.72	9.1349e-06
3179.16	9.12289e-06
3170.6	7.62591e-06
3162.04	5.88993e-06
3153.48	4.63695e-06
3144.93	4.06195e-06
3136.37	3.87696e-06
3127.81	3.95495e-06
3119.25	4.17395e-06
3110.7	4.65395e-06
3102.14	5.77693e-06
3093.58	7.18592e-06
3085.02	7.48691e-06
3076.47	7.03492e-06
3067.91	6.15693e-06
3059.35	6.44293e-06
3050.79	7.98391e-06
3042.24	1.34798e-05
3033.68	2.31897e-05
3025.12	2.95797e-05
3016.56	3.12096e-05
3008.01	5.74593e-05
2999.45	0.000289597
2990.89	0.000956589
2982.33	0.00135298
2973.77	0.00085189
2965.22	0.000360496
2956.66	0.000240797
2948.1	0.000305497
2939.54	0.000313996
2930.99	0.000251697
2922.43	0.000213897
2913.87	0.000259197
2905.31	0.000315996
2896.76	0.000354296
2888.2	0.000339296
2879.64	0.000292897
2871.08	0.000186098
2862.53	0.000106399
2853.97	7.20992e-05
2845.41	5.51594e-05
2836.85	4.28995e-05
2828.3	3.43096e-05
2819.74	2.80997e-05
2811.18	2.15398e-05
2802.62	1.68198e-05
2794.06	1.59498e-05
2785.51	1.75198e-05
2776.95	1.86398e-05
2768.39	1.64798e-05
2759.83	1.39098e-05
2751.28	1.56198e-05
2742.72	1.89498e-05
2734.16	2.02198e-05
2725.6	1.87198e-05
2717.05	1.45898e-05
2708.49	8.7179e-06
2699.93	5.38194e-06
2691.37	4.67795e-06
2682.82	4.58295e-06
2674.26	4.69295e-06
2665.7	4.71595e-06
2657.14	4.66095e-06
2648.59	5.02894e-06
2640.03	6.68992e-06
2631.47	8.8619e-06
2622.91	9.47689e-06
2614.35	7.48291e-06
2605.8	5.29094e-06
2597.24	3.57696e-06
2588.68	2.35597e-06
2580.12	1.96998e-06
2571.57	1.83298e-06
2563.01	1.68798e-06
2554.45	1.43798e-06
2545.89	1.05699e-06
2537.34	7.8269e-07
2528.78	8.0529e-07
2520.22	8.39089e-07
2511.66	7.35491e-07
2503.11	8.34989e-07
2494.55	1.10699e-06
2485.99	1.26798e-06
2477.43	1.45298e-06
2468.87	1.58798e-06
2460.32	2.12298e-06
2451.76	2.46697e-06
2443.2	2.61497e-06
2434.64	2.10898e-06
2426.09	1.63098e-06
2417.53	1.60898e-06
2408.97	1.61998e-06
2400.41	1.72098e-06
2391.86	2.00498e-06
2383.3	2.17397e-06
2374.74	1.94898e-06
2366.18	1.52898e-06
2357.63	1.81598e-06
2349.07	2.31497e-06
2340.51	2.73497e-06
2331.95	2.50197e-06
2323.4	2.28397e-06
2314.84	1.64398e-06
2306.28	1.48198e-06
2297.72	1.90498e-06
2289.16	2.79897e-06
2280.61	3.66396e-06
2272.05	3.64996e-06
2263.49	2.65797e-06
2254.93	2.07798e-06
2246.38	2.35397e-06
2237.82	2.53197e-06
2229.26	2.07897e-06
2220.7	2.01998e-06
2212.15	2.96797e-06
2203.59	4.71495e-06
2195.03	5.12694e-06
2186.47	4.14695e-06
2177.92	3.24796e-06
2169.36	2.92297e-06
2160.8	2.52497e-06
2152.24	2.03698e-06
2143.69	1.95498e-06
2135.13	1.75898e-06
2126.57	1.54398e-06
2118.01	1.90798e-06
2109.45	2.58097e-06
2100.9	2.42097e-06
2092.34	1.78298e-06
2083.78	1.26598e-06
2075.22	1.02999e-06
2066.67	1.67698e-06
2058.11	3.13996e-06
2049.55	3.33496e-06
2040.99	2.40397e-06
2032.44	1.57998e-06
2023.88	1.15499e-06
2015.32	1.05299e-06
2006.76	9.65787e-07
1998.21	1.02299e-06
1989.65	1.36298e-06
1981.09	2.61997e-06
1972.53	3.85296e-06
1963.97	3.94695e-06
1955.42	3.04196e-06
1946.86	3.23596e-06
1938.3	7.99691e-06
1929.74	1.13499e-05
1921.19	1.00699e-05
1912.63	6.34593e-06
1904.07	3.55796e-06
1895.51	2.21497e-06
1886.96	1.57998e-06
1878.4	1.67398e-06
1869.84	1.91998e-06
1861.28	2.17797e-06
1852.73	2.06098e-06
1844.17	4.43395e-06
1835.61	2.83497e-06
1827.05	4.19995e-06
1818.5	7.47891e-06
1809.94	9.0619e-06
1801.38	7.84291e-06
1792.82	4.91194e-06
1784.26	2.26297e-06
1775.71	2.20897e-06
1767.15	2.67797e-06
1758.59	4.07195e-06
1750.03	3.92695e-06
1741.48	2.82297e-06
1732.92	2.40297e-06
1724.36	2.00098e-06
1715.8	2.63697e-06
1707.25	4.22995e-06
1698.69	4.82694e-06
1690.13	4.44195e-06
1681.57	2.90297e-06
1673.02	2.55097e-06
1664.46	2.62197e-06
1655.9	2.96496e-06
1647.34	3.82996e-06
1638.79	2.36897e-06
1630.23	1.89298e-06
1621.67	1.57698e-06
1613.11	1.70898e-06
1604.55	2.10198e-06
1596	2.86797e-06
1587.44	3.07096e-06
1578.88	2.95597e-06
1570.32	2.78497e-06
1561.77	2.55797e-06
1553.21	2.52197e-06
1544.65	2.60497e-06
1536.09	2.68297e-06
1527.54	3.13396e-06
1518.98	4.10295e-06
1510.42	8.7029e-06
1501.86	3.01797e-05
1493.31	5.34594e-05
1484.75	6.27293e-05
1476.19	6.44592e-05
1467.63	7.66091e-05
1459.08	7.14792e-05
1450.52	6.09993e-05
1441.96	4.50695e-05
1433.4	2.76797e-05
1424.84	2.04098e-05
1416.29	2.60297e-05
1407.73	7.26692e-05
1399.17	0.000193698
1390.61	0.000196498
1382.06	0.000129399
1373.5	0.000225697
1364.94	0.000310796
1356.38	0.000157298
1347.83	3.85996e-05
1339.27	9.72689e-06
1330.71	7.69691e-06
1322.15	8.6839e-06
1313.6	9.67889e-06
1305.04	1.25999e-05
1296.48	1.63998e-05
1287.92	2.14398e-05
1279.36	3.40196e-05
1270.81	6.78792e-05
1262.25	0.000116099
1253.69	0.000149198
1245.13	0.000165498
1236.58	0.000159298
1228.02	0.000144398
1219.46	0.000278897
1210.9	0.000622693
1202.35	0.000570693
1193.79	0.000280197
1185.23	9.72589e-05
1176.67	6.14393e-05
1168.12	6.13193e-05
1159.56	6.58392e-05
1151	5.64994e-05
1142.44	5.29994e-05
1133.89	0.000149098
1125.33	0.000329796
1116.77	0.000354096
1108.21	0.000186598
1099.65	9.60689e-05
1091.1	0.000358296
1082.54	0.000546194
1073.98	0.000430595
1065.42	0.000178798
1056.87	6.33393e-05
1048.31	2.82997e-05
1039.75	1.90698e-05
1031.19	2.75197e-05
1022.64	2.85797e-05
1014.08	1.87398e-05
1005.52	8.4829e-06
996.963	4.87194e-06
988.406	4.91994e-06
979.848	8.9209e-06
971.29	5.58694e-05
962.733	0.000116799
954.175	0.000109499
945.618	4.66895e-05
937.06	1.59598e-05
928.502	8.6859e-06
919.945	1.00199e-05
911.387	9.18089e-06
902.829	6.01393e-06
894.272	3.52896e-06
885.714	2.58297e-06
877.157	3.00296e-06
868.599	8.8649e-06
860.041	3.84096e-05
851.484	6.94292e-05
842.926	5.78093e-05
834.368	2.19497e-05
825.811	7.01692e-06
817.253	3.02596e-06
808.696	2.22997e-06
800.138	1.74798e-06
791.58	1.66398e-06
783.023	1.62698e-06
774.465	1.82398e-06
765.907	1.93898e-06
757.35	4.96294e-06
748.792	1.87498e-05
740.235	2.30597e-05
731.677	1.66798e-05
723.119	6.26093e-06
714.562	2.36897e-06
706.004	9.90187e-07
697.446	9.42588e-07
688.889	5.17193e-07
680.331	1.56397e-07
671.774	-9.45879e-08
663.216	2.90497e-07
654.658	4.18094e-07
646.101	1.91397e-07
637.543	-1.83797e-07
628.985	1.11298e-07
620.428	5.98693e-07
611.87	-2.61196e-07
603.313	4.67287e-08
594.755	4.36694e-07
586.197	-1.10698e-07
577.64	-1.01399e-06
