Infrared Spectrum: tert-Butyl Ethyl Ether
Formula: ( C H3)3 C O C2 H5
CAS: 637-92-3
State: gas
Melting point: -94 C
Boiling point: 73.1 C
Class: IUPAC A
Instrument: IFS66V (Bruker)
Instrument parameters: KBr Beam splitter; MCT Detector; Multipass cell
Sampling: 1 L/min Flow
Resolution: 0.1250
Temperature: 23 C
Pressure: 101.3 kPa
Origin: NIST, Anayltical Chemistry Division, 301-975-3108
cm-1	(micromol/mol)-1m-1 (base 10)
574.988	1.13405e-06
583.546	-5.51566e-07
592.103	3.06718e-07
600.661	-4.99514e-07
609.219	2.62892e-07
617.776	-1.51239e-07
626.334	1.49204e-07
634.891	4.12505e-07
643.449	6.93613e-08
652.007	2.4876e-07
660.564	1.42865e-07
669.122	1.3268e-07
677.68	-2.87799e-08
686.237	5.71911e-07
694.795	5.98081e-07
703.352	7.74733e-07
711.91	1.56314e-06
720.468	4.54877e-06
729.025	1.25519e-05
737.583	2.31123e-05
746.141	1.96865e-05
754.698	8.01089e-06
763.256	2.39239e-06
771.813	1.74084e-06
780.371	1.8177e-06
788.929	1.59164e-06
797.486	1.68339e-06
806.044	2.0183e-06
814.602	2.91716e-06
823.159	5.09618e-06
831.717	1.51754e-05
840.274	4.63088e-05
848.832	7.13715e-05
857.39	5.37923e-05
865.947	1.38589e-05
874.505	3.69993e-06
883.063	2.41096e-06
891.62	3.03949e-06
900.178	4.81417e-06
908.735	8.75864e-06
917.293	9.98231e-06
925.851	8.72189e-06
934.408	1.24218e-05
942.966	3.33495e-05
951.524	9.16157e-05
960.081	0.000122467
968.639	8.67684e-05
977.196	1.40428e-05
985.754	5.52681e-06
994.312	4.59401e-06
1002.87	6.82234e-06
1011.43	1.44136e-05
1019.98	2.91361e-05
1028.54	2.73525e-05
1037.1	2.08565e-05
1045.66	2.36315e-05
1054.22	4.79888e-05
1062.77	0.000129008
1071.33	0.000346199
1079.89	0.000529183
1088.45	0.000427636
1097	0.000126836
1105.56	0.00014156
1114.12	0.000308251
1122.68	0.000362913
1131.23	0.000218848
1139.79	6.31967e-05
1148.35	5.28475e-05
1156.91	6.41783e-05
1165.46	6.33401e-05
1174.02	5.99795e-05
1182.58	7.80288e-05
1191.14	0.000201248
1199.69	0.000481286
1208.25	0.00064987
1216.81	0.000406993
1225.37	0.000153114
1233.93	0.000153444
1242.48	0.000168394
1251.04	0.000154449
1259.6	0.000128209
1268.16	8.22022e-05
1276.71	4.16704e-05
1285.27	2.40541e-05
1293.83	1.76553e-05
1302.39	1.4041e-05
1310.94	1.02019e-05
1319.5	9.05057e-06
1328.06	8.09908e-06
1336.62	8.59628e-06
1345.17	2.28505e-05
1353.73	0.000113405
1362.29	0.000258229
1370.85	0.000264131
1379.4	0.0001435
1387.96	0.000180854
1396.52	0.000204595
1405.08	0.000122652
1413.64	3.143e-05
1422.19	2.09361e-05
1430.75	2.34541e-05
1439.31	3.93811e-05
1447.87	5.8696e-05
1456.42	6.79881e-05
1464.98	7.66231e-05
1473.54	7.00205e-05
1482.1	6.13656e-05
1490.65	5.86496e-05
1499.21	4.06741e-05
1507.77	1.24219e-05
1516.33	5.24564e-06
1524.88	3.44953e-06
1533.44	2.98431e-06
1542	4.51023e-06
1550.56	2.51041e-06
1559.11	2.89096e-06
1567.67	2.59853e-06
1576.23	7.38305e-06
1584.79	3.14598e-06
1593.35	3.04518e-06
1601.9	2.35547e-06
1610.46	1.69694e-06
1619.02	1.54881e-06
1627.58	1.9227e-06
1636.13	2.5503e-06
1644.69	2.84714e-06
1653.25	8.00392e-06
1661.81	2.68234e-06
1670.36	2.54745e-06
1678.92	2.76107e-06
1687.48	3.6166e-06
1696.04	8.25958e-06
1704.59	5.17198e-06
1713.15	3.10736e-06
1721.71	2.02785e-06
1730.27	2.21107e-06
1738.83	2.73636e-06
1747.38	3.49747e-06
1755.94	3.84222e-06
1764.5	3.06176e-06
1773.06	2.34864e-06
1781.61	1.97563e-06
1790.17	3.32605e-06
1798.73	6.26393e-06
1807.29	8.81741e-06
1815.84	8.26912e-06
1824.4	4.76483e-06
1832.96	3.25814e-06
1841.52	2.08367e-06
1850.07	2.0168e-06
1858.63	2.23e-06
1867.19	2.05053e-06
1875.75	1.68124e-06
1884.3	1.63024e-06
1892.86	1.99916e-06
1901.42	3.05489e-06
1909.98	5.47647e-06
1918.54	8.98593e-06
1927.09	1.15615e-05
1935.65	9.33442e-06
1944.21	4.28816e-06
1952.77	2.88846e-06
1961.32	3.72235e-06
1969.88	4.0974e-06
1978.44	3.13913e-06
1987	1.63793e-06
1995.55	1.11707e-06
2004.11	9.38799e-07
2012.67	9.41946e-07
2021.23	1.14176e-06
2029.78	1.42633e-06
2038.34	2.11476e-06
2046.9	3.04938e-06
2055.46	3.3363e-06
2064.01	2.06773e-06
2072.57	1.07762e-06
2081.13	1.15885e-06
2089.69	1.60359e-06
2098.25	2.21906e-06
2106.8	2.6389e-06
2115.36	2.13831e-06
2123.92	1.6342e-06
2132.48	1.71131e-06
2141.03	1.8997e-06
2149.59	2.01185e-06
2158.15	2.45469e-06
2166.71	2.83083e-06
2175.26	3.10747e-06
2183.82	3.80322e-06
2192.38	5.01661e-06
2200.94	4.97024e-06
2209.49	3.56559e-06
2218.05	2.17659e-06
2226.61	1.99453e-06
2235.17	2.51054e-06
2243.72	2.51701e-06
2252.28	2.15453e-06
2260.84	2.41489e-06
2269.4	3.47328e-06
2277.96	3.84487e-06
2286.51	3.12589e-06
2295.07	2.12998e-06
2303.63	1.47972e-06
2312.19	1.62989e-06
2320.74	2.01876e-06
2329.3	2.4513e-06
2337.86	2.7854e-06
2346.42	2.44973e-06
2354.97	1.96491e-06
2363.53	1.52416e-06
2372.09	1.8225e-06
2380.65	2.07896e-06
2389.2	2.03156e-06
2397.76	1.74267e-06
2406.32	1.71912e-06
2414.88	1.68096e-06
2423.44	1.55829e-06
2431.99	1.88366e-06
2440.55	2.54437e-06
2449.11	2.61643e-06
2457.67	2.20233e-06
2466.22	1.72192e-06
2474.78	1.51775e-06
2483.34	1.25367e-06
2491.9	1.12859e-06
2500.45	9.08866e-07
2509.01	8.12366e-07
2517.57	8.39865e-07
2526.13	7.9644e-07
2534.68	7.8772e-07
2543.24	9.73594e-07
2551.8	1.28445e-06
2560.36	1.50399e-06
2568.91	1.85826e-06
2577.47	1.96093e-06
2586.03	2.31904e-06
2594.59	3.12532e-06
2603.15	4.74444e-06
2611.7	6.85922e-06
2620.26	9.05317e-06
2628.82	9.5096e-06
2637.38	7.41126e-06
2645.93	5.34612e-06
2654.49	4.79811e-06
2663.05	4.83265e-06
2671.61	4.63855e-06
2680.16	4.58261e-06
2688.72	4.64194e-06
2697.28	5.09339e-06
2705.84	7.23392e-06
2714.39	1.27002e-05
2722.95	1.75224e-05
2731.51	2.01886e-05
2740.07	1.93893e-05
2748.62	1.65482e-05
2757.18	1.40534e-05
2765.74	1.55584e-05
2774.3	1.82632e-05
2782.86	1.80623e-05
2791.41	1.61775e-05
2799.97	1.61094e-05
2808.53	2.00531e-05
2817.09	2.61443e-05
2825.64	3.26449e-05
2834.2	3.98219e-05
2842.76	5.12116e-05
2851.32	6.6094e-05
2859.87	9.20989e-05
2868.43	0.000155987
2876.99	0.00025409
2885.55	0.000331247
2894.1	0.00034975
2902.66	0.000330568
2911.22	0.000275875
2919.78	0.000224802
2928.34	0.000228215
2936.89	0.000295637
2945.45	0.000316629
2954.01	0.000252987
2962.57	0.000281106
2971.12	0.000676241
2979.68	0.0012486
2988.24	0.00114426
2996.8	0.000456398
3005.35	9.20638e-05
3013.91	3.35755e-05
3022.47	3.04972e-05
3031.03	2.58027e-05
3039.58	1.63579e-05
3048.14	9.28055e-06
3056.7	6.47452e-06
3065.26	6.29553e-06
3073.81	6.74934e-06
3082.37	7.54566e-06
3090.93	7.5308e-06
3099.49	6.25174e-06
3108.05	4.95527e-06
3116.6	4.15274e-06
3125.16	4.08283e-06
3133.72	4.07812e-06
3142.28	4.12072e-06
3150.83	4.54715e-06
3159.39	5.41909e-06
3167.95	6.97782e-06
3176.51	8.70023e-06
3185.06	9.24396e-06
3193.62	8.34827e-06
3202.18	7.43474e-06
3210.74	7.81066e-06
3219.29	8.48553e-06
3227.85	9.22278e-06
3236.41	8.84492e-06
3244.97	6.98026e-06
3253.52	4.42683e-06
3262.08	2.6649e-06
3270.64	1.92182e-06
3279.2	1.74967e-06
3287.76	1.55787e-06
3296.31	1.70652e-06
3304.87	2.31327e-06
3313.43	3.53324e-06
3321.99	3.74718e-06
3330.54	3.20796e-06
3339.1	2.28527e-06
3347.66	1.36399e-06
3356.22	7.99942e-07
3364.77	6.4539e-07
3373.33	7.80482e-07
3381.89	6.91713e-07
3390.45	7.16116e-07
3399	8.33317e-07
3407.56	1.00293e-06
3416.12	1.57957e-06
3424.68	2.54446e-06
3433.23	3.21647e-06
3441.79	2.52414e-06
3450.35	1.53949e-06
3458.91	8.80188e-07
3467.47	7.92657e-07
3476.02	9.15778e-07
3484.58	1.19571e-06
3493.14	9.88969e-07
3501.7	5.81861e-07
3510.25	2.24097e-07
3518.81	8.91846e-08
3527.37	6.72732e-08
3535.93	2.08892e-08
3544.48	5.26686e-08
3553.04	4.29825e-08
3561.6	4.71789e-08
3570.16	3.09427e-08
3578.71	-3.71545e-08
3587.27	1.23634e-07
3595.83	4.43595e-08
3604.39	-7.37815e-08
3612.95	9.92381e-08
3621.5	1.82469e-07
3630.06	4.00414e-07
3638.62	2.16231e-07
3647.18	1.01834e-06
3655.73	4.19018e-07
3664.29	2.59008e-07
3672.85	3.22258e-07
3681.41	4.00949e-07
3689.96	7.0418e-07
3698.52	7.49325e-07
3707.08	1.2393e-06
3715.64	1.81952e-06
3724.19	1.69435e-06
3732.75	9.41477e-07
3741.31	1.06313e-06
3749.87	1.1367e-06
3758.42	4.89977e-07
3766.98	4.82763e-07
3775.54	5.95392e-07
3784.1	6.90294e-07
3792.66	8.95729e-07
3801.21	2.31488e-06
3809.77	9.75708e-07
3818.33	1.09268e-06
3826.89	1.57332e-06
3835.44	1.4428e-06
3844	1.40394e-06
3852.56	1.53578e-06
3861.12	1.24456e-06
3869.67	1.46458e-06
3878.23	1.60775e-06
3886.79	2.1562e-06
3895.35	2.40983e-06
3903.9	2.40886e-06
3912.46	1.73611e-06
3921.02	1.60301e-06
3929.58	1.80858e-06
3938.13	1.94188e-06
3946.69	2.31934e-06
3955.25	2.57966e-06
3963.81	2.66667e-06
3972.37	2.4032e-06
