Infrared Spectrum: tert-Butyl Ethyl Ether
Formula: ( C H3)3 C O C2 H5
CAS: 637-92-3
State: gas
Melting point: -94 C
Boiling point: 73.1 C
Class: IUPAC A
Instrument: IFS66V (Bruker)
Instrument parameters: KBr Beam splitter; MCT Detector; Multipass cell
Sampling: 1 L/min Flow
Resolution: 0.2410
Temperature: 23 C
Pressure: 101.3 kPa
Origin: NIST, Anayltical Chemistry Division, 301-975-3108
cm-1	(micromol/mol)-1m-1 (base 10)
575.048	5.10926e-07
583.606	-3.80756e-07
592.163	-8.95993e-08
600.721	-5.86803e-07
609.279	1.90762e-07
617.836	-3.90188e-07
626.394	1.34523e-07
634.951	3.28382e-07
643.509	1.09659e-07
652.067	2.03513e-07
660.624	1.00104e-07
669.182	2.20826e-07
677.74	-1.80315e-07
686.297	6.92358e-07
694.855	3.58339e-07
703.412	8.26579e-07
711.97	1.63043e-06
720.528	4.41692e-06
729.085	1.25408e-05
737.643	2.30043e-05
746.201	1.96271e-05
754.758	7.95334e-06
763.316	2.4109e-06
771.873	1.6787e-06
780.431	1.67209e-06
788.989	1.45949e-06
797.546	1.52824e-06
806.104	1.95941e-06
814.662	2.91352e-06
823.219	5.1135e-06
831.777	1.53824e-05
840.334	4.65343e-05
848.892	7.15336e-05
857.45	5.36973e-05
866.007	1.36279e-05
874.565	3.70473e-06
883.123	2.355e-06
891.68	3.08009e-06
900.238	4.78271e-06
908.795	8.85254e-06
917.353	9.88305e-06
925.911	8.69637e-06
934.468	1.24815e-05
943.026	3.35479e-05
951.584	9.22908e-05
960.141	0.000122928
968.699	8.64466e-05
977.256	1.37953e-05
985.814	5.32612e-06
994.372	4.53403e-06
1002.93	6.81934e-06
1011.49	1.44879e-05
1020.04	2.91462e-05
1028.6	2.71388e-05
1037.16	2.06439e-05
1045.72	2.36097e-05
1054.28	4.81911e-05
1062.83	0.000129844
1071.39	0.000348374
1079.95	0.000529152
1088.51	0.000426717
1097.06	0.000124844
1105.62	0.000142226
1114.18	0.000309827
1122.74	0.000362948
1131.29	0.000217657
1139.85	6.24888e-05
1148.41	5.27549e-05
1156.97	6.41572e-05
1165.52	6.32615e-05
1174.08	5.98343e-05
1182.64	7.81022e-05
1191.2	0.000202516
1199.75	0.000483963
1208.31	0.000650584
1216.87	0.000403805
1225.43	0.000152402
1233.99	0.000153461
1242.54	0.000168306
1251.1	0.000154363
1259.66	0.000127921
1268.22	8.19628e-05
1276.77	4.15174e-05
1285.33	2.39202e-05
1293.89	1.76121e-05
1302.45	1.39847e-05
1311	1.01023e-05
1319.56	9.03539e-06
1328.12	8.07281e-06
1336.68	8.64008e-06
1345.23	2.2925e-05
1353.79	0.000114349
1362.35	0.000259737
1370.91	0.000263529
1379.46	0.00014279
1388.02	0.000181359
1396.58	0.000203568
1405.14	0.000121095
1413.7	3.10971e-05
1422.25	2.08539e-05
1430.81	2.34654e-05
1439.37	3.94587e-05
1447.93	5.93324e-05
1456.48	6.88023e-05
1465.04	7.62323e-05
1473.6	6.94753e-05
1482.16	6.13493e-05
1490.71	5.90045e-05
1499.27	4.04492e-05
1507.83	1.23589e-05
1516.39	5.14993e-06
1524.94	3.41731e-06
1533.5	2.93442e-06
1542.06	4.93583e-06
1550.62	2.47735e-06
1559.18	2.85965e-06
1567.73	2.6332e-06
1576.29	6.37834e-06
1584.85	3.11119e-06
1593.41	3.02746e-06
1601.96	2.34733e-06
1610.52	1.71647e-06
1619.08	1.51219e-06
1627.64	1.95765e-06
1636.19	2.51395e-06
1644.75	2.91297e-06
1653.31	8.76608e-06
1661.87	2.70041e-06
1670.42	2.55619e-06
1678.98	2.78469e-06
1687.54	3.63207e-06
1696.1	6.46485e-06
1704.65	4.84195e-06
1713.21	3.07397e-06
1721.77	1.99543e-06
1730.33	2.18751e-06
1738.89	2.74471e-06
1747.44	3.45483e-06
1756	3.87225e-06
1764.56	3.02803e-06
1773.12	2.13613e-06
1781.67	1.95176e-06
1790.23	3.34137e-06
1798.79	6.27529e-06
1807.35	8.8038e-06
1815.9	8.26438e-06
1824.46	4.76287e-06
1833.02	3.29523e-06
1841.58	2.07347e-06
1850.13	2.0017e-06
1858.69	2.22418e-06
1867.25	2.01332e-06
1875.81	1.64622e-06
1884.36	1.60373e-06
1892.92	1.98478e-06
1901.48	3.02963e-06
1910.04	5.48259e-06
1918.6	9.02369e-06
1927.15	1.1528e-05
1935.71	9.30783e-06
1944.27	4.26758e-06
1952.83	2.82681e-06
1961.38	3.71702e-06
1969.94	4.11379e-06
1978.5	3.0674e-06
1987.06	1.62156e-06
1995.61	1.08167e-06
2004.17	9.16087e-07
2012.73	9.3125e-07
2021.29	1.10503e-06
2029.84	1.46092e-06
2038.4	2.12656e-06
2046.96	3.07307e-06
2055.52	3.29357e-06
2064.08	2.03291e-06
2072.63	1.03615e-06
2081.19	1.17744e-06
2089.75	1.6236e-06
2098.31	2.14441e-06
2106.86	2.65049e-06
2115.42	2.20132e-06
2123.98	1.66206e-06
2132.54	1.71634e-06
2141.09	1.93107e-06
2149.65	2.07893e-06
2158.21	2.49839e-06
2166.77	2.85255e-06
2175.32	3.10504e-06
2183.88	3.83899e-06
2192.44	5.04609e-06
2201	4.97074e-06
2209.55	3.51006e-06
2218.11	2.19364e-06
2226.67	2.01703e-06
2235.23	2.45855e-06
2243.79	2.48937e-06
2252.34	2.15781e-06
2260.9	2.41063e-06
2269.46	3.45234e-06
2278.02	3.85512e-06
2286.57	3.12926e-06
2295.13	2.13391e-06
2303.69	1.48731e-06
2312.25	1.63046e-06
2320.8	2.04497e-06
2329.36	2.42683e-06
2337.92	2.76199e-06
2346.48	2.44455e-06
2355.03	2.0219e-06
2363.59	1.60204e-06
2372.15	1.80862e-06
2380.71	2.09275e-06
2389.26	2.05925e-06
2397.82	1.74447e-06
2406.38	1.67005e-06
2414.94	1.67184e-06
2423.5	1.55924e-06
2432.05	1.92902e-06
2440.61	2.56276e-06
2449.17	2.66664e-06
2457.73	2.21779e-06
2466.28	1.65834e-06
2474.84	1.56944e-06
2483.4	1.23533e-06
2491.96	1.15028e-06
2500.51	9.28866e-07
2509.07	7.92655e-07
2517.63	8.39543e-07
2526.19	7.48554e-07
2534.74	8.0284e-07
2543.3	9.79695e-07
2551.86	1.27109e-06
2560.42	1.4626e-06
2568.98	1.84704e-06
2577.53	1.96712e-06
2586.09	2.25169e-06
2594.65	3.13887e-06
2603.21	4.71276e-06
2611.76	6.87827e-06
2620.32	9.07606e-06
2628.88	9.50531e-06
2637.44	7.37719e-06
2645.99	5.32952e-06
2654.55	4.76942e-06
2663.11	4.81988e-06
2671.67	4.68953e-06
2680.22	4.53613e-06
2688.78	4.61408e-06
2697.34	5.05798e-06
2705.9	7.29919e-06
2714.45	1.27672e-05
2723.01	1.76142e-05
2731.57	2.01203e-05
2740.13	1.94752e-05
2748.69	1.65278e-05
2757.24	1.40632e-05
2765.8	1.56067e-05
2774.36	1.82246e-05
2782.92	1.81115e-05
2791.47	1.61372e-05
2800.03	1.60778e-05
2808.59	2.01083e-05
2817.15	2.60681e-05
2825.7	3.26246e-05
2834.26	3.99235e-05
2842.82	5.13727e-05
2851.38	6.60519e-05
2859.93	9.23319e-05
2868.49	0.000156416
2877.05	0.000254727
2885.61	0.000330772
2894.16	0.000349629
2902.72	0.000330423
2911.28	0.00027554
2919.84	0.000224178
2928.4	0.000228549
2936.95	0.0002957
2945.51	0.000316871
2954.07	0.000252416
2962.63	0.000281428
2971.18	0.000679653
2979.74	0.00125623
2988.3	0.00114153
2996.86	0.000451689
3005.41	9.05094e-05
3013.97	3.33096e-05
3022.53	3.02998e-05
3031.09	2.56463e-05
3039.64	1.6222e-05
3048.2	9.20348e-06
3056.76	6.36015e-06
3065.32	6.16132e-06
3073.88	6.74635e-06
3082.43	7.47665e-06
3090.99	7.51262e-06
3099.55	6.14969e-06
3108.11	4.8086e-06
3116.66	4.17086e-06
3125.22	3.98021e-06
3133.78	4.06195e-06
3142.34	4.12412e-06
3150.89	4.61152e-06
3159.45	5.49791e-06
3168.01	7.13321e-06
3176.57	8.67792e-06
3185.12	9.26567e-06
3193.68	8.29086e-06
3202.24	7.48203e-06
3210.8	7.91685e-06
3219.35	8.49086e-06
3227.91	9.42168e-06
3236.47	8.8147e-06
3245.03	6.99267e-06
3253.59	4.44889e-06
3262.14	2.70131e-06
3270.7	1.88568e-06
3279.26	1.71684e-06
3287.82	1.559e-06
3296.37	1.6659e-06
3304.93	2.32838e-06
3313.49	3.61145e-06
3322.05	3.60627e-06
3330.6	3.13004e-06
3339.16	2.24739e-06
3347.72	1.24944e-06
3356.28	7.53673e-07
3364.83	6.10186e-07
3373.39	6.83956e-07
3381.95	7.40718e-07
3390.51	7.20747e-07
3399.06	7.64126e-07
3407.62	1.05344e-06
3416.18	1.60937e-06
3424.74	2.52106e-06
3433.3	3.2501e-06
3441.85	2.55998e-06
3450.41	1.5852e-06
3458.97	9.35591e-07
3467.53	7.51739e-07
3476.08	9.30175e-07
3484.64	1.25881e-06
3493.2	9.10947e-07
3501.76	5.41869e-07
3510.31	1.32302e-07
3518.87	1.26053e-07
3527.43	1.21453e-07
3535.99	2.17894e-07
3544.54	8.88208e-08
3553.1	5.95461e-08
3561.66	9.19185e-08
3570.22	6.65583e-08
3578.78	-1.38479e-08
3587.33	1.51739e-07
3595.89	1.19658e-07
3604.45	-9.04051e-08
3613.01	8.93319e-08
3621.56	1.85525e-07
3630.12	2.16084e-07
3638.68	2.09094e-07
3647.24	9.02598e-07
3655.79	3.40451e-07
3664.35	2.7692e-07
3672.91	3.11857e-07
3681.47	3.24582e-07
3690.02	5.89322e-07
3698.58	8.55725e-07
3707.14	1.27045e-06
3715.7	1.79148e-06
3724.25	1.67714e-06
3732.81	9.61944e-07
3741.37	1.04058e-06
3749.93	9.97809e-07
3758.49	4.78086e-07
3767.04	5.30156e-07
3775.6	6.67669e-07
3784.16	7.17411e-07
3792.72	8.7918e-07
3801.27	2.76325e-06
3809.83	9.7258e-07
3818.39	1.1931e-06
3826.95	1.39226e-06
3835.5	1.38752e-06
3844.06	1.46527e-06
3852.62	1.51779e-06
3861.18	1.28624e-06
3869.73	1.46651e-06
3878.29	1.55046e-06
3886.85	2.24555e-06
3895.41	2.2834e-06
3903.96	2.49651e-06
3912.52	1.72259e-06
3921.08	1.60403e-06
3929.64	1.79122e-06
3938.2	2.02477e-06
3946.75	2.40624e-06
3955.31	2.531e-06
3963.87	2.65549e-06
3972.43	2.47631e-06
