Infrared Spectrum: tert-Butyl Ethyl Ether
Formula: ( C H3)3 C O C2 H5
CAS: 637-92-3
State: gas
Melting point: -94 C
Boiling point: 73.1 C
Class: IUPAC A
Instrument: IFS66V (Bruker)
Instrument parameters: KBr Beam splitter; MCT Detector; Multipass cell
Sampling: 1 L/min Flow
Resolution: 0.2410
Temperature: 23 C
Pressure: 101.3 kPa
Origin: NIST, Anayltical Chemistry Division, 301-975-3108
cm-1	(micromol/mol)-1m-1 (base 10)
575.048	3.46741e-07
583.606	-2.65473e-07
592.163	-1.46954e-07
600.721	-4.25965e-07
609.279	1.64236e-07
617.836	-9.36938e-08
626.394	1.57349e-07
634.951	2.78715e-07
643.509	9.13474e-08
652.067	1.69041e-07
660.624	3.17012e-08
669.182	1.62424e-07
677.74	2.36085e-08
686.297	4.8293e-07
694.855	4.50043e-07
703.412	8.35732e-07
711.97	1.63702e-06
720.528	4.51963e-06
729.085	1.25948e-05
737.643	2.30585e-05
746.201	1.96531e-05
754.758	7.90497e-06
763.316	2.46908e-06
771.873	1.77118e-06
780.431	1.6525e-06
788.989	1.52335e-06
797.546	1.63151e-06
806.104	2.04317e-06
814.662	2.91725e-06
823.219	5.05289e-06
831.777	1.54138e-05
840.334	4.66024e-05
848.892	7.14287e-05
857.45	5.34013e-05
866.007	1.37766e-05
874.565	3.7354e-06
883.123	2.46192e-06
891.68	3.05513e-06
900.238	4.82042e-06
908.795	8.77957e-06
917.353	9.93985e-06
925.911	8.78341e-06
934.468	1.25859e-05
943.026	3.36708e-05
951.584	9.20332e-05
960.141	0.00012251
968.699	8.61234e-05
977.256	1.39622e-05
985.814	5.4729e-06
994.372	4.62678e-06
1002.93	6.92414e-06
1011.49	1.45758e-05
1020.04	2.91529e-05
1028.6	2.73033e-05
1037.16	2.08818e-05
1045.72	2.37893e-05
1054.28	4.84663e-05
1062.83	0.000130074
1071.39	0.000347989
1079.95	0.000528868
1088.51	0.000426402
1097.06	0.000125985
1105.62	0.000142722
1114.18	0.000309149
1122.74	0.000362117
1131.29	0.000217322
1139.85	6.31211e-05
1148.41	5.30319e-05
1156.97	6.42346e-05
1165.52	6.34509e-05
1174.08	6.005e-05
1182.64	7.85704e-05
1191.2	0.000202991
1199.75	0.000483176
1208.31	0.000649213
1216.87	0.000403591
1225.43	0.000153054
1233.99	0.000153654
1242.54	0.000168282
1251.1	0.00015427
1259.66	0.000127875
1268.22	8.19338e-05
1276.77	4.15778e-05
1285.33	2.40531e-05
1293.89	1.77148e-05
1302.45	1.40497e-05
1311	1.0213e-05
1319.56	9.10974e-06
1328.12	8.15931e-06
1336.68	8.6809e-06
1345.23	2.32662e-05
1353.79	0.000114449
1362.35	0.000259293
1370.91	0.000263326
1379.46	0.000143061
1388.02	0.000181159
1396.58	0.000203343
1405.14	0.000121109
1413.7	3.14103e-05
1422.25	2.09935e-05
1430.81	2.3579e-05
1439.37	3.95207e-05
1447.93	5.89972e-05
1456.48	6.83517e-05
1465.04	7.62506e-05
1473.6	6.92523e-05
1482.16	6.13663e-05
1490.71	5.89683e-05
1499.27	4.04303e-05
1507.83	1.23949e-05
1516.39	5.21116e-06
1524.94	3.41865e-06
1533.5	3.039e-06
1542.06	4.68997e-06
1550.62	2.5169e-06
1559.18	2.97707e-06
1567.73	2.63391e-06
1576.29	6.04807e-06
1584.85	3.14757e-06
1593.41	3.02657e-06
1601.96	2.35005e-06
1610.52	1.69298e-06
1619.08	1.58139e-06
1627.64	2.03362e-06
1636.19	2.52861e-06
1644.75	2.86482e-06
1653.31	7.44239e-06
1661.87	2.72321e-06
1670.42	2.55347e-06
1678.98	2.78383e-06
1687.54	3.64217e-06
1696.1	7.08599e-06
1704.65	4.96491e-06
1713.21	3.09965e-06
1721.77	2.01052e-06
1730.33	2.19373e-06
1738.89	2.74411e-06
1747.44	3.49083e-06
1756	3.8603e-06
1764.56	3.05779e-06
1773.12	2.3122e-06
1781.67	1.98722e-06
1790.23	3.34271e-06
1798.79	6.29148e-06
1807.35	8.79968e-06
1815.9	8.25276e-06
1824.46	4.75986e-06
1833.02	3.28118e-06
1841.58	2.06564e-06
1850.13	2.03171e-06
1858.69	2.20727e-06
1867.25	2.05435e-06
1875.81	1.66559e-06
1884.36	1.61886e-06
1892.92	1.99988e-06
1901.48	3.05481e-06
1910.04	5.46078e-06
1918.6	9.01539e-06
1927.15	1.1517e-05
1935.71	9.28776e-06
1944.27	4.26882e-06
1952.83	2.86888e-06
1961.38	3.73444e-06
1969.94	4.09856e-06
1978.5	3.1018e-06
1987.06	1.62309e-06
1995.61	1.08232e-06
2004.17	9.29492e-07
2012.73	9.59503e-07
2021.29	1.0967e-06
2029.84	1.43274e-06
2038.4	2.13333e-06
2046.96	3.07289e-06
2055.52	3.29971e-06
2064.08	2.03308e-06
2072.63	1.07985e-06
2081.19	1.17233e-06
2089.75	1.61486e-06
2098.31	2.20089e-06
2106.86	2.64998e-06
2115.42	2.14765e-06
2123.98	1.64535e-06
2132.54	1.74165e-06
2141.09	1.91747e-06
2149.65	2.04077e-06
2158.21	2.46295e-06
2166.77	2.84633e-06
2175.32	3.12809e-06
2183.88	3.82969e-06
2192.44	5.00091e-06
2201	4.98424e-06
2209.55	3.53733e-06
2218.11	2.15758e-06
2226.67	2.03365e-06
2235.23	2.46951e-06
2243.79	2.51973e-06
2252.34	2.15488e-06
2260.9	2.4288e-06
2269.46	3.45324e-06
2278.02	3.84062e-06
2286.57	3.14271e-06
2295.13	2.15067e-06
2303.69	1.48733e-06
2312.25	1.63077e-06
2320.8	2.03457e-06
2329.36	2.44594e-06
2337.92	2.77973e-06
2346.48	2.44507e-06
2355.03	1.9738e-06
2363.59	1.58856e-06
2372.15	1.80859e-06
2380.71	2.09602e-06
2389.26	2.05326e-06
2397.82	1.76255e-06
2406.38	1.70693e-06
2414.94	1.66016e-06
2423.5	1.54792e-06
2432.05	1.93135e-06
2440.61	2.55086e-06
2449.17	2.6511e-06
2457.73	2.18771e-06
2466.28	1.70784e-06
2474.84	1.55307e-06
2483.4	1.26455e-06
2491.96	1.13822e-06
2500.51	9.11078e-07
2509.07	7.6971e-07
2517.63	8.30537e-07
2526.19	7.73749e-07
2534.74	8.06356e-07
2543.3	9.66644e-07
2551.86	1.26542e-06
2560.42	1.53536e-06
2568.98	1.83836e-06
2577.53	1.96143e-06
2586.09	2.29209e-06
2594.65	3.13445e-06
2603.21	4.71184e-06
2611.76	6.89727e-06
2620.32	9.06051e-06
2628.88	9.48703e-06
2637.44	7.37085e-06
2645.99	5.33553e-06
2654.55	4.77412e-06
2663.11	4.8164e-06
2671.67	4.67363e-06
2680.22	4.57422e-06
2688.78	4.63582e-06
2697.34	5.09026e-06
2705.9	7.30881e-06
2714.45	1.27554e-05
2723.01	1.75998e-05
2731.57	2.01482e-05
2740.13	1.94377e-05
2748.69	1.6522e-05
2757.24	1.40537e-05
2765.8	1.56089e-05
2774.36	1.82321e-05
2782.92	1.80841e-05
2791.47	1.62156e-05
2800.03	1.61472e-05
2808.59	2.01276e-05
2817.15	2.61479e-05
2825.7	3.26086e-05
2834.26	3.9945e-05
2842.82	5.14306e-05
2851.38	6.63019e-05
2859.93	9.25418e-05
2868.49	0.000156619
2877.05	0.000254839
2885.61	0.000330839
2894.16	0.000349515
2902.72	0.000330203
2911.28	0.000275573
2919.84	0.000224591
2928.4	0.000228795
2936.95	0.000295819
2945.51	0.000316161
2954.07	0.000253168
2962.63	0.000283092
2971.18	0.000679184
2979.74	0.00125208
2988.3	0.00113774
2996.86	0.000452253
3005.41	9.16851e-05
3013.97	3.3846e-05
3022.53	3.0637e-05
3031.09	2.58845e-05
3039.64	1.64086e-05
3048.2	9.2961e-06
3056.76	6.50754e-06
3065.32	6.26148e-06
3073.88	6.80218e-06
3082.43	7.5532e-06
3090.99	7.53375e-06
3099.55	6.22145e-06
3108.11	4.94065e-06
3116.66	4.22802e-06
3125.22	4.07278e-06
3133.78	4.04432e-06
3142.34	4.10751e-06
3150.89	4.59351e-06
3159.45	5.47337e-06
3168.01	7.09923e-06
3176.57	8.73543e-06
3185.12	9.3031e-06
3193.68	8.31679e-06
3202.24	7.46826e-06
3210.8	7.88012e-06
3219.35	8.4975e-06
3227.91	9.27543e-06
3236.47	8.79295e-06
3245.03	7.00355e-06
3253.59	4.42703e-06
3262.14	2.64854e-06
3270.7	1.90738e-06
3279.26	1.70914e-06
3287.82	1.59662e-06
3296.37	1.72379e-06
3304.93	2.35854e-06
3313.49	3.56838e-06
3322.05	3.70491e-06
3330.6	3.19186e-06
3339.16	2.25884e-06
3347.72	1.3146e-06
3356.28	7.81263e-07
3364.83	6.44092e-07
3373.39	7.30868e-07
3381.95	7.02406e-07
3390.51	7.16063e-07
3399.06	8.07358e-07
3407.62	1.04458e-06
3416.18	1.58137e-06
3424.74	2.55358e-06
3433.3	3.19113e-06
3441.85	2.52802e-06
3450.41	1.56915e-06
3458.97	9.21941e-07
3467.53	7.99171e-07
3476.08	9.46384e-07
3484.64	1.22719e-06
3493.2	1.009e-06
3501.76	5.77352e-07
3510.31	1.67097e-07
3518.87	1.39063e-07
3527.43	9.54055e-08
3535.99	7.64044e-08
3544.54	4.7097e-08
3553.1	4.72425e-08
3561.66	6.70021e-08
3570.22	5.34325e-08
3578.78	-4.12581e-08
3587.33	1.08699e-07
3595.89	4.81739e-08
3604.45	-5.92951e-08
3613.01	1.72556e-07
3621.56	1.87981e-07
3630.12	3.41071e-07
3638.68	2.19818e-07
3647.24	8.63201e-07
3655.79	4.00978e-07
3664.35	2.84796e-07
3672.91	3.41188e-07
3681.47	3.66663e-07
3690.02	6.58227e-07
3698.58	8.00351e-07
3707.14	1.30196e-06
3715.7	1.78255e-06
3724.25	1.6768e-06
3732.81	1.02026e-06
3741.37	9.6719e-07
3749.93	9.97476e-07
3758.49	5.01025e-07
3767.04	5.2053e-07
3775.6	6.28523e-07
3784.16	7.5732e-07
3792.72	8.91237e-07
3801.27	2.99575e-06
3809.83	1.05041e-06
3818.39	1.1623e-06
3826.95	1.49526e-06
3835.5	1.43421e-06
3844.06	1.40883e-06
3852.62	1.5086e-06
3861.18	1.24691e-06
3869.73	1.62928e-06
3878.29	1.59921e-06
3886.85	2.22499e-06
3895.41	2.36091e-06
3903.96	2.58898e-06
3912.52	1.73241e-06
3921.08	1.58125e-06
3929.64	1.77706e-06
3938.2	1.96838e-06
3946.75	2.32067e-06
3955.31	2.53273e-06
3963.87	2.62107e-06
3972.43	2.42713e-06
