Infrared Spectrum: tert-Butyl Ethyl Ether
Formula: ( C H3)3 C O C2 H5
CAS: 637-92-3
State: gas
Melting point: -94 C
Boiling point: 73.1 C
Class: IUPAC A
Instrument: IFS66V (Bruker)
Instrument parameters: KBr Beam splitter; MCT Detector; Multipass cell
Sampling: 1 L/min Flow
Resolution: 0.4820
Temperature: 23 C
Pressure: 101.3 kPa
Origin: NIST, Anayltical Chemistry Division, 301-975-3108
cm-1	(micromol/mol)-1m-1 (base 10)
574.928	2.80809e-07
583.606	-2.31649e-07
592.284	-8.97594e-08
600.962	-3.79297e-07
609.641	1.67686e-07
618.319	1.92683e-07
626.997	6.41736e-08
635.675	8.36094e-08
644.353	-1.22217e-08
653.031	1.06194e-07
661.71	-3.33819e-08
670.388	-1.77169e-09
679.066	1.64661e-07
687.744	3.46021e-07
696.422	6.85281e-07
705.1	9.14898e-07
713.778	2.09399e-06
722.457	5.75272e-06
731.135	1.59181e-05
739.813	2.33098e-05
748.491	1.90863e-05
757.169	5.14517e-06
765.847	2.02518e-06
774.526	1.73447e-06
783.204	1.54828e-06
791.882	1.46255e-06
800.56	1.71076e-06
809.238	2.38915e-06
817.916	3.38147e-06
826.594	7.33603e-06
835.273	2.49568e-05
843.951	6.10623e-05
852.629	6.35923e-05
861.307	3.13074e-05
869.985	6.888e-06
878.663	2.6134e-06
887.342	2.73745e-06
896.02	3.74311e-06
904.698	6.79512e-06
913.376	9.30999e-06
922.054	9.84869e-06
930.732	9.57115e-06
939.41	2.11806e-05
948.089	6.35223e-05
956.767	0.000116269
965.445	0.000102362
974.123	2.79909e-05
982.801	6.57498e-06
991.479	4.47137e-06
1000.16	5.64963e-06
1008.84	1.13301e-05
1017.51	2.54674e-05
1026.19	3.16468e-05
1034.87	2.37744e-05
1043.55	2.08724e-05
1052.23	3.93557e-05
1060.9	0.000102081
1069.58	0.000291169
1078.26	0.000520568
1086.94	0.000464385
1095.62	0.000165495
1104.3	0.000124252
1112.97	0.000284261
1121.65	0.000366907
1130.33	0.000241115
1139.01	6.81382e-05
1147.69	5.19441e-05
1156.36	6.33657e-05
1165.04	6.37087e-05
1173.72	5.97046e-05
1182.4	7.67527e-05
1191.08	0.00019952
1199.76	0.000484049
1208.43	0.000651922
1217.11	0.000392211
1225.79	0.000150502
1234.47	0.000154548
1243.15	0.000168175
1251.82	0.000153057
1260.5	0.000124134
1269.18	7.65832e-05
1277.86	3.7977e-05
1286.54	2.27466e-05
1295.21	1.69393e-05
1303.89	1.31432e-05
1312.57	9.79309e-06
1321.25	8.88204e-06
1329.93	7.80195e-06
1338.61	9.40465e-06
1347.28	3.45504e-05
1355.96	0.00015056
1364.64	0.000304385
1373.32	0.000229454
1382	0.000129586
1390.67	0.000196378
1399.35	0.000193986
1408.03	6.84727e-05
1416.71	2.53129e-05
1425.39	2.03627e-05
1434.07	2.8748e-05
1442.74	4.64772e-05
1451.42	6.14381e-05
1460.1	7.25022e-05
1468.78	7.73473e-05
1477.46	6.20632e-05
1486.13	6.16106e-05
1494.81	4.77788e-05
1503.49	2.3461e-05
1512.17	7.69322e-06
1520.85	4.25485e-06
1529.52	2.80906e-06
1538.2	2.85869e-06
1546.88	2.44166e-06
1555.56	2.48765e-06
1564.24	2.59084e-06
1572.92	2.73386e-06
1581.59	3.04588e-06
1590.27	3.12926e-06
1598.95	2.65439e-06
1607.63	1.84754e-06
1616.31	2.26616e-06
1624.98	1.65388e-06
1633.66	2.05134e-06
1642.34	2.69105e-06
1651.02	3.01862e-06
1659.7	2.74692e-06
1668.38	2.7274e-06
1677.05	2.6807e-06
1685.73	3.46339e-06
1694.41	4.5767e-06
1703.09	4.66548e-06
1711.77	3.41206e-06
1720.44	2.07992e-06
1729.12	2.0089e-06
1737.8	2.66775e-06
1746.48	3.32621e-06
1755.16	3.85614e-06
1763.84	3.16712e-06
1772.51	3.31786e-06
1781.19	2.01814e-06
1789.87	3.209e-06
1798.55	6.18597e-06
1807.23	8.78291e-06
1815.9	8.27214e-06
1824.58	4.70698e-06
1833.26	3.27701e-06
1841.94	2.05381e-06
1850.62	2.02633e-06
1859.29	2.16228e-06
1867.97	2.22227e-06
1876.65	1.64738e-06
1885.33	1.59094e-06
1894.01	2.08808e-06
1902.69	3.29377e-06
1911.36	5.85224e-06
1920.04	9.66891e-06
1928.72	1.14623e-05
1937.4	8.41376e-06
1946.08	3.46786e-06
1954.75	3.00256e-06
1963.43	3.96587e-06
1972.11	4.00925e-06
1980.79	2.62056e-06
1989.47	1.37855e-06
1998.15	1.02928e-06
2006.82	9.56862e-07
2015.5	1.01323e-06
2024.18	1.13637e-06
2032.86	1.56629e-06
2041.54	2.49615e-06
2050.21	3.30206e-06
2058.89	2.95826e-06
2067.57	1.50804e-06
2076.25	1.05544e-06
2084.93	1.25072e-06
2093.6	1.81302e-06
2102.28	2.45488e-06
2110.96	2.46956e-06
2119.64	1.78626e-06
2128.32	1.65384e-06
2137	1.84323e-06
2145.67	1.96485e-06
2154.35	2.23052e-06
2163.03	2.68892e-06
2171.71	3.02115e-06
2180.39	3.43721e-06
2189.06	4.52987e-06
2197.74	5.18081e-06
2206.42	4.17997e-06
2215.1	2.5481e-06
2223.78	2.00945e-06
2232.46	2.29962e-06
2241.13	2.56863e-06
2249.81	2.18144e-06
2258.49	2.18511e-06
2267.17	3.16581e-06
2275.85	3.844e-06
2284.52	3.33676e-06
2293.2	2.38144e-06
2301.88	1.55656e-06
2310.56	1.56291e-06
2319.24	1.95077e-06
2327.92	2.37757e-06
2336.59	2.6699e-06
2345.27	2.46408e-06
2353.95	2.04653e-06
2362.63	1.6371e-06
2371.31	1.80002e-06
2379.98	2.08689e-06
2388.66	2.09481e-06
2397.34	1.80112e-06
2406.02	1.67009e-06
2414.7	1.636e-06
2423.37	1.55485e-06
2432.05	1.93201e-06
2440.73	2.55765e-06
2449.41	2.64484e-06
2458.09	2.15303e-06
2466.77	1.74528e-06
2475.44	1.51735e-06
2484.12	1.27275e-06
2492.8	1.09594e-06
2501.48	8.75028e-07
2510.16	7.81661e-07
2518.83	8.72787e-07
2527.51	8.27492e-07
2536.19	8.36303e-07
2544.87	9.84961e-07
2553.55	1.32151e-06
2562.23	1.60923e-06
2570.9	1.8536e-06
2579.58	2.04116e-06
2588.26	2.38191e-06
2596.94	3.48727e-06
2605.62	5.27479e-06
2614.29	7.57653e-06
2622.97	9.41027e-06
2631.65	8.88134e-06
2640.33	6.55077e-06
2649.01	5.02622e-06
2657.68	4.76036e-06
2666.36	4.79501e-06
2675.04	4.62879e-06
2683.72	4.56331e-06
2692.4	4.73041e-06
2701.08	5.67128e-06
2709.75	9.42464e-06
2718.43	1.55629e-05
2727.11	1.91539e-05
2735.79	1.9936e-05
2744.47	1.84087e-05
2753.14	1.48624e-05
2761.82	1.43016e-05
2770.5	1.71413e-05
2779.18	1.82041e-05
2787.86	1.6945e-05
2796.54	1.58156e-05
2805.21	1.81568e-05
2813.89	2.36458e-05
2822.57	3.03893e-05
2831.25	3.6736e-05
2839.93	4.72439e-05
2848.6	6.06712e-05
2857.28	8.19153e-05
2865.96	0.000131931
2874.64	0.000227506
2883.32	0.000318096
2892	0.000345881
2900.67	0.000341734
2909.35	0.000287186
2918.03	0.000233275
2926.71	0.000217764
2935.39	0.00028776
2944.06	0.000316884
2952.74	0.000262826
2961.42	0.000261091
2970.1	0.000616772
2978.78	0.00117769
2987.45	0.00120837
2996.13	0.000506665
3004.81	0.000101796
3013.49	3.3905e-05
3022.17	3.04267e-05
3030.85	2.60338e-05
3039.52	1.64085e-05
3048.2	9.1255e-06
3056.88	6.39451e-06
3065.56	6.14815e-06
3074.24	6.75059e-06
3082.91	7.51554e-06
3091.59	7.38111e-06
3100.27	6.17798e-06
3108.95	4.85727e-06
3117.63	4.21413e-06
3126.31	4.04872e-06
3134.98	4.00285e-06
3143.66	4.11829e-06
3152.34	4.61702e-06
3161.02	5.73077e-06
3169.7	7.42408e-06
3178.37	9.08412e-06
3187.05	9.21392e-06
3195.73	8.05745e-06
3204.41	7.45561e-06
3213.09	7.98917e-06
3221.77	8.73303e-06
3230.44	9.22711e-06
3239.12	8.42578e-06
3247.8	6.20972e-06
3256.48	3.64117e-06
3265.16	2.20962e-06
3273.83	1.80207e-06
3282.51	1.65695e-06
3291.19	1.55856e-06
3299.87	1.90173e-06
3308.55	2.88873e-06
3317.22	3.74951e-06
3325.9	3.6568e-06
3334.58	2.75122e-06
3343.26	1.69052e-06
3351.94	1.06298e-06
3360.62	7.21946e-07
3369.29	5.93049e-07
3377.97	6.05004e-07
3386.65	7.44696e-07
3395.33	8.82131e-07
3404.01	9.55754e-07
3412.68	1.29501e-06
3421.36	2.11841e-06
3430.04	3.08871e-06
3438.72	2.93485e-06
3447.4	1.94616e-06
3456.08	1.07559e-06
3464.75	8.12755e-07
3473.43	1.00779e-06
3482.11	1.26739e-06
3490.79	1.21267e-06
3499.47	7.18177e-07
3508.14	3.20286e-07
3516.82	2.18714e-08
3525.5	8.76221e-08
3534.18	4.73499e-08
3542.86	1.0581e-08
3551.53	4.45923e-08
3560.21	1.40034e-07
3568.89	6.7104e-08
3577.57	-1.33695e-09
3586.25	2.87915e-07
3594.93	6.06539e-08
3603.6	4.65295e-09
3612.28	2.76185e-07
3620.96	1.47714e-07
3629.64	1.85236e-06
3638.32	2.82084e-07
3646.99	6.97954e-07
3655.67	3.81275e-07
3664.35	2.83641e-07
3673.03	3.38976e-07
3681.71	4.35382e-07
3690.39	7.77479e-07
3699.06	7.86207e-07
3707.74	1.36774e-06
3716.42	1.79875e-06
3725.1	1.70067e-06
3733.78	9.85834e-07
3742.45	6.41605e-07
3751.13	6.94832e-07
3759.81	1.12956e-06
3768.49	4.87641e-07
3777.17	6.01729e-07
3785.85	7.89821e-07
3794.52	1.04855e-06
3803.2	1.19825e-06
3811.88	1.0545e-06
3820.56	1.96272e-06
3829.24	1.25169e-06
3837.91	4.13364e-06
3846.59	1.18929e-06
3855.27	1.17773e-06
3863.95	1.28705e-06
3872.63	1.49251e-06
3881.3	2.04894e-06
3889.98	2.32887e-06
3898.66	2.39728e-06
3907.34	1.96582e-06
3916.02	1.60971e-06
3924.7	1.65928e-06
3933.37	1.81322e-06
3942.05	2.10741e-06
3950.73	2.44275e-06
3959.41	2.56528e-06
3968.09	2.45289e-06
