Infrared Spectrum: tert-Butyl Ethyl Ether
Formula: ( C H3)3 C O C2 H5
CAS: 637-92-3
State: gas
Melting point: -94 C
Boiling point: 73.1 C
Class: IUPAC A
Instrument: IFS66V (Bruker)
Instrument parameters: KBr Beam splitter; MCT Detector; Multipass cell
Sampling: 1 L/min Flow
Resolution: 0.4820
Temperature: 23 C
Pressure: 101.3 kPa
Origin: NIST, Anayltical Chemistry Division, 301-975-3108
cm-1	(micromol/mol)-1m-1 (base 10)
574.928	2.76369e-07
583.606	-2.30021e-07
592.284	-8.80786e-08
600.962	-3.75749e-07
609.641	1.68941e-07
618.319	1.90243e-07
626.997	6.57434e-08
635.675	8.39641e-08
644.353	-1.27601e-08
653.031	1.05408e-07
661.71	-3.12446e-08
670.388	-1.08957e-09
679.066	1.64447e-07
687.744	3.47723e-07
696.422	6.84479e-07
705.1	9.14967e-07
713.778	2.09339e-06
722.457	5.75335e-06
731.135	1.59169e-05
739.813	2.33105e-05
748.491	1.90856e-05
757.169	5.14463e-06
765.847	2.02652e-06
774.526	1.73382e-06
783.204	1.54825e-06
791.882	1.46313e-06
800.56	1.7102e-06
809.238	2.38909e-06
817.916	3.38059e-06
826.594	7.33617e-06
835.273	2.49562e-05
843.951	6.10613e-05
852.629	6.3598e-05
861.307	3.13079e-05
869.985	6.88805e-06
878.663	2.61337e-06
887.342	2.73761e-06
896.02	3.74307e-06
904.698	6.79525e-06
913.376	9.30999e-06
922.054	9.8505e-06
930.732	9.57096e-06
939.41	2.11801e-05
948.089	6.3523e-05
956.767	0.000116268
965.445	0.000102362
974.123	2.79927e-05
982.801	6.57589e-06
991.479	4.47136e-06
1000.16	5.6497e-06
1008.84	1.133e-05
1017.51	2.54669e-05
1026.19	3.16461e-05
1034.87	2.3774e-05
1043.55	2.08722e-05
1052.23	3.93561e-05
1060.9	0.000102082
1069.58	0.00029117
1078.26	0.000520564
1086.94	0.000464404
1095.62	0.000165504
1104.3	0.000124254
1112.97	0.000284261
1121.65	0.000366908
1130.33	0.000241111
1139.01	6.81423e-05
1147.69	5.1943e-05
1156.36	6.33664e-05
1165.04	6.37085e-05
1173.72	5.97044e-05
1182.4	7.67542e-05
1191.08	0.000199524
1199.76	0.000484052
1208.43	0.000651925
1217.11	0.000392216
1225.79	0.000150505
1234.47	0.000154548
1243.15	0.000168174
1251.82	0.000153056
1260.5	0.000124133
1269.18	7.65833e-05
1277.86	3.79781e-05
1286.54	2.27463e-05
1295.21	1.69393e-05
1303.89	1.31437e-05
1312.57	9.79322e-06
1321.25	8.88136e-06
1329.93	7.80248e-06
1338.61	9.40433e-06
1347.28	3.45526e-05
1355.96	0.000150558
1364.64	0.000304378
1373.32	0.000229458
1382	0.000129591
1390.67	0.000196378
1399.35	0.00019398
1408.03	6.84765e-05
1416.71	2.53138e-05
1425.39	2.03632e-05
1434.07	2.87479e-05
1442.74	4.64769e-05
1451.42	6.14392e-05
1460.1	7.25009e-05
1468.78	7.73446e-05
1477.46	6.20642e-05
1486.13	6.16094e-05
1494.81	4.77803e-05
1503.49	2.34626e-05
1512.17	7.68709e-06
1520.85	4.2698e-06
1529.52	2.80959e-06
1538.2	2.85597e-06
1546.88	2.44142e-06
1555.56	2.48855e-06
1564.24	2.59287e-06
1572.92	2.73297e-06
1581.59	3.04612e-06
1590.27	3.1293e-06
1598.95	2.65452e-06
1607.63	1.84731e-06
1616.31	2.27863e-06
1624.98	1.65353e-06
1633.66	2.05183e-06
1642.34	2.6905e-06
1651.02	3.01732e-06
1659.7	2.74762e-06
1668.38	2.72726e-06
1677.05	2.6813e-06
1685.73	3.4612e-06
1694.41	4.57787e-06
1703.09	4.6645e-06
1711.77	3.41166e-06
1720.44	2.08086e-06
1729.12	2.009e-06
1737.8	2.66885e-06
1746.48	3.3282e-06
1755.16	3.856e-06
1763.84	3.16704e-06
1772.51	3.30595e-06
1781.19	2.0198e-06
1789.87	3.20938e-06
1798.55	6.18621e-06
1807.23	8.7834e-06
1815.9	8.2719e-06
1824.58	4.70994e-06
1833.26	3.27689e-06
1841.94	2.05311e-06
1850.62	2.02627e-06
1859.29	2.16244e-06
1867.97	2.22024e-06
1876.65	1.64759e-06
1885.33	1.59081e-06
1894.01	2.08831e-06
1902.69	3.29331e-06
1911.36	5.85243e-06
1920.04	9.66882e-06
1928.72	1.14619e-05
1937.4	8.41397e-06
1946.08	3.46796e-06
1954.75	3.00281e-06
1963.43	3.96524e-06
1972.11	4.00885e-06
1980.79	2.62068e-06
1989.47	1.37891e-06
1998.15	1.02893e-06
2006.82	9.5662e-07
2015.5	1.01279e-06
2024.18	1.13694e-06
2032.86	1.56664e-06
2041.54	2.49615e-06
2050.21	3.30244e-06
2058.89	2.95822e-06
2067.57	1.50835e-06
2076.25	1.0555e-06
2084.93	1.25108e-06
2093.6	1.81318e-06
2102.28	2.4553e-06
2110.96	2.46925e-06
2119.64	1.78598e-06
2128.32	1.65363e-06
2137	1.84305e-06
2145.67	1.96501e-06
2154.35	2.23042e-06
2163.03	2.68883e-06
2171.71	3.0212e-06
2180.39	3.43739e-06
2189.06	4.52997e-06
2197.74	5.18039e-06
2206.42	4.17981e-06
2215.1	2.5477e-06
2223.78	2.00927e-06
2232.46	2.29985e-06
2241.13	2.56836e-06
2249.81	2.18163e-06
2258.49	2.18522e-06
2267.17	3.16599e-06
2275.85	3.84343e-06
2284.52	3.33701e-06
2293.2	2.38186e-06
2301.88	1.55671e-06
2310.56	1.56291e-06
2319.24	1.95076e-06
2327.92	2.37817e-06
2336.59	2.67089e-06
2345.27	2.46441e-06
2353.95	2.04667e-06
2362.63	1.63603e-06
2371.31	1.79949e-06
2379.98	2.08667e-06
2388.66	2.0946e-06
2397.34	1.80087e-06
2406.02	1.6702e-06
2414.7	1.63568e-06
2423.37	1.55518e-06
2432.05	1.93181e-06
2440.73	2.55742e-06
2449.41	2.64492e-06
2458.09	2.15298e-06
2466.77	1.74487e-06
2475.44	1.51793e-06
2484.12	1.27267e-06
2492.8	1.09573e-06
2501.48	8.74908e-07
2510.16	7.81368e-07
2518.83	8.71761e-07
2527.51	8.27787e-07
2536.19	8.36111e-07
2544.87	9.85403e-07
2553.55	1.32111e-06
2562.23	1.60958e-06
2570.9	1.85365e-06
2579.58	2.04071e-06
2588.26	2.38189e-06
2596.94	3.48646e-06
2605.62	5.27464e-06
2614.29	7.57712e-06
2622.97	9.41122e-06
2631.65	8.88173e-06
2640.33	6.55061e-06
2649.01	5.02592e-06
2657.68	4.76049e-06
2666.36	4.7949e-06
2675.04	4.62835e-06
2683.72	4.56374e-06
2692.4	4.73054e-06
2701.08	5.67121e-06
2709.75	9.42459e-06
2718.43	1.55625e-05
2727.11	1.91545e-05
2735.79	1.99358e-05
2744.47	1.84081e-05
2753.14	1.48623e-05
2761.82	1.43011e-05
2770.5	1.71416e-05
2779.18	1.82043e-05
2787.86	1.69447e-05
2796.54	1.58148e-05
2805.21	1.81577e-05
2813.89	2.3645e-05
2822.57	3.03892e-05
2831.25	3.67361e-05
2839.93	4.72435e-05
2848.6	6.06709e-05
2857.28	8.19164e-05
2865.96	0.000131932
2874.64	0.000227504
2883.32	0.000318096
2892	0.000345884
2900.67	0.000341734
2909.35	0.000287187
2918.03	0.000233275
2926.71	0.000217767
2935.39	0.000287761
2944.06	0.000316889
2952.74	0.000262826
2961.42	0.000261099
2970.1	0.000616778
2978.78	0.00117771
2987.45	0.00120833
2996.13	0.00050667
3004.81	0.0001018
3013.49	3.39059e-05
3022.17	3.0427e-05
3030.85	2.60346e-05
3039.52	1.64083e-05
3048.2	9.12548e-06
3056.88	6.39634e-06
3065.56	6.14871e-06
3074.24	6.75136e-06
3082.91	7.51507e-06
3091.59	7.38154e-06
3100.27	6.17759e-06
3108.95	4.8572e-06
3117.63	4.21407e-06
3126.31	4.04845e-06
3134.98	4.00248e-06
3143.66	4.11796e-06
3152.34	4.61623e-06
3161.02	5.73022e-06
3169.7	7.42466e-06
3178.37	9.08417e-06
3187.05	9.2139e-06
3195.73	8.05889e-06
3204.41	7.45601e-06
3213.09	7.98914e-06
3221.77	8.73386e-06
3230.44	9.22734e-06
3239.12	8.42579e-06
3247.8	6.20828e-06
3256.48	3.64049e-06
3265.16	2.21088e-06
3273.83	1.80132e-06
3282.51	1.65666e-06
3291.19	1.55875e-06
3299.87	1.90147e-06
3308.55	2.88884e-06
3317.22	3.75013e-06
3325.9	3.65573e-06
3334.58	2.75068e-06
3343.26	1.6911e-06
3351.94	1.06228e-06
3360.62	7.21891e-07
3369.29	5.93109e-07
3377.97	6.06213e-07
3386.65	7.44685e-07
3395.33	8.81098e-07
3404.01	9.56018e-07
3412.68	1.29526e-06
3421.36	2.11912e-06
3430.04	3.08857e-06
3438.72	2.9347e-06
3447.4	1.94597e-06
3456.08	1.07576e-06
3464.75	8.12322e-07
3473.43	1.00755e-06
3482.11	1.26693e-06
3490.79	1.21136e-06
3499.47	7.16869e-07
3508.14	3.19948e-07
3516.82	2.24335e-08
3525.5	8.69654e-08
3534.18	4.68678e-08
3542.86	1.08848e-08
3551.53	4.52526e-08
3560.21	1.39601e-07
3568.89	6.90303e-08
3577.57	-1.49338e-09
3586.25	2.8741e-07
3594.93	6.22237e-08
3603.6	4.67114e-09
3612.28	2.76034e-07
3620.96	1.47225e-07
3629.64	1.83729e-06
3638.32	2.81589e-07
3646.99	7.00733e-07
3655.67	3.88634e-07
3664.35	2.83615e-07
3673.03	3.37968e-07
3681.71	4.3508e-07
3690.39	7.75737e-07
3699.06	7.86496e-07
3707.74	1.36825e-06
3716.42	1.79806e-06
3725.1	1.69839e-06
3733.78	9.88219e-07
3742.45	6.42085e-07
3751.13	6.96437e-07
3759.81	1.12335e-06
3768.49	4.87239e-07
3777.17	6.01799e-07
3785.85	7.89756e-07
3794.52	1.04792e-06
3803.2	1.19652e-06
3811.88	1.05415e-06
3820.56	1.95711e-06
3829.24	1.25211e-06
3837.91	4.10955e-06
3846.59	1.18962e-06
3855.27	1.17754e-06
3863.95	1.28805e-06
3872.63	1.49192e-06
3881.3	2.04728e-06
3889.98	2.32733e-06
3898.66	2.40085e-06
3907.34	1.96656e-06
3916.02	1.61008e-06
3924.7	1.6604e-06
3933.37	1.81326e-06
3942.05	2.1088e-06
3950.73	2.44229e-06
3959.41	2.56565e-06
3968.09	2.45241e-06
