Infrared Spectrum: tert-Butyl Ethyl Ether
Formula: ( C H3)3 C O C2 H5
CAS: 637-92-3
State: gas
Melting point: -94 C
Boiling point: 73.1 C
Class: IUPAC A
Instrument: IFS66V (Bruker)
Instrument parameters: KBr Beam splitter; MCT Detector; Multipass cell
Sampling: 1 L/min Flow
Resolution: 0.1250
Temperature: 23 C
Pressure: 101.3 kPa
Origin: NIST, Anayltical Chemistry Division, 301-975-3108
cm-1	(micromol/mol)-1m-1 (base 10)
574.988	1.25799e-06
583.546	-6.06119e-07
592.103	2.98704e-07
600.661	-5.40483e-07
609.219	2.82968e-07
617.776	-1.819e-07
626.334	1.26868e-07
634.891	4.54949e-07
643.449	6.58453e-08
652.007	2.58994e-07
660.564	1.49993e-07
669.122	1.4729e-07
677.68	-5.05149e-08
686.237	6.02253e-07
694.795	5.94033e-07
703.352	7.62546e-07
711.91	1.54298e-06
720.468	4.53148e-06
729.025	1.25491e-05
737.583	2.3133e-05
746.141	1.9681e-05
754.698	8.00494e-06
763.256	2.37436e-06
771.813	1.72011e-06
780.371	1.83294e-06
788.929	1.58647e-06
797.486	1.67912e-06
806.044	1.99079e-06
814.602	2.89558e-06
823.159	5.09068e-06
831.717	1.51601e-05
840.274	4.63399e-05
848.832	7.14707e-05
857.39	5.38705e-05
865.947	1.38044e-05
874.505	3.6722e-06
883.063	2.38529e-06
891.62	3.01878e-06
900.178	4.79398e-06
908.735	8.76177e-06
917.293	9.97371e-06
925.851	8.68377e-06
934.408	1.23692e-05
942.966	3.32903e-05
951.524	9.16962e-05
960.081	0.000122645
968.639	8.69081e-05
977.196	1.39335e-05
985.754	5.47518e-06
994.312	4.54791e-06
1002.87	6.77396e-06
1011.43	1.43572e-05
1019.98	2.91416e-05
1028.54	2.72897e-05
1037.1	2.07728e-05
1045.66	2.35096e-05
1054.22	4.78229e-05
1062.77	0.000128806
1071.33	0.000346377
1079.89	0.00052971
1088.45	0.000427869
1097	0.000126242
1105.56	0.000141291
1114.12	0.000308507
1122.68	0.000363363
1131.23	0.000218952
1139.79	6.29069e-05
1148.35	5.27177e-05
1156.91	6.41227e-05
1165.46	6.32473e-05
1174.02	5.98402e-05
1182.58	7.77755e-05
1191.14	0.000201042
1199.69	0.000481686
1208.25	0.000650726
1216.81	0.000407208
1225.37	0.000152744
1233.93	0.000153352
1242.48	0.000168446
1251.04	0.000154496
1259.6	0.00012825
1268.16	8.2182e-05
1276.71	4.15968e-05
1285.27	2.39847e-05
1293.83	1.76005e-05
1302.39	1.40044e-05
1310.94	1.0155e-05
1319.5	8.9985e-06
1328.06	8.04334e-06
1336.62	8.51825e-06
1345.17	2.2677e-05
1353.73	0.00011335
1362.29	0.000258498
1370.85	0.000264268
1379.4	0.000143307
1387.96	0.000180981
1396.52	0.000204779
1405.08	0.000122697
1413.64	3.12804e-05
1422.19	2.08539e-05
1430.75	2.33854e-05
1439.31	3.93569e-05
1447.87	5.87716e-05
1456.42	6.80462e-05
1464.98	7.67342e-05
1473.54	7.01922e-05
1482.1	6.1381e-05
1490.65	5.86778e-05
1499.21	4.06897e-05
1507.77	1.23455e-05
1516.33	5.22306e-06
1524.88	3.431e-06
1533.44	2.93869e-06
1542	4.58968e-06
1550.56	2.49055e-06
1559.11	2.8286e-06
1567.67	2.58534e-06
1576.23	7.72646e-06
1584.79	3.14339e-06
1593.35	3.04324e-06
1601.9	2.35075e-06
1610.46	1.69172e-06
1619.02	1.53524e-06
1627.58	1.90907e-06
1636.13	2.51351e-06
1644.69	2.84116e-06
1653.25	8.35106e-06
1661.81	2.66938e-06
1670.36	2.53463e-06
1678.92	2.75251e-06
1687.48	3.60795e-06
1696.04	8.48535e-06
1704.59	5.19675e-06
1713.15	3.09703e-06
1721.71	2.02079e-06
1730.27	2.19852e-06
1738.83	2.72732e-06
1747.38	3.48688e-06
1755.94	3.83534e-06
1764.5	3.06035e-06
1773.06	2.2983e-06
1781.61	1.96463e-06
1790.17	3.32065e-06
1798.73	6.26279e-06
1807.29	8.82098e-06
1815.84	8.27483e-06
1824.4	4.75814e-06
1832.96	3.25011e-06
1841.52	2.08031e-06
1850.07	2.01177e-06
1858.63	2.22959e-06
1867.19	2.04278e-06
1875.75	1.6769e-06
1884.3	1.62908e-06
1892.86	1.99699e-06
1901.42	3.05228e-06
1909.98	5.48394e-06
1918.54	8.97871e-06
1927.09	1.1575e-05
1935.65	9.3373e-06
1944.21	4.28264e-06
1952.77	2.88106e-06
1961.32	3.71724e-06
1969.88	4.09938e-06
1978.44	3.14019e-06
1987	1.63565e-06
1995.55	1.11688e-06
2004.11	9.35687e-07
2012.67	9.33317e-07
2021.23	1.14554e-06
2029.78	1.42874e-06
2038.34	2.11688e-06
2046.9	3.04975e-06
2055.46	3.34363e-06
2064.01	2.06677e-06
2072.57	1.06913e-06
2081.13	1.15281e-06
2089.69	1.60412e-06
2098.25	2.21947e-06
2106.8	2.64108e-06
2115.36	2.13898e-06
2123.92	1.63353e-06
2132.48	1.70451e-06
2141.03	1.89868e-06
2149.59	2.00654e-06
2158.15	2.45639e-06
2166.71	2.83044e-06
2175.26	3.10197e-06
2183.82	3.79978e-06
2192.38	5.02442e-06
2200.94	4.97016e-06
2209.49	3.56544e-06
2218.05	2.17372e-06
2226.61	1.98761e-06
2235.17	2.51294e-06
2243.72	2.51355e-06
2252.28	2.15038e-06
2260.84	2.41174e-06
2269.4	3.47921e-06
2277.96	3.84832e-06
2286.51	3.12306e-06
2295.07	2.12329e-06
2303.63	1.47374e-06
2312.19	1.63062e-06
2320.74	2.01405e-06
2329.3	2.4469e-06
2337.86	2.78063e-06
2346.42	2.4468e-06
2354.97	1.96592e-06
2363.53	1.51788e-06
2372.09	1.81953e-06
2380.65	2.07273e-06
2389.2	2.02887e-06
2397.76	1.73474e-06
2406.32	1.72151e-06
2414.88	1.68584e-06
2423.44	1.55847e-06
2431.99	1.87582e-06
2440.55	2.54663e-06
2449.11	2.61024e-06
2457.67	2.20694e-06
2466.22	1.71395e-06
2474.78	1.51035e-06
2483.34	1.2501e-06
2491.9	1.12621e-06
2500.45	9.10218e-07
2509.01	8.17375e-07
2517.57	8.40694e-07
2526.13	7.87824e-07
2534.68	7.81874e-07
2543.24	9.69906e-07
2551.8	1.28341e-06
2560.36	1.49321e-06
2568.91	1.85845e-06
2577.47	1.95229e-06
2586.03	2.31676e-06
2594.59	3.11864e-06
2603.15	4.74611e-06
2611.7	6.85227e-06
2620.26	9.06121e-06
2628.82	9.51407e-06
2637.38	7.41617e-06
2645.93	5.3383e-06
2654.49	4.79294e-06
2663.05	4.82747e-06
2671.61	4.62786e-06
2680.16	4.57931e-06
2688.72	4.62831e-06
2697.28	5.07997e-06
2705.84	7.21826e-06
2714.39	1.26947e-05
2722.95	1.75098e-05
2731.51	2.01883e-05
2740.07	1.93833e-05
2748.62	1.65324e-05
2757.18	1.40362e-05
2765.74	1.55379e-05
2774.3	1.82623e-05
2782.86	1.8048e-05
2791.41	1.61552e-05
2799.97	1.60721e-05
2808.53	2.00234e-05
2817.09	2.61226e-05
2825.64	3.26204e-05
2834.2	3.97791e-05
2842.76	5.11512e-05
2851.32	6.60204e-05
2859.87	9.19881e-05
2868.43	0.000155946
2876.99	0.000254121
2885.55	0.000331447
2894.1	0.000349899
2902.66	0.000330722
2911.22	0.000275893
2919.78	0.000224697
2928.34	0.000228092
2936.89	0.000295664
2945.45	0.000316799
2954.01	0.00025264
2962.57	0.000280317
2971.12	0.000676321
2979.68	0.00125048
2988.24	0.00114554
2996.8	0.000456021
3005.35	9.14021e-05
3013.91	3.32508e-05
3022.47	3.03382e-05
3031.03	2.56818e-05
3039.58	1.62674e-05
3048.14	9.21921e-06
3056.7	6.40548e-06
3065.26	6.26047e-06
3073.81	6.70852e-06
3082.37	7.51055e-06
3090.93	7.51668e-06
3099.49	6.22897e-06
3108.05	4.93283e-06
3116.6	4.12679e-06
3125.16	4.06785e-06
3133.72	4.06922e-06
3142.28	4.10731e-06
3150.83	4.5382e-06
3159.39	5.40477e-06
3167.95	6.9705e-06
3176.51	8.68945e-06
3185.06	9.23148e-06
3193.62	8.33745e-06
3202.18	7.42507e-06
3210.74	7.80645e-06
3219.29	8.47177e-06
3227.85	9.22503e-06
3236.41	8.8528e-06
3244.97	6.97255e-06
3253.52	4.42269e-06
3262.08	2.66348e-06
3270.64	1.91093e-06
3279.2	1.74985e-06
3287.76	1.54586e-06
3296.31	1.70478e-06
3304.87	2.30611e-06
3313.43	3.53095e-06
3321.99	3.74261e-06
3330.54	3.20391e-06
3339.1	2.28245e-06
3347.66	1.36593e-06
3356.22	7.96129e-07
3364.77	6.41923e-07
3373.33	7.7996e-07
3381.89	6.86634e-07
3390.45	7.10692e-07
3399	8.29126e-07
3407.56	9.99841e-07
3416.12	1.57848e-06
3424.68	2.54495e-06
3433.23	3.22279e-06
3441.79	2.51769e-06
3450.35	1.53171e-06
3458.91	8.71784e-07
3467.47	7.91516e-07
3476.02	9.09384e-07
3484.58	1.19411e-06
3493.14	9.84956e-07
3501.7	5.79138e-07
3510.25	2.21848e-07
3518.81	1.0012e-07
3527.37	6.77588e-08
3535.93	2.48564e-08
3544.48	5.11352e-08
3553.04	4.07815e-08
3561.6	5.08114e-08
3570.16	2.99641e-08
3578.71	-4.98783e-08
3587.27	1.19456e-07
3595.83	3.94919e-08
3604.39	-7.8549e-08
3612.95	8.081e-08
3621.5	1.77049e-07
3630.06	3.71667e-07
3638.62	2.0867e-07
3647.18	1.05095e-06
3655.73	3.99484e-07
3664.29	2.54937e-07
3672.85	3.14707e-07
3681.41	3.89966e-07
3689.96	6.96919e-07
3698.52	7.43917e-07
3707.08	1.22935e-06
3715.64	1.82903e-06
3724.19	1.69455e-06
3732.75	9.02843e-07
3741.31	1.09489e-06
3749.87	1.09037e-06
3758.42	4.78403e-07
3766.98	4.72395e-07
3775.54	5.9455e-07
3784.1	6.74383e-07
3792.66	8.91489e-07
3801.21	2.2789e-06
3809.77	9.65313e-07
3818.33	1.08994e-06
3826.89	1.58149e-06
3835.44	1.42832e-06
3844	1.38664e-06
3852.56	1.49829e-06
3861.12	1.25014e-06
3869.67	1.41221e-06
3878.23	1.60162e-06
3886.79	2.14238e-06
3895.35	2.40189e-06
3903.9	2.38408e-06
3912.46	1.73301e-06
3921.02	1.60468e-06
3929.58	1.80677e-06
3938.13	1.95131e-06
3946.69	2.32253e-06
3955.25	2.59168e-06
3963.81	2.68533e-06
3972.37	2.41077e-06
