Infrared Spectrum: tert-Butyl Ethyl Ether
Formula: ( C H3)3 C O C2 H5
CAS: 637-92-3
State: gas
Melting point: -94 C
Boiling point: 73.1 C
Class: IUPAC A
Instrument: IFS66V (Bruker)
Instrument parameters: KBr Beam splitter; MCT Detector; Multipass cell
Sampling: 1 L/min Flow
Resolution: 1.9290
Temperature: 23 C
Pressure: 101.3 kPa
Origin: NIST, Anayltical Chemistry Division, 301-975-3108
cm-1	(micromol/mol)-1m-1 (base 10)
574.687	-1.37862e-07
583.365	-1.65644e-07
592.043	-2.9311e-08
600.721	-1.09683e-07
609.4	1.62571e-07
618.078	1.25535e-07
626.756	1.36087e-07
635.434	1.55154e-07
644.112	1.45427e-08
652.79	6.79007e-08
661.469	-1.23982e-08
670.147	8.24162e-08
678.825	1.37564e-07
687.503	3.5544e-07
696.181	5.57203e-07
704.859	9.25201e-07
713.537	2.01759e-06
722.216	5.62053e-06
730.894	1.54889e-05
739.572	2.33862e-05
748.25	1.90867e-05
756.928	5.35355e-06
765.606	2.08032e-06
774.285	1.70546e-06
782.963	1.56327e-06
791.641	1.51032e-06
800.319	1.73226e-06
808.997	2.35702e-06
817.675	3.31861e-06
826.353	7.16017e-06
835.032	2.4218e-05
843.71	6.01506e-05
852.388	6.51587e-05
861.066	3.2696e-05
869.744	7.18536e-06
878.422	2.67974e-06
887.101	2.70935e-06
895.779	3.66249e-06
904.457	6.67021e-06
913.135	9.25187e-06
921.813	9.99889e-06
930.491	9.45632e-06
939.169	2.05966e-05
947.848	6.18674e-05
956.526	0.000115836
965.204	0.000102903
973.882	3.01817e-05
982.56	6.77345e-06
991.238	4.50922e-06
999.917	5.57588e-06
1008.59	1.11e-05
1017.27	2.49775e-05
1025.95	3.09945e-05
1034.63	2.41483e-05
1043.31	2.0696e-05
1051.99	3.86043e-05
1060.66	9.94607e-05
1069.34	0.000284057
1078.02	0.000517566
1086.7	0.000473332
1095.38	0.000175845
1104.05	0.000121774
1112.73	0.000279037
1121.41	0.00036732
1130.09	0.000245457
1138.77	7.06699e-05
1147.45	5.16981e-05
1156.12	6.31213e-05
1164.8	6.39111e-05
1173.48	5.97088e-05
1182.16	7.58227e-05
1190.84	0.000193912
1199.51	0.000475357
1208.19	0.000650374
1216.87	0.000404169
1225.55	0.000152433
1234.23	0.000154027
1242.9	0.000168144
1251.58	0.000153404
1260.26	0.000125188
1268.94	7.78854e-05
1277.62	3.87849e-05
1286.3	2.298e-05
1294.97	1.70603e-05
1303.65	1.32975e-05
1312.33	9.84485e-06
1321.01	8.88216e-06
1329.69	7.86104e-06
1338.36	9.22166e-06
1347.04	3.32434e-05
1355.72	0.000146461
1364.4	0.00029907
1373.08	0.000234062
1381.76	0.000130651
1390.43	0.000195882
1399.11	0.000192752
1407.79	7.25465e-05
1416.47	2.57658e-05
1425.15	2.0438e-05
1433.82	2.83286e-05
1442.5	4.59839e-05
1451.18	6.13479e-05
1459.86	7.22683e-05
1468.54	7.70161e-05
1477.22	6.25353e-05
1485.89	6.17622e-05
1494.57	4.87068e-05
1503.25	2.44574e-05
1511.93	7.5141e-06
1520.61	4.57616e-06
1529.28	2.91665e-06
1537.96	3.05297e-06
1546.64	2.51479e-06
1555.32	2.71142e-06
1564	2.64348e-06
1572.67	2.7097e-06
1581.35	3.02155e-06
1590.03	3.12313e-06
1598.71	2.6758e-06
1607.39	1.85998e-06
1616.07	2.27676e-06
1624.74	1.74568e-06
1633.42	2.07588e-06
1642.1	2.65644e-06
1650.78	3.1056e-06
1659.46	2.75904e-06
1668.13	2.718e-06
1676.81	2.77326e-06
1685.49	4.29256e-06
1694.17	4.59498e-06
1702.85	4.7209e-06
1711.53	3.4628e-06
1720.2	2.14193e-06
1728.88	2.03369e-06
1737.56	2.64231e-06
1746.24	3.39844e-06
1754.92	3.89512e-06
1763.59	3.21475e-06
1772.27	2.69114e-06
1780.95	2.05707e-06
1789.63	3.18235e-06
1798.31	6.09972e-06
1806.98	8.75939e-06
1815.66	8.28018e-06
1824.34	4.84823e-06
1833.02	3.28381e-06
1841.7	2.06166e-06
1850.38	2.02959e-06
1859.05	2.17572e-06
1867.73	2.12549e-06
1876.41	1.65025e-06
1885.09	1.59016e-06
1893.77	2.07191e-06
1902.44	3.23005e-06
1911.12	5.7797e-06
1919.8	9.55172e-06
1928.48	1.14558e-05
1937.16	8.5501e-06
1945.84	3.57294e-06
1954.51	2.99108e-06
1963.19	3.93322e-06
1971.87	3.99756e-06
1980.55	2.68308e-06
1989.23	1.40968e-06
1997.9	1.0245e-06
2006.58	9.49924e-07
2015.26	1.00315e-06
2023.94	1.14697e-06
2032.62	1.55859e-06
2041.3	2.45511e-06
2049.97	3.30575e-06
2058.65	2.99357e-06
2067.33	1.55471e-06
2076.01	1.05183e-06
2084.69	1.2732e-06
2093.36	1.80294e-06
2102.04	2.45054e-06
2110.72	2.47971e-06
2119.4	1.80173e-06
2128.08	1.63377e-06
2136.75	1.83114e-06
2145.43	1.96676e-06
2154.11	2.21355e-06
2162.79	2.66966e-06
2171.47	3.00255e-06
2180.15	3.42723e-06
2188.82	4.48635e-06
2197.5	5.15255e-06
2206.18	4.2128e-06
2214.86	2.55189e-06
2223.54	1.99817e-06
2232.21	2.28608e-06
2240.89	2.56503e-06
2249.57	2.1917e-06
2258.25	2.17562e-06
2266.93	3.15248e-06
2275.61	3.8297e-06
2284.28	3.37892e-06
2292.96	2.41149e-06
2301.64	1.58084e-06
2310.32	1.54343e-06
2319	1.90411e-06
2327.67	2.40159e-06
2336.35	2.70873e-06
2345.03	2.49204e-06
2353.71	2.05441e-06
2362.39	1.58331e-06
2371.06	1.76198e-06
2379.74	2.0869e-06
2388.42	2.08938e-06
2397.1	1.8089e-06
2405.78	1.67666e-06
2414.46	1.62317e-06
2423.13	1.54412e-06
2431.81	1.91245e-06
2440.49	2.53317e-06
2449.17	2.6631e-06
2457.85	2.15857e-06
2466.52	1.737e-06
2475.2	1.5317e-06
2483.88	1.26761e-06
2492.56	1.10313e-06
2501.24	8.77578e-07
2509.92	7.54218e-07
2518.59	8.37931e-07
2527.27	8.29229e-07
2535.95	8.23565e-07
2544.63	9.89732e-07
2553.31	1.29892e-06
2561.98	1.60088e-06
2570.66	1.84008e-06
2579.34	2.02179e-06
2588.02	2.3831e-06
2596.7	3.41811e-06
2605.38	5.19312e-06
2614.05	7.54636e-06
2622.73	9.38266e-06
2631.41	8.94436e-06
2640.09	6.61137e-06
2648.77	5.01747e-06
2657.44	4.74144e-06
2666.12	4.77573e-06
2674.8	4.62685e-06
2683.48	4.56675e-06
2692.16	4.72603e-06
2700.83	5.62107e-06
2709.51	9.27843e-06
2718.19	1.53873e-05
2726.87	1.9095e-05
2735.55	1.99649e-05
2744.23	1.84457e-05
2752.9	1.49537e-05
2761.58	1.42291e-05
2770.26	1.7079e-05
2778.94	1.82524e-05
2787.62	1.70073e-05
2796.29	1.58116e-05
2804.97	1.80555e-05
2813.65	2.34215e-05
2822.33	3.01614e-05
2831.01	3.65335e-05
2839.69	4.68481e-05
2848.36	6.02375e-05
2857.04	8.11401e-05
2865.72	0.000130051
2874.4	0.000224627
2883.08	0.000316524
2891.75	0.000345584
2900.43	0.000342976
2909.11	0.000289139
2917.79	0.00023473
2926.47	0.000217229
2935.14	0.000286328
2943.82	0.00031739
2952.5	0.000265123
2961.18	0.000258902
2969.86	0.000602827
2978.54	0.00116525
2987.21	0.00122083
2995.89	0.000527139
3004.57	0.000107771
3013.25	3.44224e-05
3021.93	3.04243e-05
3030.6	2.62125e-05
3039.28	1.66544e-05
3047.96	9.26136e-06
3056.64	6.47159e-06
3065.32	6.17899e-06
3074	6.78274e-06
3082.67	7.50737e-06
3091.35	7.40073e-06
3100.03	6.18554e-06
3108.71	4.87748e-06
3117.39	4.21724e-06
3126.06	4.04696e-06
3134.74	3.99786e-06
3143.42	4.10445e-06
3152.1	4.57761e-06
3160.78	5.66598e-06
3169.46	7.37607e-06
3178.13	9.02427e-06
3186.81	9.19021e-06
3195.49	8.1077e-06
3204.17	7.47939e-06
3212.85	7.96785e-06
3221.52	8.802e-06
3230.2	9.20811e-06
3238.88	8.43505e-06
3247.56	6.24743e-06
3256.24	3.67671e-06
3264.91	2.26674e-06
3273.59	1.79825e-06
3282.27	1.6164e-06
3290.95	1.56197e-06
3299.63	1.85743e-06
3308.31	2.84667e-06
3316.98	3.74631e-06
3325.66	3.66235e-06
3334.34	2.78332e-06
3343.02	1.74347e-06
3351.7	1.03661e-06
3360.37	7.31958e-07
3369.05	6.00815e-07
3377.73	6.58003e-07
3386.41	7.29966e-07
3395.09	8.28906e-07
3403.77	9.57062e-07
3412.44	1.27981e-06
3421.12	2.12542e-06
3429.8	3.0399e-06
3438.48	2.944e-06
3447.16	1.96499e-06
3455.83	1.06697e-06
3464.51	8.03289e-07
3473.19	9.77836e-07
3481.87	1.22913e-06
3490.55	1.17301e-06
3499.22	6.88344e-07
3507.9	2.84598e-07
3516.58	6.206e-08
3525.26	5.88622e-08
3533.94	6.13542e-09
3542.62	3.08808e-08
3551.29	8.45662e-08
3559.97	8.01224e-08
3568.65	1.80197e-07
3577.33	2.52293e-09
3586.01	1.97954e-07
3594.68	9.42996e-08
3603.36	-4.32917e-09
3612.04	2.00279e-07
3620.72	2.38323e-07
3629.4	9.49815e-07
3638.08	2.46401e-07
3646.75	6.15374e-07
3655.43	5.47004e-07
3664.11	2.55057e-07
3672.79	3.44257e-07
3681.47	4.22667e-07
3690.14	7.89894e-07
3698.82	7.863e-07
3707.5	1.37009e-06
3716.18	1.76349e-06
3724.86	1.61586e-06
3733.54	1.1228e-06
3742.21	6.94057e-07
3750.89	9.76459e-07
3759.57	7.10374e-07
3768.25	5.29832e-07
3776.93	5.79929e-07
3785.6	8.21064e-07
3794.28	9.88823e-07
3802.96	1.27185e-06
3811.64	1.07838e-06
3820.32	1.54501e-06
3828.99	1.25022e-06
3837.67	2.23548e-06
3846.35	1.18255e-06
3855.03	2.08566e-06
3863.71	1.37554e-06
3872.39	1.49771e-06
3881.06	2.06836e-06
3889.74	2.31947e-06
3898.42	2.5493e-06
3907.1	2.02522e-06
3915.78	1.67481e-06
3924.45	1.68154e-06
3933.13	1.90287e-06
3941.81	2.14555e-06
3950.49	2.44486e-06
3959.17	2.55761e-06
3967.85	2.41686e-06
