Infrared Spectrum: tert-Butyl Ethyl Ether
Formula: ( C H3)3 C O C2 H5
CAS: 637-92-3
State: gas
Melting point: -94 C
Boiling point: 73.1 C
Class: IUPAC A
Instrument: IFS66V (Bruker)
Instrument parameters: KBr Beam splitter; MCT Detector; Multipass cell
Sampling: 1 L/min Flow
Resolution: 0.9640
Temperature: 23 C
Pressure: 101.3 kPa
Origin: NIST, Anayltical Chemistry Division, 301-975-3108
cm-1	(micromol/mol)-1m-1 (base 10)
575.169	-1.18135e-07
583.847	-1.51885e-07
592.525	2.78486e-09
601.203	-1.48085e-07
609.882	1.8789e-07
618.56	1.3115e-07
627.238	1.38986e-07
635.916	1.61556e-07
644.594	-1.01317e-09
653.272	3.89662e-08
661.951	8.5583e-09
670.629	5.34344e-08
679.307	1.48867e-07
687.985	3.54787e-07
696.663	5.92531e-07
705.341	9.34124e-07
714.019	2.13343e-06
722.698	5.96505e-06
731.376	1.62434e-05
740.054	2.34163e-05
748.732	1.87571e-05
757.41	4.89819e-06
766.088	2.01139e-06
774.767	1.71392e-06
783.445	1.54755e-06
792.123	1.50123e-06
800.801	1.72904e-06
809.479	2.43655e-06
818.157	3.42222e-06
826.835	7.58836e-06
835.514	2.58332e-05
844.192	6.16163e-05
852.87	6.34747e-05
861.548	3.00932e-05
870.226	6.59537e-06
878.904	2.61443e-06
887.583	2.76824e-06
896.261	3.74845e-06
904.939	6.93909e-06
913.617	9.32583e-06
922.295	9.78277e-06
930.973	9.66889e-06
939.651	2.17924e-05
948.33	6.54052e-05
957.008	0.000116463
965.686	0.000102015
974.364	2.64833e-05
983.042	6.47782e-06
991.72	4.46573e-06
1000.4	5.74894e-06
1009.08	1.15815e-05
1017.75	2.5887e-05
1026.43	3.16872e-05
1035.11	2.34135e-05
1043.79	2.11414e-05
1052.47	4.02898e-05
1061.15	0.000105313
1069.82	0.000298521
1078.5	0.00052206
1087.18	0.000459072
1095.86	0.000158091
1104.54	0.000127408
1113.21	0.000289318
1121.89	0.000366215
1130.57	0.000235208
1139.25	6.66384e-05
1147.93	5.21803e-05
1156.61	6.3641e-05
1165.28	6.35092e-05
1173.96	5.97507e-05
1182.64	7.81838e-05
1191.32	0.000206212
1200	0.000492802
1208.67	0.000652365
1217.35	0.000380111
1226.03	0.000149561
1234.71	0.000155091
1243.39	0.000167984
1252.07	0.000152539
1260.74	0.000123057
1269.42	7.52622e-05
1278.1	3.73339e-05
1286.78	2.25058e-05
1295.46	1.68436e-05
1304.13	1.30181e-05
1312.81	9.75154e-06
1321.49	8.83787e-06
1330.17	7.79118e-06
1338.85	9.54552e-06
1347.52	3.64559e-05
1356.2	0.000154438
1364.88	0.000309551
1373.56	0.0002253
1382.24	0.000130183
1390.92	0.000196298
1399.59	0.00019439
1408.27	6.56403e-05
1416.95	2.51186e-05
1425.63	2.04059e-05
1434.31	2.92289e-05
1442.98	4.70047e-05
1451.66	6.15801e-05
1460.34	7.27268e-05
1469.02	7.71327e-05
1477.7	6.18509e-05
1486.38	6.12599e-05
1495.05	4.75707e-05
1503.73	2.2645e-05
1512.41	7.26407e-06
1521.09	4.92751e-06
1529.77	2.81346e-06
1538.44	3.44806e-06
1547.12	2.45492e-06
1555.8	2.50222e-06
1564.48	2.72896e-06
1573.16	2.73524e-06
1581.83	3.04057e-06
1590.51	3.11126e-06
1599.19	2.63163e-06
1607.87	1.82803e-06
1616.55	2.96768e-06
1625.23	1.65692e-06
1633.9	2.12944e-06
1642.58	2.68669e-06
1651.26	3.14404e-06
1659.94	2.73825e-06
1668.62	2.85732e-06
1677.29	2.69591e-06
1685.97	3.55402e-06
1694.65	4.69915e-06
1703.33	4.6892e-06
1712.01	3.35466e-06
1720.69	2.0804e-06
1729.36	2.08812e-06
1738.04	2.66444e-06
1746.72	3.42271e-06
1755.4	3.87093e-06
1764.08	3.12395e-06
1772.75	2.96591e-06
1781.43	2.03858e-06
1790.11	3.31524e-06
1798.79	6.31719e-06
1807.47	8.83859e-06
1816.15	8.21381e-06
1824.82	4.81436e-06
1833.5	3.2338e-06
1842.18	2.04178e-06
1850.86	2.0327e-06
1859.54	2.17455e-06
1868.21	2.12887e-06
1876.89	1.62415e-06
1885.57	1.58875e-06
1894.25	2.11831e-06
1902.93	3.33024e-06
1911.6	5.95297e-06
1920.28	9.76165e-06
1928.96	1.14095e-05
1937.64	8.31493e-06
1946.32	3.39584e-06
1955	3.03152e-06
1963.67	3.97448e-06
1972.35	3.95705e-06
1981.03	2.57352e-06
1989.71	1.37281e-06
1998.39	1.02063e-06
2007.06	9.54948e-07
2015.74	1.01211e-06
2024.42	1.16319e-06
2033.1	1.59524e-06
2041.78	2.50963e-06
2050.46	3.32185e-06
2059.13	2.9222e-06
2067.81	1.48871e-06
2076.49	1.05054e-06
2085.17	1.28721e-06
2093.85	1.84492e-06
2102.52	2.48483e-06
2111.2	2.43828e-06
2119.88	1.76815e-06
2128.56	1.64755e-06
2137.24	1.84756e-06
2145.91	1.96786e-06
2154.59	2.2462e-06
2163.27	2.69102e-06
2171.95	3.02211e-06
2180.63	3.46624e-06
2189.31	4.5671e-06
2197.98	5.15448e-06
2206.66	4.12447e-06
2215.34	2.49271e-06
2224.02	2.00977e-06
2232.7	2.31845e-06
2241.37	2.56056e-06
2250.05	2.17558e-06
2258.73	2.20841e-06
2267.41	3.19372e-06
2276.09	3.82259e-06
2284.77	3.33885e-06
2293.44	2.36296e-06
2302.12	1.55353e-06
2310.8	1.56164e-06
2319.48	1.93911e-06
2328.16	2.4321e-06
2336.83	2.70107e-06
2345.51	2.46518e-06
2354.19	2.0393e-06
2362.87	1.5925e-06
2371.55	1.80088e-06
2380.23	2.08866e-06
2388.9	2.08194e-06
2397.58	1.78846e-06
2406.26	1.68556e-06
2414.94	1.63e-06
2423.62	1.54185e-06
2432.29	1.95631e-06
2440.97	2.55696e-06
2449.65	2.63036e-06
2458.33	2.13636e-06
2467.01	1.72126e-06
2475.68	1.52821e-06
2484.36	1.26264e-06
2493.04	1.1002e-06
2501.72	8.71681e-07
2510.4	7.62698e-07
2519.08	8.36924e-07
2527.75	8.41913e-07
2536.43	8.33482e-07
2545.11	1.01209e-06
2553.79	1.32749e-06
2562.47	1.62053e-06
2571.14	1.85158e-06
2579.82	2.01568e-06
2588.5	2.41071e-06
2597.18	3.50502e-06
2605.86	5.32169e-06
2614.54	7.66454e-06
2623.21	9.45439e-06
2631.89	8.83309e-06
2640.57	6.47352e-06
2649.25	4.97376e-06
2657.93	4.76005e-06
2666.6	4.78032e-06
2675.28	4.61395e-06
2683.96	4.57095e-06
2692.64	4.7577e-06
2701.32	5.72622e-06
2709.99	9.57996e-06
2718.67	1.57403e-05
2727.35	1.92371e-05
2736.03	1.98957e-05
2744.71	1.83233e-05
2753.39	1.47937e-05
2762.06	1.43515e-05
2770.74	1.72454e-05
2779.42	1.81872e-05
2788.1	1.68787e-05
2796.78	1.58021e-05
2805.45	1.83248e-05
2814.13	2.38199e-05
2822.81	3.05227e-05
2831.49	3.69634e-05
2840.17	4.75555e-05
2848.85	6.11462e-05
2857.52	8.27976e-05
2866.2	0.000134165
2874.88	0.000230062
2883.56	0.000319507
2892.24	0.000346363
2900.91	0.000340524
2909.59	0.000285673
2918.27	0.000232025
2926.95	0.000219183
2935.63	0.000289114
2944.31	0.000316891
2952.98	0.000260883
2961.66	0.000265149
2970.34	0.000630801
2979.02	0.00119765
2987.7	0.0011879
2996.37	0.000488477
3005.05	9.74616e-05
3013.73	3.36071e-05
3022.41	3.03658e-05
3031.09	2.57912e-05
3039.76	1.61291e-05
3048.44	8.97642e-06
3057.12	6.39589e-06
3065.8	6.18454e-06
3074.48	6.83267e-06
3083.16	7.51261e-06
3091.83	7.35165e-06
3100.51	6.12787e-06
3109.19	4.85235e-06
3117.87	4.20436e-06
3126.55	4.04242e-06
3135.22	3.97091e-06
3143.9	4.11206e-06
3152.58	4.62892e-06
3161.26	5.75818e-06
3169.94	7.47281e-06
3178.62	9.11667e-06
3187.29	9.16628e-06
3195.97	8.04071e-06
3204.65	7.46413e-06
3213.33	8.02352e-06
3222.01	8.84083e-06
3230.68	9.22138e-06
3239.36	8.36473e-06
3248.04	6.1014e-06
3256.72	3.57198e-06
3265.4	2.22336e-06
3274.07	1.76562e-06
3282.75	1.62621e-06
3291.43	1.56798e-06
3300.11	1.90396e-06
3308.79	2.89897e-06
3317.47	3.77706e-06
3326.14	3.63562e-06
3334.82	2.73946e-06
3343.5	1.70022e-06
3352.18	1.00356e-06
3360.86	7.19427e-07
3369.53	6.08198e-07
3378.21	6.49358e-07
3386.89	7.53474e-07
3395.57	8.46322e-07
3404.25	9.53275e-07
3412.93	1.32484e-06
3421.6	2.18007e-06
3430.28	3.10504e-06
3438.96	2.89462e-06
3447.64	1.91491e-06
3456.32	1.04103e-06
3464.99	7.99875e-07
3473.67	9.94253e-07
3482.35	1.24853e-06
3491.03	1.13929e-06
3499.71	6.75827e-07
3508.39	2.86691e-07
3517.06	5.99372e-08
3525.74	5.48332e-08
3534.42	1.83171e-09
3543.1	1.75331e-08
3551.78	1.2386e-07
3560.45	7.07019e-08
3569.13	6.55779e-08
3577.81	-8.2036e-10
3586.49	3.42105e-07
3595.17	1.45518e-07
3603.84	-9.63696e-09
3612.52	3.31957e-07
3621.2	1.4982e-07
3629.88	9.397e-07
3638.56	2.5419e-07
3647.24	7.6326e-07
3655.91	7.93867e-07
3664.59	2.5312e-07
3673.27	3.44764e-07
3681.95	4.35517e-07
3690.63	8.11842e-07
3699.3	8.05492e-07
3707.98	1.39802e-06
3716.66	1.76121e-06
3725.34	1.58421e-06
3734.02	1.11135e-06
3742.7	6.56681e-07
3751.37	9.74477e-07
3760.05	7.81023e-07
3768.73	5.20401e-07
3777.41	5.97331e-07
3786.09	8.05814e-07
3794.76	1.02185e-06
3803.44	1.18047e-06
3812.12	1.05878e-06
3820.8	1.79277e-06
3829.48	1.25166e-06
3838.16	2.54738e-06
3846.83	1.15942e-06
3855.51	1.26931e-06
3864.19	1.44968e-06
3872.87	1.50885e-06
3881.55	1.94955e-06
3890.22	2.34184e-06
3898.9	2.6954e-06
3907.58	1.955e-06
3916.26	1.68938e-06
3924.94	1.71837e-06
3933.61	1.86935e-06
3942.29	2.20731e-06
3950.97	2.42676e-06
3959.65	2.56912e-06
3968.33	2.43427e-06
