Infrared Spectrum: tert-Butyl Ethyl Ether
Formula: ( C H3)3 C O C2 H5
CAS: 637-92-3
State: gas
Melting point: -94 C
Boiling point: 73.1 C
Class: IUPAC A
Instrument: IFS66V (Bruker)
Instrument parameters: KBr Beam splitter; MCT Detector; Multipass cell
Sampling: 1 L/min Flow
Resolution: 1.9290
Temperature: 23 C
Pressure: 101.3 kPa
Origin: NIST, Anayltical Chemistry Division, 301-975-3108
cm-1	(micromol/mol)-1m-1 (base 10)
574.687	-1.31412e-07
583.365	-1.82496e-07
592.043	-5.33998e-08
600.721	-9.35156e-08
609.4	1.59374e-07
618.078	1.16391e-07
626.756	1.34606e-07
635.434	1.48447e-07
644.112	2.48163e-08
652.79	5.79891e-08
661.469	-1.78078e-09
670.147	8.71546e-08
678.825	1.27461e-07
687.503	3.49653e-07
696.181	5.60242e-07
704.859	9.20879e-07
713.537	2.01902e-06
722.216	5.62954e-06
730.894	1.54877e-05
739.572	2.34112e-05
748.25	1.89916e-05
756.928	5.38215e-06
765.606	2.07802e-06
774.285	1.71435e-06
782.963	1.56336e-06
791.641	1.51423e-06
800.319	1.74025e-06
808.997	2.35714e-06
817.675	3.32581e-06
826.353	7.18438e-06
835.032	2.4279e-05
843.71	6.00429e-05
852.388	6.55884e-05
861.066	3.27805e-05
869.744	7.22115e-06
878.422	2.69071e-06
887.101	2.72159e-06
895.779	3.65514e-06
904.457	6.67891e-06
913.135	9.26598e-06
921.813	9.95769e-06
930.491	9.47579e-06
939.169	2.06521e-05
947.848	6.19567e-05
956.526	0.000115726
965.204	0.000103083
973.882	3.04636e-05
982.56	6.79722e-06
991.238	4.51793e-06
999.917	5.58115e-06
1008.59	1.11178e-05
1017.27	2.49522e-05
1025.95	3.07576e-05
1034.63	2.41386e-05
1043.31	2.0742e-05
1051.99	3.86723e-05
1060.66	9.9709e-05
1069.34	0.000284269
1078.02	0.000516881
1086.7	0.000474165
1095.38	0.000176971
1104.05	0.000122102
1112.73	0.000279
1121.41	0.000367093
1130.09	0.000244859
1138.77	7.10624e-05
1147.45	5.17378e-05
1156.12	6.31126e-05
1164.8	6.3913e-05
1173.48	5.97406e-05
1182.16	7.59965e-05
1190.84	0.000194365
1199.51	0.000475385
1208.19	0.000649509
1216.87	0.000403966
1225.55	0.000152872
1234.23	0.000154025
1242.9	0.000168049
1251.58	0.000153368
1260.26	0.000125165
1268.94	7.78818e-05
1277.62	3.88381e-05
1286.3	2.29999e-05
1294.97	1.70631e-05
1303.65	1.32906e-05
1312.33	9.8522e-06
1321.01	8.87585e-06
1329.69	7.86215e-06
1338.36	9.24968e-06
1347.04	3.34607e-05
1355.72	0.000146416
1364.4	0.000299114
1373.08	0.000233872
1381.76	0.000131293
1390.43	0.000195522
1399.11	0.000192837
1407.79	7.30341e-05
1416.47	2.5819e-05
1425.15	2.04636e-05
1433.82	2.83488e-05
1442.5	4.59932e-05
1451.18	6.13543e-05
1459.86	7.22452e-05
1468.54	7.68412e-05
1477.22	6.25849e-05
1485.89	6.16908e-05
1494.57	4.90566e-05
1503.25	2.45326e-05
1511.93	7.50925e-06
1520.61	4.51896e-06
1529.28	2.9189e-06
1537.96	3.12044e-06
1546.64	2.54482e-06
1555.32	2.75538e-06
1564	2.64491e-06
1572.67	2.72161e-06
1581.35	3.02117e-06
1590.03	3.12364e-06
1598.71	2.67163e-06
1607.39	1.86109e-06
1616.07	2.21382e-06
1624.74	1.77158e-06
1633.42	2.12537e-06
1642.1	2.64894e-06
1650.78	3.21521e-06
1659.46	2.75619e-06
1668.13	2.75648e-06
1676.81	2.83094e-06
1685.49	4.23726e-06
1694.17	4.70569e-06
1702.85	4.77346e-06
1711.53	3.47322e-06
1720.2	2.17449e-06
1728.88	2.04402e-06
1737.56	2.64384e-06
1746.24	3.43274e-06
1754.92	3.91196e-06
1763.59	3.24268e-06
1772.27	2.62012e-06
1780.95	2.03954e-06
1789.63	3.2007e-06
1798.31	6.11394e-06
1806.98	8.75455e-06
1815.66	8.27222e-06
1824.34	4.85772e-06
1833.02	3.28409e-06
1841.7	2.06572e-06
1850.38	2.02641e-06
1859.05	2.17523e-06
1867.73	2.13354e-06
1876.41	1.64902e-06
1885.09	1.58746e-06
1893.77	2.0741e-06
1902.44	3.23534e-06
1911.12	5.78362e-06
1919.8	9.5616e-06
1928.48	1.14468e-05
1937.16	8.55769e-06
1945.84	3.58682e-06
1954.51	2.99222e-06
1963.19	3.93131e-06
1971.87	3.9923e-06
1980.55	2.68439e-06
1989.23	1.41083e-06
1997.9	1.02659e-06
2006.58	9.51881e-07
2015.26	1.00322e-06
2023.94	1.14784e-06
2032.62	1.55921e-06
2041.3	2.45388e-06
2049.97	3.30168e-06
2058.65	2.98855e-06
2067.33	1.55686e-06
2076.01	1.05271e-06
2084.69	1.27662e-06
2093.36	1.80758e-06
2102.04	2.44775e-06
2110.72	2.4778e-06
2119.4	1.80163e-06
2128.08	1.6343e-06
2136.75	1.82942e-06
2145.43	1.96833e-06
2154.11	2.21203e-06
2162.79	2.66669e-06
2171.47	2.99961e-06
2180.15	3.42965e-06
2188.82	4.48697e-06
2197.5	5.15172e-06
2206.18	4.20969e-06
2214.86	2.55265e-06
2223.54	1.99907e-06
2232.21	2.28852e-06
2240.89	2.56253e-06
2249.57	2.19541e-06
2258.25	2.17887e-06
2266.93	3.1518e-06
2275.61	3.82639e-06
2284.28	3.38101e-06
2292.96	2.40827e-06
2301.64	1.58431e-06
2310.32	1.54499e-06
2319	1.90586e-06
2327.67	2.39942e-06
2336.35	2.71027e-06
2345.03	2.4926e-06
2353.71	2.0515e-06
2362.39	1.5862e-06
2371.06	1.76251e-06
2379.74	2.08353e-06
2388.42	2.08797e-06
2397.1	1.80512e-06
2405.78	1.675e-06
2414.46	1.61965e-06
2423.13	1.54311e-06
2431.81	1.91266e-06
2440.49	2.53233e-06
2449.17	2.65717e-06
2457.85	2.15851e-06
2466.52	1.737e-06
2475.2	1.53371e-06
2483.88	1.26728e-06
2492.56	1.10251e-06
2501.24	8.74356e-07
2509.92	7.54518e-07
2518.59	8.35794e-07
2527.27	8.3001e-07
2535.95	8.22395e-07
2544.63	9.92523e-07
2553.31	1.29922e-06
2561.98	1.60114e-06
2570.66	1.83942e-06
2579.34	2.02289e-06
2588.02	2.3869e-06
2596.7	3.423e-06
2605.38	5.18974e-06
2614.05	7.54549e-06
2622.73	9.38291e-06
2631.41	8.9463e-06
2640.09	6.60916e-06
2648.77	5.01553e-06
2657.44	4.74322e-06
2666.12	4.77672e-06
2674.8	4.6247e-06
2683.48	4.5719e-06
2692.16	4.72731e-06
2700.83	5.62766e-06
2709.51	9.28225e-06
2718.19	1.53893e-05
2726.87	1.90899e-05
2735.55	1.99659e-05
2744.23	1.84415e-05
2752.9	1.49635e-05
2761.58	1.4239e-05
2770.26	1.70832e-05
2778.94	1.82578e-05
2787.62	1.70081e-05
2796.29	1.58151e-05
2804.97	1.80598e-05
2813.65	2.34186e-05
2822.33	3.01601e-05
2831.01	3.65384e-05
2839.69	4.68438e-05
2848.36	6.02494e-05
2857.04	8.11899e-05
2865.72	0.000130167
2874.4	0.00022458
2883.08	0.00031654
2891.75	0.000345612
2900.43	0.000342888
2909.11	0.000289275
2917.79	0.000234802
2926.47	0.000217517
2935.14	0.000286213
2943.82	0.000317467
2952.5	0.000265284
2961.18	0.000259684
2969.86	0.00060274
2978.54	0.0011696
2987.21	0.00121885
2995.89	0.000528087
3004.57	0.000108462
3013.25	3.45083e-05
3021.93	3.04193e-05
3030.6	2.61967e-05
3039.28	1.66637e-05
3047.96	9.26867e-06
3056.64	6.47322e-06
3065.32	6.17741e-06
3074	6.78298e-06
3082.67	7.49487e-06
3091.35	7.39488e-06
3100.03	6.18923e-06
3108.71	4.88295e-06
3117.39	4.21631e-06
3126.06	4.04915e-06
3134.74	3.99472e-06
3143.42	4.10447e-06
3152.1	4.58127e-06
3160.78	5.667e-06
3169.46	7.37352e-06
3178.13	9.01667e-06
3186.81	9.18648e-06
3195.49	8.10898e-06
3204.17	7.47469e-06
3212.85	7.97301e-06
3221.52	8.80465e-06
3230.2	9.20341e-06
3238.88	8.43114e-06
3247.56	6.23499e-06
3256.24	3.67736e-06
3264.91	2.26656e-06
3273.59	1.79902e-06
3282.27	1.61753e-06
3290.95	1.55881e-06
3299.63	1.85772e-06
3308.31	2.84216e-06
3316.98	3.74566e-06
3325.66	3.6615e-06
3334.34	2.78939e-06
3343.02	1.74699e-06
3351.7	1.03572e-06
3360.37	7.3276e-07
3369.05	6.06724e-07
3377.73	6.56886e-07
3386.41	7.27248e-07
3395.09	8.26883e-07
3403.77	9.51694e-07
3412.44	1.28052e-06
3421.12	2.12824e-06
3429.8	3.03209e-06
3438.48	2.94013e-06
3447.16	1.95978e-06
3455.83	1.07041e-06
3464.51	8.08973e-07
3473.19	9.77922e-07
3481.87	1.2256e-06
3490.55	1.16246e-06
3499.22	6.87052e-07
3507.9	2.86484e-07
3516.58	6.58689e-08
3525.26	6.27039e-08
3533.94	2.08455e-09
3542.62	2.58732e-08
3551.29	8.45971e-08
3559.97	6.97033e-08
3568.65	1.6445e-07
3577.33	1.12777e-09
3586.01	1.85536e-07
3594.68	8.91791e-08
3603.36	-7.79615e-09
3612.04	1.79471e-07
3620.72	2.59168e-07
3629.4	8.73529e-07
3638.08	2.43951e-07
3646.75	5.89042e-07
3655.43	5.43398e-07
3664.11	2.575e-07
3672.79	4.02688e-07
3681.47	4.32757e-07
3690.14	8.76419e-07
3698.82	7.87347e-07
3707.5	1.38433e-06
3716.18	1.75958e-06
3724.86	1.62232e-06
3733.54	1.21168e-06
3742.21	7.39086e-07
3750.89	1.15806e-06
3759.57	6.76757e-07
3768.25	5.60091e-07
3776.93	5.86003e-07
3785.6	8.1499e-07
3794.28	9.97441e-07
3802.96	1.34454e-06
3811.64	1.06519e-06
3820.32	1.52878e-06
3828.99	1.26397e-06
3837.67	2.07024e-06
3846.35	1.18087e-06
3855.03	2.07165e-06
3863.71	1.41698e-06
3872.39	1.53642e-06
3881.06	2.04864e-06
3889.74	2.34942e-06
3898.42	2.55503e-06
3907.1	2.02896e-06
3915.78	1.6866e-06
3924.45	1.6793e-06
3933.13	1.89809e-06
3941.81	2.14142e-06
3950.49	2.43415e-06
3959.17	2.554e-06
3967.85	2.41868e-06
