Infrared Spectrum: Ethyl butyl sulfide
Formula: C6 H14 S
CAS: 638-46-0
State: SOLUTION (10% CCl4 FOR 3800-1330, 10% CS2 FOR 1330-400)
Class: COBLENTZ III
Instrument: BECKMAN IR-9 (GRATING)
Instrument parameters: ORDER CHANGES: 670, 1200, 2000 CM^-^1
Sampling: TRANSMISSION
Path length: 0.011 CM, 0.012 CM
Resolution: 2
Origin: DOW CHEMICAL COMPANY
1/CM	TRANSMITTANCE
3812	0.8723
3803	0.8729
3794	0.8727
3785	0.8723
3776	0.8718
3767	0.8714
3758	0.8704
3749	0.8695
3740	0.869
3731	0.8697
3722	0.8697
3713	0.87
3704	0.871
3695	0.8707
3686	0.8704
3677	0.8709
3668	0.8716
3659	0.8722
3650	0.8729
3641	0.8735
3632	0.8751
3623	0.8759
3614	0.8767
3605	0.8775
3596	0.8781
3587	0.8787
3578	0.8789
3569	0.8775
3560	0.8769
3551	0.8771
3542	0.877
3533	0.8769
3524	0.8761
3515	0.876
3506	0.8758
3497	0.8753
3488	0.8746
3479	0.8739
3470	0.8732
3461	0.8723
3452	0.8716
3443	0.8709
3434	0.8702
3425	0.8689
3416	0.8697
3407	0.8702
3398	0.8699
3389	0.87
3380	0.8704
3371	0.8707
3362	0.8711
3353	0.8714
3344	0.8726
3335	0.8719
3326	0.8719
3317	0.8718
3308	0.8724
3299	0.8716
3290	0.872
3281	0.8722
3272	0.8717
3263	0.8702
3254	0.8671
3245	0.8626
3236	0.8581
3227	0.8532
3218	0.8491
3209	0.8459
3200	0.8431
3191	0.8431
3182	0.8427
3173	0.8434
3164	0.8446
3155	0.8452
3146	0.8461
3137	0.8462
3128	0.8451
3119	0.8433
3110	0.8412
3101	0.8391
3092	0.8385
3083	0.8312
3074	0.828
3065	0.8213
3056	0.8123
3047	0.8022
3038	0.7901
3029	0.7567
3020	0.7131
3011	0.6829
3002	0.5734
2993	0.3005
2984	0.0242
2975	0.0151
2966	0.0379
2957	0.0542
2948	0.0182
2939	0.0385
2930	0.0815
2921	0.1228
2912	0.2052
2903	0.3034
2894	0.3434
2885	0.1222
2876	0.1629
2867	0.2111
2858	0.3024
2849	0.4379
2840	0.5775
2831	0.67
2822	0.7177
2813	0.7631
2804	0.8087
2795	0.829
2786	0.8398
2777	0.8498
2768	0.8547
2759	0.8549
2750	0.8424
2741	0.8304
2732	0.8282
2723	0.842
2714	0.8515
2705	0.8587
2696	0.8577
2687	0.8594
2678	0.862
2669	0.8639
2660	0.8634
2651	0.8625
2642	0.8651
2633	0.8721
2624	0.8768
2615	0.8799
2606	0.8808
2597	0.8814
2588	0.8823
2579	0.8828
2570	0.8835
2561	0.8841
2552	0.8846
2543	0.8848
2534	0.885
2525	0.8852
2516	0.8853
2507	0.8855
2498	0.8859
2489	0.8862
2480	0.8875
2471	0.8882
2462	0.8892
2453	0.8891
2444	0.8864
2435	0.8832
2426	0.8807
2417	0.8786
2408	0.8795
2399	0.8804
2390	0.8809
2381	0.8809
2372	0.881
2363	0.8781
2354	0.8802
2345	0.8798
2336	0.8774
2327	0.8783
2318	0.8797
2309	0.8797
2300	0.8788
2291	0.8793
2282	0.8783
2273	0.8803
2264	0.8808
2255	0.8816
2246	0.8813
2237	0.8817
2228	0.8821
2219	0.8821
2210	0.8821
2201	0.8766
2192	0.8698
2183	0.871
2174	0.8744
2165	0.8775
2156	0.8813
2147	0.8847
2138	0.8881
2129	0.8898
2120	0.8912
2111	0.8918
2102	0.8922
2093	0.8922
2084	0.892
2075	0.8918
2066	0.8846
2057	0.8808
2048	0.8809
2039	0.8806
2030	0.8802
2021	0.8806
2012	0.8802
2003	0.8795
1994	0.8465
1985	0.8754
1976	0.8749
1967	0.8782
1958	0.8811
1949	0.8788
1940	0.8803
1931	0.8824
1922	0.8839
1913	0.8834
1904	0.884
1895	0.884
1886	0.8828
1877	0.8831
1868	0.8823
1859	0.8807
1850	0.8814
1841	0.8825
1832	0.8812
1823	0.8804
1814	0.8805
1805	0.8793
1796	0.878
1787	0.8777
1778	0.8775
1769	0.8765
1760	0.8759
1751	0.8759
1742	0.8751
1733	0.8744
1724	0.8747
1715	0.8744
1706	0.869
1697	0.8674
1688	0.8656
1679	0.8648
1670	0.8623
1661	0.8602
1652	0.8584
1643	0.8572
1634	0.8551
1625	0.8506
1616	0.8485
1607	0.8367
1598	0.8091
1589	0.768
1580	0.7139
1571	0.7032
1562	0.6676
1553	0.6109
1544	0.6203
1535	0.6823
1526	0.709
1517	0.736
1508	0.7491
1499	0.7601
1490	0.7606
1481	0.7403
1472	0.6217
1463	0.3185
1454	0.2613
1445	0.3805
1436	0.5113
1427	0.5857
1418	0.5931
1409	0.7674
1400	0.789
1391	0.7781
1382	0.6936
1373	0.4792
1364	0.7695
1355	0.7932
1346	0.8001
1337	0.7996
1328	0.8239
1319	0.8263
1310	0.8036
1301	0.7323
1292	0.7094
1283	0.713
1274	0.633
1265	0.434
1256	0.3697
1247	0.6999
1238	0.7715
1229	0.7736
1220	0.5173
1211	0.7573
1202	0.8525
1193	0.8614
1184	0.86
1175	0.888
1166	0.9013
1157	0.9097
1148	0.9129
1139	0.9135
1130	0.9127
1121	0.9066
1112	0.8955
1103	0.8379
1094	0.8407
1085	0.8496
1076	0.8452
1067	0.8645
1058	0.8508
1049	0.8146
1040	0.8401
1031	0.8549
1022	0.8641
1013	0.879
1004	0.8716
995	0.8594
986	0.8375
977	0.766
968	0.7002
959	0.8367
950	0.9022
941	0.9194
932	0.9161
923	0.8881
914	0.8234
905	0.8551
896	0.8754
887	0.8865
878	0.8371
869	0.8371
860	0.839
851	0.8505
842	0.8888
833	0.9266
824	0.9333
815	0.923
806	0.9075
797	0.8761
788	0.8199
779	0.7759
770	0.8562
761	0.845
752	0.7948
743	0.6924
734	0.792
725	0.8379
716	0.883
707	0.9221
698	0.9278
689	0.9222
680	0.9273
671	0.9043
662	0.8831
653	0.8493
644	0.8914
635	0.9105
626	0.926
617	0.9448
608	0.9576
599	0.9624
590	0.9656
581	0.9668
572	0.9675
563	0.9638
554	0.9599
545	0.9567
536	0.9536
527	0.9456
518	0.9362
509	0.9228
500	0.9101
491	0.8925
482	0.8743
473	0.8539
464	0.8286
455	0.7919
446	0.7467
437	0.6913
428	0.6797
419	0.9233
410	0.9189
