Infrared Spectrum: ETHANOL, 2-[[3-(METHYLAMINO)PROPYL]AMINO]-, S-ESTER WITH PHOSPHOROTHIOIC ACID, HYDRATE
Formula: C6 H17 N2 O3 P S  * H2 O
CAS: 63980-94-9
State: SOLID (1 mg / 650 mg KBr DISC)
Class: COBLENTZ III
Instrument: PERKIN-ELMER 221 (GRATING)
Instrument parameters: FILTER AT 980 CM^-^1. GRATING 4000-1428 CM^-^1, NaCl PRISM 1428-650 CM^-^1
Sampling: TRANSMISSION
Resolution: 2
Origin: SOUTHERN RESEARCH INSTITUTE
1/CM	TRANSMITTANCE
603.912	0.634
612.4	0.631
620.889	0.6211
629.377	0.6115
637.865	0.6058
646.353	0.6093
654.842	0.6017
663.33	0.6224
671.818	0.7043
680.307	0.758
688.795	0.7774
697.283	0.7934
705.771	0.8013
714.26	0.8063
722.748	0.808
731.236	0.804
739.724	0.7959
748.213	0.7567
756.701	0.7826
765.189	0.824
773.678	0.8171
782.166	0.813
790.654	0.8085
799.142	0.7993
807.631	0.734
816.119	0.802
824.607	0.7969
833.096	0.7816
841.584	0.7471
850.072	0.7364
858.56	0.771
867.049	0.7673
875.537	0.7468
884.025	0.7326
892.513	0.7096
901.002	0.689
909.49	0.6671
917.978	0.6395
926.467	0.566
934.955	0.4625
943.443	0.435
951.931	0.294
960.42	0.3795
968.908	0.3453
977.396	0.4224
985.885	0.6301
994.373	0.596
1002.86	0.4953
1011.35	0.5667
1019.84	0.5136
1028.33	0.4574
1036.81	0.3727
1045.3	0.2694
1053.79	0.198
1062.28	0.1355
1070.77	0.1322
1079.26	0.1506
1087.74	0.2081
1096.23	0.2511
1104.72	0.1721
1113.21	0.2054
1121.7	0.391
1130.19	0.4965
1138.67	0.551
1147.16	0.5595
1155.65	0.6016
1164.14	0.6631
1172.63	0.697
1181.11	0.6624
1189.6	0.6722
1198.09	0.7592
1206.58	0.776
1215.07	0.78
1223.56	0.7809
1232.04	0.7878
1240.53	0.792
1249.02	0.7718
1257.51	0.6864
1266	0.7285
1274.49	0.779
1282.97	0.784
1291.46	0.7708
1299.95	0.794
1308.44	0.796
1316.93	0.7938
1325.42	0.799
1333.9	0.7941
1342.39	0.796
1350.88	0.786
1359.37	0.764
1367.86	0.7255
1376.35	0.7589
1384.83	0.7796
1393.32	0.7687
1401.81	0.7313
1410.3	0.7234
1418.79	0.7199
1427.28	0.7311
1435.76	0.7485
1444.25	0.6976
1452.74	0.6793
1461.23	0.6083
1469.72	0.6286
1478.2	0.7087
1486.69	0.7309
1495.18	0.6995
1503.67	0.644
1512.16	0.6112
1520.65	0.5809
1529.13	0.5417
1537.62	0.6366
1546.11	0.7185
1554.6	0.751
1563.09	0.752
1571.58	0.7469
1580.06	0.7136
1588.55	0.6724
1597.04	0.5867
1605.53	0.5453
1614.02	0.6041
1622.51	0.6354
1630.99	0.6264
1639.48	0.5434
1647.97	0.5574
1656.46	0.6769
1664.95	0.6819
1673.44	0.7147
1681.92	0.7812
1690.41	0.792
1698.9	0.8067
1707.39	0.8116
1715.88	0.813
1724.36	0.8135
1732.85	0.814
1741.34	0.814
1749.83	0.814
1758.32	0.814
1766.81	0.814
1775.29	0.813
1783.78	0.812
1792.27	0.811
1800.76	0.811
1809.25	0.81
1817.74	0.8041
1826.22	0.8002
1834.71	0.798
1843.2	0.795
1851.69	0.789
1860.18	0.7848
1868.67	0.782
1877.15	0.7765
1885.64	0.7596
1894.13	0.7572
1902.62	0.7507
1911.11	0.7457
1919.6	0.7408
1928.08	0.7368
1936.57	0.735
1945.06	0.733
1953.55	0.73
1962.04	0.729
1970.52	0.727
1979.01	0.7242
1987.5	0.719
1995.99	0.7106
2004.48	0.6996
2012.97	0.6956
2021.45	0.6896
2029.94	0.685
2038.43	0.6736
2046.92	0.669
2055.41	0.665
2063.9	0.6596
2072.38	0.644
2080.87	0.639
2089.36	0.6333
2097.85	0.6266
2106.34	0.6126
2114.83	0.606
2123.31	0.5916
2131.8	0.5796
2140.29	0.5706
2148.78	0.5603
2157.27	0.5496
2165.76	0.5323
2174.24	0.526
2182.73	0.5106
2191.22	0.4973
2199.71	0.4803
2208.2	0.4713
2216.68	0.4673
2225.17	0.4613
2233.66	0.454
2242.15	0.4456
2250.64	0.4396
2259.13	0.4289
2267.61	0.415
2276.1	0.409
2284.59	0.4013
2293.08	0.3963
2301.57	0.3883
2310.06	0.383
2318.54	0.3599
2327.03	0.3553
2335.52	0.353
2344.01	0.3483
2352.5	0.347
2360.99	0.343
2369.47	0.343
2377.96	0.342
2386.45	0.341
2394.94	0.3386
2403.43	0.338
2411.92	0.341
2420.4	0.338
2428.89	0.335
2437.38	0.332
2445.87	0.3317
2454.36	0.3334
2462.84	0.3407
2471.33	0.347
2479.82	0.348
2488.31	0.352
2496.8	0.3557
2505.29	0.3617
2513.77	0.3677
2522.26	0.373
2530.75	0.377
2539.24	0.3817
2547.73	0.3877
2556.22	0.3957
2564.7	0.3976
2573.19	0.396
2581.68	0.395
2590.17	0.395
2598.66	0.393
2607.15	0.39
2615.63	0.393
2624.12	0.393
2632.61	0.393
2641.1	0.3886
2649.59	0.3816
2658.08	0.376
2666.56	0.375
2675.05	0.375
2683.54	0.373
2692.03	0.371
2700.52	0.3717
2709.01	0.3723
2717.49	0.3767
2725.98	0.381
2734.47	0.385
2742.96	0.391
2751.45	0.3991
2759.93	0.4221
2768.42	0.4317
2776.91	0.4404
2785.4	0.4521
2793.89	0.4641
2802.38	0.4831
2810.86	0.4897
2819.35	0.492
2827.84	0.4977
2836.33	0.5087
2844.82	0.5214
2853.31	0.5368
2861.79	0.546
2870.28	0.5557
2878.77	0.569
2887.26	0.5747
2895.75	0.5797
2904.24	0.5834
2912.72	0.5793
2921.21	0.5433
2929.7	0.5714
2938.19	0.573
2946.68	0.5642
2955.17	0.546
2963.65	0.5541
2972.14	0.5654
2980.63	0.579
2989.12	0.581
2997.61	0.58
3006.09	0.5626
3014.58	0.5667
3023.07	0.57
3031.56	0.5857
3040.05	0.5954
3048.54	0.6131
3057.02	0.6287
3065.51	0.6377
3074	0.6497
3082.49	0.6567
3090.98	0.6664
3099.47	0.6767
3107.95	0.685
3116.44	0.6904
3124.93	0.6987
3133.42	0.7067
3141.91	0.709
3150.4	0.71
3158.88	0.71
3167.37	0.71
3175.86	0.706
3184.35	0.701
3192.84	0.6973
3201.33	0.6923
3209.81	0.686
3218.3	0.6753
3226.79	0.6656
3235.28	0.6499
3243.77	0.6409
3252.25	0.6313
3260.74	0.6263
3269.23	0.6153
3277.72	0.61
3286.21	0.594
3294.7	0.591
3303.18	0.584
3311.67	0.5793
3320.16	0.5706
3328.65	0.5596
3337.14	0.5513
3345.63	0.5226
3354.11	0.4991
3362.6	0.4639
3371.09	0.4078
3379.58	0.3679
3388.07	0.3404
3396.56	0.3095
3405.04	0.292
3413.53	0.2887
3422.02	0.3088
3430.51	0.3235
3439	0.3414
3447.49	0.3655
3455.97	0.3811
3464.46	0.3957
3472.95	0.4168
3481.44	0.4411
3489.93	0.4611
3498.41	0.4938
3506.9	0.512
3515.39	0.5374
3523.88	0.5531
3532.37	0.5744
3540.86	0.5939
3549.34	0.608
3557.83	0.6264
3566.32	0.6557
3574.81	0.6694
3583.3	0.6851
3591.79	0.7124
3600.27	0.7287
3608.76	0.7454
3617.25	0.7697
3625.74	0.7827
3634.23	0.8
3642.72	0.8124
3651.2	0.818
3659.69	0.822
3668.18	0.8257
3676.67	0.828
3685.16	0.828
3693.65	0.837
3702.13	0.8427
3710.62	0.847
3719.11	0.85
3727.6	0.852
3736.09	0.852
3744.58	0.853
3753.06	0.854
3761.55	0.855
3770.04	0.855
3778.53	0.8557
3787.02	0.859
3795.5	0.859
3803.99	0.86
3812.48	0.8593
3820.97	0.86
