Infrared Spectrum: 1,3,4,5-TETRAHYDROXYCYCLOHEXANECARBOXYLIC ACID, Gamma-LACTONE
Formula: C7 H10 O5
CAS: 640-06-2
State: SOLID (OIL MULL)
Class: COBLENTZ III
Instrument: CARY 90 (GRATING)
Instrument parameters: GRATING CHANGES AT 3000, 2000, 1200 CM^-^1
Sampling: TRANSMISSION
Resolution: 4
Origin: WESTERN REGIONAL RES. USDA
1/CM	TRANSMITTANCE
468.441	0.649
477.723	0.643
487.005	0.636
496.288	0.629
505.57	0.621
514.852	0.612
524.134	0.598
533.416	0.513
542.698	0.508
551.981	0.593
561.263	0.638
570.545	0.639
579.827	0.676
589.109	0.685
598.391	0.693
607.674	0.684
616.956	0.612
626.238	0.685
635.52	0.694
644.802	0.697
654.084	0.678
663.367	0.651
672.649	0.574
681.931	0.523
691.213	0.541
700.495	0.542
709.777	0.578
719.06	0.596
728.342	0.619
737.624	0.498
746.906	0.571
756.188	0.713
765.47	0.706
774.753	0.69
784.035	0.777
793.317	0.786
802.599	0.793
811.881	0.798
821.163	0.781
830.446	0.801
839.728	0.806
849.01	0.81
858.292	0.814
867.574	0.815
876.856	0.796
886.139	0.571
895.421	0.744
904.703	0.778
913.985	0.758
923.267	0.6239
932.549	0.669
941.832	0.756
951.114	0.58
960.396	0.721
969.678	0.539
978.96	0.445
988.242	0.745
997.525	0.764
1006.81	0.7
1016.09	0.336
1025.37	0.337
1034.65	0.193
1043.94	0.518
1053.22	0.104
1062.5	0.439
1071.78	0.515
1081.06	0.128
1090.35	0.645
1099.63	0.761
1108.91	0.767
1118.19	0.714
1127.48	0.484
1136.76	0.133
1146.04	0.464
1155.32	0.694
1164.6	0.651
1173.89	0.503
1183.17	0.551
1192.45	0.632
1201.73	0.699
1211.01	0.597
1220.3	0.674
1229.58	0.74
1238.86	0.744
1248.14	0.694
1257.43	0.402
1266.71	0.357
1275.99	0.585
1285.27	0.662
1294.55	0.545
1303.84	0.438
1313.12	0.43
1322.4	0.276
1331.68	0.576
1340.96	0.431
1350.25	0.522
1359.53	0.533
1368.81	0.533
1378.09	0.539
1387.38	0.641
1396.66	0.741
1405.94	0.766
1415.22	0.757
1424.5	0.716
1433.79	0.628
1443.07	0.418
1452.35	0.424
1461.63	0.351
1470.92	0.588
1480.2	0.741
1489.48	0.794
1498.76	0.821
1508.04	0.834
1517.33	0.845
1526.61	0.852
1535.89	0.86
1545.17	0.846
1554.45	0.874
1563.74	0.88
1573.02	0.885
1582.3	0.878
1591.58	0.883
1600.87	0.887
1610.15	0.89
1619.43	0.893
1628.71	0.887
1637.99	0.887
1647.28	0.89
1656.56	0.888
1665.84	0.889
1675.12	0.883
1684.41	0.88
1693.69	0.886
1702.97	0.879
1712.25	0.875
1721.53	0.868
1730.82	0.86
1740.1	0.844
1749.38	0.765
1758.66	0.771
1767.94	0.734
1777.23	0.589
1786.51	0.158
1795.79	0.016
1805.07	0.344
1814.36	0.649
1823.64	0.74
1832.92	0.823
1842.2	0.877
1851.48	0.893
1860.77	0.904
1870.05	0.903
1879.33	0.906
1888.61	0.908
1897.9	0.911
1907.18	0.914
1916.46	0.915
1925.74	0.915
1935.02	0.918
1944.31	0.924
1953.59	0.925
1962.87	0.922
1972.15	0.923
1981.43	0.923
1990.72	0.919
2000	0.928
2009.28	0.931
2018.56	0.93
2027.85	0.926
2037.13	0.925
2046.41	0.929
2055.69	0.928
2064.97	0.923
2074.26	0.919
2083.54	0.916
2092.82	0.912
2102.1	0.91
2111.38	0.908
2120.67	0.904
2129.95	0.9
2139.23	0.895
2148.51	0.883
2157.8	0.887
2167.08	0.89
2176.36	0.893
2185.64	0.886
2194.92	0.881
2204.21	0.878
2213.49	0.873
2222.77	0.868
2232.05	0.867
2241.34	0.863
2250.62	0.86
2259.9	0.857
2269.18	0.853
2278.46	0.851
2287.75	0.85
2297.03	0.85
2306.31	0.846
2315.59	0.844
2324.87	0.842
2334.16	0.839
2343.44	0.836
2352.72	0.832
2362	0.828
2371.29	0.814
2380.57	0.8121
2389.85	0.817
2399.13	0.816
2408.41	0.81
2417.7	0.806
2426.98	0.803
2436.26	0.805
2445.54	0.805
2454.83	0.7999
2464.11	0.796
2473.39	0.793
2482.67	0.791
2491.95	0.787
2501.24	0.785
2510.52	0.779
2519.8	0.773
2529.08	0.771
2538.36	0.773
2547.65	0.774
2556.93	0.774
2566.21	0.773
2575.49	0.7689
2584.78	0.7609
2594.06	0.7539
2603.34	0.748
2612.62	0.741
2621.9	0.7471
2631.19	0.7591
2640.47	0.763
2649.75	0.7711
2659.03	0.7811
2668.32	0.7861
2677.6	0.792
2686.88	0.7881
2696.16	0.7929
2705.44	0.785
2714.73	0.7709
2724.01	0.7561
2733.29	0.763
2742.57	0.7639
2751.85	0.7589
2761.14	0.7509
2770.42	0.7439
2779.7	0.7318
2788.98	0.7219
2798.27	0.7189
2807.55	0.7078
2816.83	0.6867
2826.11	0.6452
2835.39	0.561
2844.68	0.3235
2853.96	0.1599
2863.24	0.1481
2872.52	0.1581
2881.81	0.2501
2891.09	0.219
2900.37	0.1518
2909.65	0.0987
2918.93	0.0517
2928.22	0.0205
2937.5	0.048
2946.78	0.0877
2956.06	0.0587
2965.34	0.1179
2974.63	0.2862
2983.91	0.418
2993.19	0.5743
3002.47	0.6094
3011.76	0.6344
3021.04	0.6553
3030.32	0.663
3039.6	0.6598
3048.88	0.6509
3058.17	0.6428
3067.45	0.6328
3076.73	0.6218
3086.01	0.6097
3095.29	0.5956
3104.58	0.5797
3113.86	0.5605
3123.14	0.5436
3132.42	0.5196
3141.71	0.4884
3150.99	0.4664
3160.27	0.4457
3169.55	0.4317
3178.83	0.4136
3188.12	0.3924
3197.4	0.3624
3206.68	0.3272
3215.96	0.2872
3225.25	0.246
3234.53	0.2032
3243.81	0.1646
3253.09	0.1727
3262.37	0.2079
3271.66	0.2437
3280.94	0.262
3290.22	0.2549
3299.5	0.2365
3308.78	0.2021
3318.07	0.1528
3327.35	0.127
3336.63	0.1321
3345.91	0.1288
3355.2	0.1251
3364.48	0.1654
3373.76	0.2285
3383.04	0.2946
3392.32	0.3503
3401.61	0.3899
3410.89	0.4267
3420.17	0.4618
3429.45	0.5021
3438.74	0.541
3448.02	0.4961
3457.3	0.3186
3466.58	0.2871
3475.86	0.4531
3485.15	0.6417
3494.43	0.6968
3503.71	0.7185
3512.99	0.7458
3522.27	0.7765
3531.56	0.8027
3540.84	0.8233
3550.12	0.8301
3559.4	0.8214
3568.69	0.8084
3577.97	0.8583
3587.25	0.8745
3596.53	0.8833
3605.81	0.8883
3615.1	0.897
3624.38	0.8959
3633.66	0.8889
3642.94	0.8817
3652.23	0.8739
3661.51	0.8679
3670.79	0.8671
3680.07	0.8701
3689.35	0.8741
3698.64	0.879
3707.92	0.882
3717.2	0.88
3726.48	0.877
3735.76	0.873
3745.05	0.8697
3754.33	0.8659
3763.61	0.863
3772.89	0.86
3782.18	0.857
3791.46	0.8539
3800.74	0.853
3810.02	0.854
3819.3	0.8573
3828.59	0.8653
3837.87	0.8753
3847.15	0.8821
3856.43	0.8872
3865.71	0.8942
3875	0.9012
3884.28	0.9072
3893.56	0.9123
3902.84	0.915
3912.13	0.915
3921.41	0.916
3930.69	0.917
3939.97	0.918
3949.25	0.9193
3958.54	0.922
3967.82	0.924
3977.1	0.926
3986.38	0.929
3995.67	0.93
