Infrared Spectrum: Ethanol
Formula: C2 H5 O H
CAS: 64-17-5
State: gas
Melting point: -117.3 C
Boiling point: 78.5 C
Class: IUPAC A
Instrument: IFS66V (Bruker)
Instrument parameters: KBr Beam splitter; MCT Detector; Multipass cell
Sampling: 1 L/min Flow
Resolution: 0.2410
Temperature: 23 C
Pressure: 101.3 kPa
Origin: NIST, Anayltical Chemistry Division, 301-975-3108
cm-1	(micromol/mol)-1m-1 (base 10)
575.048	3.50908e-06
583.606	3.9384e-06
592.163	1.51454e-06
600.721	2.93388e-06
609.279	4.24217e-06
617.836	3.22514e-06
626.394	3.22627e-06
634.951	3.21975e-06
643.509	2.49593e-06
652.067	1.48347e-06
660.624	2.36684e-07
669.182	2.01087e-06
677.74	1.50863e-06
686.297	2.64859e-07
694.855	9.78954e-07
703.412	4.29725e-07
711.97	2.34918e-07
720.528	2.48272e-07
729.085	6.82874e-07
737.643	9.56993e-07
746.201	6.87561e-07
754.758	1.21379e-06
763.316	1.07791e-06
771.873	2.04538e-06
780.431	3.07307e-06
788.989	4.20895e-06
797.546	4.54275e-06
806.104	4.10545e-06
814.662	3.78339e-06
823.219	4.42671e-06
831.777	3.67482e-06
840.334	4.91046e-06
848.892	9.70043e-06
857.45	1.92961e-05
866.007	3.51414e-05
874.565	3.47124e-05
883.123	4.40598e-05
891.68	6.20248e-05
900.238	4.05104e-05
908.795	2.40067e-05
917.353	1.10121e-05
925.911	6.43111e-06
934.468	4.66205e-06
943.026	3.81452e-06
951.584	3.79046e-06
960.141	4.80576e-06
968.699	5.81477e-06
977.256	8.27895e-06
985.814	1.31162e-05
994.372	2.179e-05
1002.93	3.96914e-05
1011.49	7.65751e-05
1020.04	9.75698e-05
1028.6	0.000129534
1037.16	0.000203762
1045.72	0.000245614
1054.28	0.000258365
1062.83	0.000238171
1071.39	0.000246482
1079.95	0.000233016
1088.51	0.00015578
1097.06	9.76805e-05
1105.62	8.09206e-05
1114.18	4.82521e-05
1122.74	2.8069e-05
1131.29	2.09466e-05
1139.85	1.36997e-05
1148.41	1.06505e-05
1156.97	1.01965e-05
1165.52	1.02678e-05
1174.08	1.06699e-05
1182.64	1.34121e-05
1191.2	1.58455e-05
1199.75	2.02776e-05
1208.31	2.84776e-05
1216.87	4.54032e-05
1225.43	6.63736e-05
1233.99	6.39551e-05
1242.54	6.0184e-05
1251.1	7.02373e-05
1259.66	6.51164e-05
1268.22	4.113e-05
1276.77	2.71499e-05
1285.33	1.9551e-05
1293.89	1.65806e-05
1302.45	1.50401e-05
1311	1.50919e-05
1319.56	1.50927e-05
1328.12	1.54853e-05
1336.68	1.68785e-05
1345.23	1.87886e-05
1353.79	2.44555e-05
1362.35	3.50866e-05
1370.91	5.67108e-05
1379.46	8.17567e-05
1388.02	7.17822e-05
1396.58	7.0937e-05
1405.14	9.69718e-05
1413.7	7.33753e-05
1422.25	4.03352e-05
1430.81	2.90945e-05
1439.37	2.7922e-05
1447.93	2.91516e-05
1456.48	2.21519e-05
1465.04	1.9465e-05
1473.6	1.94695e-05
1482.16	1.7179e-05
1490.71	1.32414e-05
1499.27	1.01649e-05
1507.83	7.38777e-06
1516.39	4.4753e-06
1524.94	2.68221e-06
1533.5	1.84132e-06
1542.06	9.73912e-07
1550.62	6.12479e-07
1559.18	8.2143e-07
1567.73	4.8711e-07
1576.29	4.017e-07
1584.85	3.43928e-07
1593.41	2.01227e-07
1601.96	4.46688e-07
1610.52	4.7823e-07
1619.08	2.59182e-07
1627.64	4.53937e-07
1636.19	3.53917e-07
1644.75	3.32747e-07
1653.31	1.14509e-07
1661.87	4.43965e-07
1670.42	6.33893e-07
1678.98	5.62153e-07
1687.54	4.52284e-07
1696.1	4.00237e-07
1704.65	3.59035e-07
1713.21	2.79196e-07
1721.77	7.25188e-07
1730.33	1.49277e-08
1738.89	4.45975e-07
1747.44	4.67174e-07
1756	6.12122e-07
1764.56	3.88373e-07
1773.12	5.25173e-07
1781.67	4.48973e-07
1790.23	7.3591e-08
1798.79	5.27949e-08
1807.35	1.02393e-07
1815.9	-1.60874e-07
1824.46	-1.02139e-07
1833.02	-2.32294e-07
1841.58	-1.8219e-07
1850.13	-1.4353e-07
1858.69	3.73451e-08
1867.25	3.405e-08
1875.81	1.83995e-07
1884.36	4.92854e-07
1892.92	9.53189e-07
1901.48	1.85843e-06
1910.04	2.37621e-06
1918.6	2.93142e-06
1927.15	3.8931e-06
1935.71	3.38217e-06
1944.27	3.49502e-06
1952.83	2.0625e-06
1961.38	1.44616e-06
1969.94	8.63715e-07
1978.5	7.52757e-07
1987.06	6.13329e-07
1995.61	2.54618e-07
2004.17	-9.82539e-08
2012.73	-1.17177e-07
2021.29	-2.36819e-07
2029.84	-4.188e-07
2038.4	-4.13505e-07
2046.96	-4.13658e-07
2055.52	-4.49068e-07
2064.08	-5.13674e-08
2072.63	-1.94104e-07
2081.19	1.35236e-07
2089.75	5.02014e-07
2098.31	8.60687e-07
2106.86	1.32163e-06
2115.42	1.28071e-06
2123.98	1.93615e-06
2132.54	1.15171e-06
2141.09	6.18029e-07
2149.65	2.81231e-07
2158.21	1.45603e-06
2166.77	1.55889e-07
2175.32	3.85812e-07
2183.88	5.09712e-07
2192.44	3.54255e-07
2201	4.48378e-08
2209.55	4.06532e-07
2218.11	9.51889e-08
2226.67	4.0979e-07
2235.23	3.73437e-07
2243.79	7.46352e-07
2252.34	1.29049e-06
2260.9	1.76437e-06
2269.46	1.30287e-06
2278.02	1.41521e-06
2286.57	1.32376e-06
2295.13	7.36195e-07
2303.69	8.35434e-07
2312.25	6.57963e-07
2320.8	1.2809e-06
2329.36	9.8558e-07
2337.92	1.73173e-06
2346.48	5.85464e-07
2355.03	9.07501e-07
2363.59	9.99168e-07
2372.15	7.88457e-07
2380.71	1.52451e-06
2389.26	1.06102e-06
2397.82	1.58386e-06
2406.38	1.46457e-06
2414.94	1.83809e-06
2423.5	1.54476e-06
2432.05	1.41825e-06
2440.61	1.00874e-06
2449.17	6.9316e-07
2457.73	6.91039e-07
2466.28	9.4076e-07
2474.84	1.11026e-06
2483.4	8.84879e-07
2491.96	1.08436e-06
2500.51	5.65741e-07
2509.07	6.22316e-07
2517.63	7.15998e-07
2526.19	6.01028e-07
2534.74	5.69897e-07
2543.3	6.33072e-07
2551.86	4.62863e-07
2560.42	6.68398e-07
2568.98	7.51323e-07
2577.53	9.48638e-07
2586.09	1.13831e-06
2594.65	1.62655e-06
2603.21	1.57719e-06
2611.76	1.86408e-06
2620.32	2.40438e-06
2628.88	2.42836e-06
2637.44	2.60067e-06
2645.99	3.00062e-06
2654.55	3.24449e-06
2663.11	3.55338e-06
2671.67	3.54088e-06
2680.22	3.69331e-06
2688.78	3.78013e-06
2697.34	4.26166e-06
2705.9	5.40317e-06
2714.45	5.78224e-06
2723.01	6.97525e-06
2731.57	7.8345e-06
2740.13	9.27951e-06
2748.69	1.02314e-05
2757.24	1.06325e-05
2765.8	1.13053e-05
2774.36	1.22294e-05
2782.92	1.38018e-05
2791.47	1.50662e-05
2800.03	1.72113e-05
2808.59	1.82672e-05
2817.15	2.09036e-05
2825.7	2.47032e-05
2834.26	3.06332e-05
2842.82	4.04884e-05
2851.38	5.54994e-05
2859.93	7.895e-05
2868.49	0.000107306
2877.05	0.000124132
2885.61	0.000151317
2894.16	0.000157846
2902.72	0.000171893
2911.28	0.000168426
2919.84	0.000150261
2928.4	0.000143139
2936.95	0.000139767
2945.51	0.000145018
2954.07	0.000161984
2962.63	0.000184292
2971.18	0.000216794
2979.74	0.000203549
2988.3	0.000211795
2996.86	0.000171629
3005.41	0.000129027
3013.97	8.6617e-05
3022.53	5.24877e-05
3031.09	2.79169e-05
3039.64	1.28345e-05
3048.2	5.07351e-06
3056.76	1.56938e-06
3065.32	9.93279e-07
3073.88	7.70823e-07
3082.43	7.10278e-07
3090.99	7.74682e-07
3099.55	5.3136e-07
3108.11	8.58185e-07
3116.66	4.75935e-07
3125.22	7.64198e-07
3133.78	8.41606e-07
3142.34	7.73365e-07
3150.89	7.73484e-07
3159.45	1.13477e-06
3168.01	1.19478e-06
3176.57	1.09885e-06
3185.12	1.33663e-06
3193.68	1.12521e-06
3202.24	1.54188e-06
3210.8	2.0304e-06
3219.35	1.98538e-06
3227.91	2.26493e-06
3236.47	1.59381e-06
3245.03	7.83803e-07
3253.59	1.05482e-06
3262.14	2.97264e-07
3270.7	3.27764e-07
3279.26	2.92276e-07
3287.82	-1.4208e-07
3296.37	-5.02744e-07
3304.93	-2.16328e-07
3313.49	-6.2952e-07
3322.05	-2.5896e-07
3330.6	-5.61499e-08
3339.16	-1.88512e-07
3347.72	-4.00591e-07
3356.28	-2.09922e-07
3364.83	-8.34857e-09
3373.39	3.03404e-07
3381.95	4.243e-07
3390.51	8.64908e-07
3399.06	9.00449e-07
3407.62	6.37002e-07
3416.18	1.64168e-06
3424.74	1.25649e-06
3433.3	8.74455e-07
3441.85	1.13341e-06
3450.41	1.2063e-06
3458.97	1.06405e-06
3467.53	1.16518e-06
3476.08	1.71619e-06
3484.64	1.22753e-06
3493.2	1.25472e-06
3501.76	1.25615e-06
3510.31	1.00063e-06
3518.87	1.0057e-06
3527.43	8.10082e-07
3535.99	7.06336e-07
3544.54	4.85115e-07
3553.1	6.16824e-07
3561.66	1.13706e-06
3570.22	1.27198e-06
3578.78	6.60918e-07
3587.33	7.57192e-07
3595.89	1.95801e-06
3604.45	3.03199e-06
3613.01	4.51989e-06
3621.56	7.24614e-06
3630.12	1.21218e-05
3638.68	2.00832e-05
3647.24	3.11068e-05
3655.79	5.035e-05
3664.35	5.09454e-05
3672.91	5.16535e-05
3681.47	4.27325e-05
3690.02	4.36467e-05
3698.58	2.74224e-05
3707.14	1.15131e-05
3715.7	5.26969e-06
3724.25	2.97786e-06
3732.81	2.08286e-06
3741.37	1.5799e-06
3749.93	1.52698e-06
3758.49	1.75041e-06
3767.04	9.76205e-07
3775.6	1.73393e-06
3784.16	1.74872e-06
3792.72	1.92931e-06
3801.27	2.1027e-06
3809.83	1.75204e-06
3818.39	1.66492e-06
3826.95	2.03779e-06
3835.5	2.27092e-06
3844.06	2.28839e-06
3852.62	1.97022e-06
3861.18	2.7267e-06
3869.73	2.15527e-06
3878.29	1.50255e-06
3886.85	2.921e-06
3895.41	1.41372e-06
3903.96	1.57457e-06
3912.52	1.22352e-06
3921.08	1.00551e-06
3929.64	8.24216e-07
3938.2	6.96082e-07
3946.75	1.03165e-06
3955.31	1.30796e-06
3963.87	1.15e-06
3972.43	1.14962e-06
