Infrared Spectrum: Ethanol
Formula: C2 H5 O H
CAS: 64-17-5
State: gas
Melting point: -117.3 C
Boiling point: 78.5 C
Class: IUPAC A
Instrument: IFS66V (Bruker)
Instrument parameters: KBr Beam splitter; MCT Detector; Multipass cell
Sampling: 1 L/min Flow
Resolution: 1.9290
Temperature: 23 C
Pressure: 101.3 kPa
Origin: NIST, Anayltical Chemistry Division, 301-975-3108
cm-1	(micromol/mol)-1m-1 (base 10)
574.687	2.47805e-06
583.365	2.73066e-06
592.043	2.33803e-06
600.721	2.6463e-06
609.4	2.81162e-06
618.078	2.78568e-06
626.756	2.74011e-06
635.434	2.44719e-06
644.112	2.3531e-06
652.79	1.67993e-06
661.469	1.76134e-06
670.147	1.57967e-06
678.825	1.34862e-06
687.503	1.00667e-06
696.181	7.90803e-07
704.859	6.33441e-07
713.537	4.52657e-07
722.216	4.78309e-07
730.894	6.46322e-07
739.572	7.3037e-07
748.25	8.39332e-07
756.928	1.11366e-06
765.606	1.64281e-06
774.285	2.49496e-06
782.963	3.44976e-06
791.641	3.73515e-06
800.319	5.51286e-06
808.997	4.15086e-06
817.675	4.14036e-06
826.353	4.08103e-06
835.032	4.26629e-06
843.71	6.36783e-06
852.388	1.28679e-05
861.066	2.64873e-05
869.744	3.75222e-05
878.422	4.3707e-05
887.101	3.7025e-05
895.779	4.22516e-05
904.457	3.30363e-05
913.135	1.65058e-05
921.813	8.16893e-06
930.491	5.6842e-06
939.169	4.67224e-06
947.848	4.27597e-06
956.526	4.45331e-06
965.204	5.51518e-06
973.882	7.63472e-06
982.56	1.13816e-05
991.238	1.90819e-05
999.917	3.48481e-05
1008.59	6.22154e-05
1017.27	9.10483e-05
1025.95	0.000123718
1034.63	0.000156085
1043.31	0.000228963
1051.99	0.000259837
1060.66	0.000233963
1069.34	0.000236573
1078.02	0.000248094
1086.7	0.000168938
1095.38	0.000100454
1104.05	8.60654e-05
1112.73	5.32218e-05
1121.41	3.06639e-05
1130.09	2.10096e-05
1138.77	1.49299e-05
1147.45	1.13724e-05
1156.12	1.04714e-05
1164.8	1.03829e-05
1173.48	1.09981e-05
1182.16	1.3193e-05
1190.84	1.62967e-05
1199.51	2.09116e-05
1208.19	2.86382e-05
1216.87	4.58767e-05
1225.55	6.6384e-05
1234.23	6.47028e-05
1242.9	6.54322e-05
1251.58	7.29184e-05
1260.26	6.18813e-05
1268.94	3.9476e-05
1277.62	2.62451e-05
1286.3	1.93276e-05
1294.97	1.63885e-05
1303.65	1.53084e-05
1312.33	1.51695e-05
1321.01	1.5585e-05
1329.69	1.58636e-05
1338.36	1.78526e-05
1347.04	2.00958e-05
1355.72	2.6465e-05
1364.4	3.97248e-05
1373.08	6.28643e-05
1381.76	8.41776e-05
1390.43	7.47782e-05
1399.11	7.59556e-05
1407.79	9.38487e-05
1416.47	5.94945e-05
1425.15	3.54434e-05
1433.82	2.87714e-05
1442.5	2.80436e-05
1451.18	3.33177e-05
1459.86	2.15962e-05
1468.54	1.99811e-05
1477.22	1.93935e-05
1485.89	1.45278e-05
1494.57	1.16433e-05
1503.25	8.83187e-06
1511.93	5.92037e-06
1520.61	3.64575e-06
1529.28	2.23707e-06
1537.96	1.38856e-06
1546.64	9.05104e-07
1555.32	6.98231e-07
1564	5.57176e-07
1572.67	4.66675e-07
1581.35	4.55403e-07
1590.03	4.59567e-07
1598.71	4.29091e-07
1607.39	4.47099e-07
1616.07	3.92646e-07
1624.74	3.70359e-07
1633.42	3.87788e-07
1642.1	4.16282e-07
1650.78	4.18946e-07
1659.46	4.1308e-07
1668.13	4.6996e-07
1676.81	4.87146e-07
1685.49	5.32659e-07
1694.17	4.52019e-07
1702.85	4.88557e-07
1711.53	3.75292e-07
1720.2	3.68794e-07
1728.88	3.54546e-07
1737.56	4.15403e-07
1746.24	4.8984e-07
1754.92	5.09452e-07
1763.59	6.28331e-07
1772.27	6.33738e-07
1780.95	5.40123e-07
1789.63	3.31579e-07
1798.31	1.69723e-07
1806.98	-1.43452e-08
1815.66	-9.99496e-08
1824.34	-1.40406e-07
1833.02	-1.6797e-07
1841.7	-1.81386e-07
1850.38	-1.44716e-07
1859.05	-7.71039e-08
1867.73	4.54594e-08
1876.41	1.94401e-07
1885.09	5.48924e-07
1893.77	1.15068e-06
1902.44	1.95426e-06
1911.12	2.5523e-06
1919.8	3.22677e-06
1928.48	3.67413e-06
1937.16	3.44152e-06
1945.84	3.27772e-06
1954.51	1.98089e-06
1963.19	1.25083e-06
1971.87	7.93172e-07
1980.55	4.9736e-07
1989.23	4.94188e-07
1997.9	1.24529e-07
2006.58	-1.76034e-07
2015.26	-2.62718e-07
2023.94	-3.16409e-07
2032.62	-3.16628e-07
2041.3	-2.83491e-07
2049.97	-2.13652e-07
2058.65	-1.45083e-07
2067.33	-1.05392e-07
2076.01	-3.20933e-08
2084.69	2.3685e-07
2093.36	6.58319e-07
2102.04	1.11686e-06
2110.72	1.61703e-06
2119.4	1.61685e-06
2128.08	1.64949e-06
2136.75	1.03721e-06
2145.43	5.3208e-07
2154.11	4.58139e-07
2162.79	4.60932e-07
2171.47	4.1521e-07
2180.15	6.95489e-07
2188.82	4.32391e-07
2197.5	2.67851e-07
2206.18	9.70974e-08
2214.86	2.51162e-08
2223.54	1.61635e-07
2232.21	3.98345e-07
2240.89	7.63202e-07
2249.57	1.18023e-06
2258.25	1.2638e-06
2266.93	1.46271e-06
2275.61	1.53675e-06
2284.28	1.37045e-06
2292.96	9.63791e-07
2301.64	7.96955e-07
2310.32	9.55587e-07
2319	1.23285e-06
2327.67	1.92224e-06
2336.35	1.98657e-06
2345.03	1.63001e-06
2353.71	1.58473e-06
2362.39	2.26477e-06
2371.06	1.65578e-06
2379.74	1.1715e-06
2388.42	1.22737e-06
2397.1	1.41604e-06
2405.78	1.56919e-06
2414.46	1.66481e-06
2423.13	1.43287e-06
2431.81	1.20147e-06
2440.49	1.09963e-06
2449.17	8.78393e-07
2457.85	9.37319e-07
2466.52	9.71492e-07
2475.2	9.9069e-07
2483.88	1.08157e-06
2492.56	9.51747e-07
2501.24	7.61302e-07
2509.92	6.64279e-07
2518.59	6.25544e-07
2527.27	5.64333e-07
2535.95	5.41823e-07
2544.63	5.91345e-07
2553.31	6.89962e-07
2561.98	7.75954e-07
2570.66	9.2742e-07
2579.34	1.09734e-06
2588.02	1.30174e-06
2596.7	1.57288e-06
2605.38	1.67239e-06
2614.05	1.9156e-06
2622.73	2.35897e-06
2631.41	2.54276e-06
2640.09	2.76712e-06
2648.77	3.08239e-06
2657.44	3.29478e-06
2666.12	3.57138e-06
2674.8	3.72156e-06
2683.48	3.97658e-06
2692.16	4.29524e-06
2700.83	4.75852e-06
2709.51	5.65612e-06
2718.19	6.45513e-06
2726.87	7.14155e-06
2735.55	8.44365e-06
2744.23	9.85675e-06
2752.9	1.04441e-05
2761.58	1.12716e-05
2770.26	1.19848e-05
2778.94	1.32845e-05
2787.62	1.39912e-05
2796.29	1.64522e-05
2804.97	1.789e-05
2813.65	1.96512e-05
2822.33	2.36078e-05
2831.01	2.82579e-05
2839.69	3.72108e-05
2848.36	5.00711e-05
2857.04	7.03068e-05
2865.72	9.94554e-05
2874.4	0.000116743
2883.08	0.000145636
2891.75	0.000155256
2900.43	0.000195433
2909.11	0.000162774
2917.79	0.000150368
2926.47	0.000144842
2935.14	0.000139506
2943.82	0.000144828
2952.5	0.000158097
2961.18	0.000179396
2969.86	0.000210008
2978.54	0.000207217
2987.21	0.0002179
2995.89	0.000174035
3004.57	0.000133436
3013.25	8.93823e-05
3021.93	5.48012e-05
3030.6	2.94964e-05
3039.28	1.37202e-05
3047.96	5.76658e-06
3056.64	2.49636e-06
3065.32	1.33568e-06
3074	1.0037e-06
3082.67	8.2487e-07
3091.35	8.24198e-07
3100.03	8.07271e-07
3108.71	7.33993e-07
3117.39	7.2729e-07
3126.06	7.41241e-07
3134.74	7.08193e-07
3143.42	6.59099e-07
3152.1	7.46101e-07
3160.78	8.10855e-07
3169.46	9.46146e-07
3178.13	1.08898e-06
3186.81	1.31775e-06
3195.49	1.55712e-06
3204.17	1.85301e-06
3212.85	2.0032e-06
3221.52	2.16973e-06
3230.2	1.99416e-06
3238.88	1.69235e-06
3247.56	1.11448e-06
3256.24	7.03135e-07
3264.91	1.99805e-07
3273.59	-1.06458e-07
3282.27	-2.00332e-07
3290.95	-2.32858e-07
3299.63	-2.94903e-07
3308.31	-2.12262e-07
3316.98	-2.62027e-07
3325.66	-2.72349e-07
3334.34	-2.97348e-07
3343.02	-1.4527e-07
3351.7	-1.38374e-07
3360.37	5.88388e-09
3369.05	2.03393e-07
3377.73	4.80811e-07
3386.41	8.52381e-07
3395.09	8.90322e-07
3403.77	1.24938e-06
3412.44	1.34278e-06
3421.12	1.11669e-06
3429.8	9.46526e-07
3438.48	1.02127e-06
3447.16	1.14286e-06
3455.83	1.28306e-06
3464.51	1.43167e-06
3473.19	1.93188e-06
3481.87	1.62006e-06
3490.55	1.41234e-06
3499.22	1.21167e-06
3507.9	1.1073e-06
3516.58	9.0444e-07
3525.26	7.68542e-07
3533.94	9.07554e-07
3542.62	7.59947e-07
3551.29	8.47416e-07
3559.97	9.36071e-07
3568.65	1.05822e-06
3577.33	8.30896e-07
3586.01	1.07272e-06
3594.68	1.79027e-06
3603.36	2.5887e-06
3612.04	4.22453e-06
3620.72	7.20156e-06
3629.4	1.15158e-05
3638.08	1.91591e-05
3646.75	3.11712e-05
3655.43	4.52844e-05
3664.11	5.12641e-05
3672.79	5.15218e-05
3681.47	4.29057e-05
3690.14	4.28521e-05
3698.82	2.68973e-05
3707.5	1.16371e-05
3716.18	5.2335e-06
3724.86	2.93592e-06
3733.54	1.98825e-06
3742.21	1.50927e-06
3750.89	1.57216e-06
3759.57	1.40468e-06
3768.25	1.21036e-06
3776.93	1.40481e-06
3785.6	1.8106e-06
3794.28	1.80255e-06
3802.96	1.58665e-06
3811.64	1.70005e-06
3820.32	1.70961e-06
3828.99	2.07731e-06
3837.67	2.27759e-06
3846.35	2.42936e-06
3855.03	2.39471e-06
3863.71	2.3393e-06
3872.39	2.02676e-06
3881.06	1.94502e-06
3889.74	1.72672e-06
3898.42	1.60487e-06
3907.1	1.39381e-06
3915.78	1.27681e-06
3924.45	1.15428e-06
3933.13	8.87292e-07
3941.81	9.29352e-07
3950.49	9.0108e-07
3959.17	1.04487e-06
3967.85	1.12547e-06
