Infrared Spectrum: Ethanol
Formula: C2 H5 O H
CAS: 64-17-5
State: gas
Melting point: -117.3 C
Boiling point: 78.5 C
Class: IUPAC A
Instrument: IFS66V (Bruker)
Instrument parameters: KBr Beam splitter; MCT Detector; Multipass cell
Sampling: 1 L/min Flow
Resolution: 0.4820
Temperature: 23 C
Pressure: 101.3 kPa
Origin: NIST, Anayltical Chemistry Division, 301-975-3108
cm-1	(micromol/mol)-1m-1 (base 10)
574.928	1.90717e-06
583.606	3.5057e-06
592.284	2.14383e-06
600.962	2.77398e-06
609.641	2.85155e-06
618.319	2.29878e-06
626.997	2.72628e-06
635.675	2.52607e-06
644.353	2.6048e-06
653.031	1.66456e-06
661.71	1.81001e-06
670.388	1.27445e-06
679.066	1.57424e-06
687.744	9.93564e-07
696.422	6.0153e-07
705.1	5.51449e-07
713.778	3.08076e-07
722.457	3.79526e-07
731.135	8.69463e-07
739.813	7.70711e-07
748.491	7.43083e-07
757.169	1.09718e-06
765.847	1.55596e-06
774.526	2.60856e-06
783.204	3.50445e-06
791.882	3.66416e-06
800.56	6.27628e-06
809.238	4.07332e-06
817.916	3.85034e-06
826.594	4.01927e-06
835.273	4.33623e-06
843.951	6.2283e-06
852.629	1.30164e-05
861.307	2.72361e-05
869.985	3.83939e-05
878.663	4.31508e-05
887.342	3.65428e-05
896.02	4.24987e-05
904.698	3.28035e-05
913.376	1.58195e-05
922.054	7.66133e-06
930.732	5.31759e-06
939.41	4.4264e-06
948.089	4.10357e-06
956.767	4.10271e-06
965.445	5.13198e-06
974.123	7.27403e-06
982.801	1.09431e-05
991.479	1.86996e-05
1000.16	3.47222e-05
1008.84	6.25709e-05
1017.51	9.07996e-05
1026.19	0.000128006
1034.87	0.000157264
1043.55	0.000232967
1052.23	0.0002633
1060.9	0.000229352
1069.58	0.000231507
1078.26	0.00024992
1086.94	0.000168147
1095.62	9.82346e-05
1104.3	8.59235e-05
1112.97	5.16794e-05
1121.65	2.94016e-05
1130.33	1.99199e-05
1139.01	1.42599e-05
1147.69	1.0777e-05
1156.36	1.00576e-05
1165.04	1.01308e-05
1173.72	1.07117e-05
1182.4	1.30381e-05
1191.08	1.60697e-05
1199.76	2.06231e-05
1208.43	2.82585e-05
1217.11	4.53213e-05
1225.79	6.62217e-05
1234.47	6.34618e-05
1243.15	6.51498e-05
1251.82	7.37977e-05
1260.5	6.12152e-05
1269.18	3.88251e-05
1277.86	2.56708e-05
1286.54	1.89552e-05
1295.21	1.6148e-05
1303.89	1.52824e-05
1312.57	1.49743e-05
1321.25	1.55297e-05
1329.93	1.56136e-05
1338.61	1.79238e-05
1347.28	1.99943e-05
1355.96	2.62374e-05
1364.64	4.02564e-05
1373.32	6.36818e-05
1382	8.5496e-05
1390.67	7.437e-05
1399.35	7.59864e-05
1408.03	9.52484e-05
1416.71	5.84451e-05
1425.39	3.48669e-05
1434.07	2.80845e-05
1442.74	2.74859e-05
1451.42	3.24202e-05
1460.1	2.13901e-05
1468.78	1.9717e-05
1477.46	1.93053e-05
1486.13	1.42655e-05
1494.81	1.12953e-05
1503.49	8.6877e-06
1512.17	5.6986e-06
1520.85	3.49264e-06
1529.52	2.10287e-06
1538.2	1.30071e-06
1546.88	8.00641e-07
1555.56	6.12249e-07
1564.24	5.1958e-07
1572.92	4.30571e-07
1581.59	4.4757e-07
1590.27	3.99174e-07
1598.95	3.60815e-07
1607.63	4.06726e-07
1616.31	2.99876e-07
1624.98	2.91342e-07
1633.66	3.55403e-07
1642.34	3.89718e-07
1651.02	4.08901e-07
1659.7	4.02861e-07
1668.38	3.88513e-07
1677.05	4.21536e-07
1685.73	5.20489e-07
1694.41	3.85202e-07
1703.09	4.6658e-07
1711.77	3.78459e-07
1720.44	3.09793e-07
1729.12	3.22763e-07
1737.8	3.42809e-07
1746.48	4.73318e-07
1755.16	4.77449e-07
1763.84	6.44186e-07
1772.51	6.13375e-07
1781.19	4.83642e-07
1789.87	3.0281e-07
1798.55	1.56256e-07
1807.23	-1.99572e-08
1815.9	-1.41432e-07
1824.58	-1.72597e-07
1833.26	-2.05665e-07
1841.94	-1.89602e-07
1850.62	-1.58649e-07
1859.29	-8.71705e-08
1867.97	4.56564e-08
1876.65	1.99912e-07
1885.33	5.50794e-07
1894.01	1.13796e-06
1902.69	2.02781e-06
1911.36	2.54832e-06
1920.04	3.24812e-06
1928.72	3.66992e-06
1937.4	3.40525e-06
1946.08	3.22281e-06
1954.75	1.96624e-06
1963.43	1.25681e-06
1972.11	7.67943e-07
1980.79	4.79921e-07
1989.47	5.40152e-07
1998.15	1.33569e-07
2006.82	-1.71839e-07
2015.5	-2.95452e-07
2024.18	-2.98407e-07
2032.86	-3.56911e-07
2041.54	-2.64229e-07
2050.21	-2.44321e-07
2058.89	-1.41697e-07
2067.57	-1.36538e-07
2076.25	1.82937e-08
2084.93	1.8193e-07
2093.6	6.20982e-07
2102.28	1.02793e-06
2110.96	1.48726e-06
2119.64	2.251e-06
2128.32	1.48886e-06
2137	1.00193e-06
2145.67	4.72941e-07
2154.35	6.94956e-07
2163.03	2.5772e-07
2171.71	2.78214e-07
2180.39	4.02202e-07
2189.06	3.35632e-07
2197.74	1.7791e-07
2206.42	2.64916e-07
2215.1	-3.03043e-08
2223.78	1.44194e-07
2232.46	4.04783e-07
2241.13	7.93024e-07
2249.81	1.18877e-06
2258.49	1.21154e-06
2267.17	1.49137e-06
2275.85	1.45092e-06
2284.52	1.37279e-06
2293.2	9.71201e-07
2301.88	7.61137e-07
2310.56	9.34271e-07
2319.24	1.94617e-06
2327.92	1.28258e-06
2336.59	1.12985e-06
2345.27	1.08422e-06
2353.95	1.18196e-06
2362.63	3.2598e-06
2371.31	2.06863e-06
2379.98	1.2018e-06
2388.66	1.27942e-06
2397.34	1.38332e-06
2406.02	1.62114e-06
2414.7	1.61853e-06
2423.37	1.43308e-06
2432.05	1.21195e-06
2440.73	1.04831e-06
2449.41	8.20335e-07
2458.09	9.38162e-07
2466.77	9.60201e-07
2475.44	9.84228e-07
2484.12	1.12574e-06
2492.8	9.42167e-07
2501.48	7.72596e-07
2510.16	6.12228e-07
2518.83	5.9653e-07
2527.51	5.10252e-07
2536.19	4.53923e-07
2544.87	5.74033e-07
2553.55	6.83478e-07
2562.23	6.78221e-07
2570.9	9.07146e-07
2579.58	1.08592e-06
2588.26	1.20118e-06
2596.94	1.56244e-06
2605.62	1.63267e-06
2614.29	1.89337e-06
2622.97	2.3598e-06
2631.65	2.59557e-06
2640.33	2.75733e-06
2649.01	3.01857e-06
2657.68	3.22425e-06
2666.36	3.49149e-06
2675.04	3.67596e-06
2683.72	3.94055e-06
2692.4	4.24495e-06
2701.08	4.70522e-06
2709.75	5.65483e-06
2718.43	6.38273e-06
2727.11	7.13154e-06
2735.79	8.43982e-06
2744.47	9.82594e-06
2753.14	1.02727e-05
2761.82	1.1189e-05
2770.5	1.18503e-05
2779.18	1.32623e-05
2787.86	1.38018e-05
2796.54	1.63974e-05
2805.21	1.77839e-05
2813.89	1.94459e-05
2822.57	2.35396e-05
2831.25	2.79904e-05
2839.93	3.7183e-05
2848.6	5.01406e-05
2857.28	7.06854e-05
2865.96	0.000100838
2874.64	0.000116833
2883.32	0.000146502
2892	0.000156658
2900.67	0.000216369
2909.35	0.000162112
2918.03	0.000149655
2926.71	0.000144408
2935.39	0.000140022
2944.06	0.000145071
2952.74	0.000158568
2961.42	0.000180251
2970.1	0.000210653
2978.78	0.000211773
2987.45	0.000221316
2996.13	0.000174513
3004.81	0.000133708
3013.49	8.8024e-05
3022.17	5.33778e-05
3030.85	2.83549e-05
3039.52	1.27024e-05
3048.2	5.07132e-06
3056.88	1.89818e-06
3065.56	9.74486e-07
3074.24	7.22215e-07
3082.91	5.92185e-07
3091.59	5.71364e-07
3100.27	6.45892e-07
3108.95	5.71811e-07
3117.63	5.9564e-07
3126.31	6.95427e-07
3134.98	5.54219e-07
3143.66	5.95908e-07
3152.34	7.83427e-07
3161.02	7.06008e-07
3169.7	8.55476e-07
3178.37	1.06141e-06
3187.05	1.26471e-06
3195.73	1.48253e-06
3204.41	1.73932e-06
3213.09	2.06748e-06
3221.77	2.2395e-06
3230.44	1.92657e-06
3239.12	1.77717e-06
3247.8	1.08494e-06
3256.48	6.83026e-07
3265.16	1.23121e-07
3273.83	-1.59228e-07
3282.51	-3.52657e-07
3291.19	-2.87788e-07
3299.87	-3.05371e-07
3308.55	-2.31894e-07
3317.22	-1.74353e-07
3325.9	-2.86444e-07
3334.58	-3.33665e-07
3343.26	-2.8785e-09
3351.94	-8.91668e-08
3360.62	-7.11486e-08
3369.29	2.37707e-07
3377.97	4.20182e-07
3386.65	8.7875e-07
3395.33	8.97537e-07
3404.01	1.30685e-06
3412.68	1.38643e-06
3421.36	1.22836e-06
3430.04	8.46972e-07
3438.72	1.02855e-06
3447.4	1.08815e-06
3456.08	1.24742e-06
3464.75	1.37178e-06
3473.43	1.9927e-06
3482.11	1.58496e-06
3490.79	1.39853e-06
3499.47	1.21645e-06
3508.14	1.06973e-06
3516.82	8.83631e-07
3525.5	6.81161e-07
3534.18	8.07075e-07
3542.86	6.35905e-07
3551.53	7.19447e-07
3560.21	7.75903e-07
3568.89	1.05529e-06
3577.57	8.7435e-07
3586.25	1.08729e-06
3594.93	1.69362e-06
3603.6	2.5626e-06
3612.28	4.16085e-06
3620.96	7.13773e-06
3629.64	1.14775e-05
3638.32	1.87802e-05
3646.99	3.078e-05
3655.67	4.86025e-05
3664.35	5.12539e-05
3673.03	5.16302e-05
3681.71	4.28322e-05
3690.39	4.31789e-05
3699.06	2.64619e-05
3707.74	1.10528e-05
3716.42	4.80963e-06
3725.1	2.69361e-06
3733.78	1.97491e-06
3742.45	1.46231e-06
3751.13	1.49825e-06
3759.81	1.39698e-06
3768.49	1.07074e-06
3777.17	1.42697e-06
3785.85	1.85072e-06
3794.52	1.74105e-06
3803.2	1.63438e-06
3811.88	1.78011e-06
3820.56	1.68233e-06
3829.24	2.06011e-06
3837.91	2.20505e-06
3846.59	2.43915e-06
3855.27	2.38565e-06
3863.95	2.31485e-06
3872.63	2.02518e-06
3881.3	1.82601e-06
3889.98	1.64653e-06
3898.66	1.57509e-06
3907.34	1.39466e-06
3916.02	1.19952e-06
3924.7	1.2046e-06
3933.37	7.97027e-07
3942.05	7.98117e-07
3950.73	9.26186e-07
3959.41	1.04761e-06
3968.09	1.07548e-06
