Infrared Spectrum: Ethanol
Formula: C2 H5 O H
CAS: 64-17-5
State: gas
Melting point: -117.3 C
Boiling point: 78.5 C
Class: IUPAC A
Instrument: IFS66V (Bruker)
Instrument parameters: KBr Beam splitter; MCT Detector; Multipass cell
Sampling: 1 L/min Flow
Resolution: 0.1250
Temperature: 23 C
Pressure: 101.3 kPa
Origin: NIST, Anayltical Chemistry Division, 301-975-3108
cm-1	(micromol/mol)-1m-1 (base 10)
574.988	4.67323e-06
583.546	4.3238e-06
592.103	2.65538e-06
600.661	2.24996e-06
609.219	3.90145e-06
617.776	2.95209e-06
626.334	3.23793e-06
634.891	2.86573e-06
643.449	2.41963e-06
652.007	1.95058e-06
660.564	6.9217e-07
669.122	2.27027e-06
677.68	1.61313e-06
686.237	9.12745e-07
694.795	8.03954e-07
703.352	8.19685e-07
711.91	5.59458e-07
720.468	7.0127e-07
729.025	1.00745e-06
737.583	1.01815e-06
746.141	9.96844e-07
754.698	8.97046e-07
763.256	1.02196e-06
771.813	2.08646e-06
780.371	3.39236e-06
788.929	4.12578e-06
797.486	4.93895e-06
806.044	4.14895e-06
814.602	4.03718e-06
823.159	4.18488e-06
831.717	3.51712e-06
840.274	4.90484e-06
848.832	9.06066e-06
857.39	1.91998e-05
865.947	3.48631e-05
874.505	3.44063e-05
883.063	4.49141e-05
891.62	6.5369e-05
900.178	4.08595e-05
908.735	2.39561e-05
917.293	1.08251e-05
925.851	6.52687e-06
934.408	4.80641e-06
942.966	3.84368e-06
951.524	4.10404e-06
960.081	4.59819e-06
968.639	5.99083e-06
977.196	8.26286e-06
985.754	1.31726e-05
994.312	2.19546e-05
1002.87	3.96035e-05
1011.43	7.66681e-05
1019.98	9.86877e-05
1028.54	0.000139217
1037.1	0.000206547
1045.66	0.000244808
1054.22	0.000259341
1062.77	0.000236932
1071.33	0.000245722
1079.89	0.000236097
1088.45	0.000155916
1097	9.93067e-05
1105.56	8.10893e-05
1114.12	4.86994e-05
1122.68	2.84958e-05
1131.23	2.03427e-05
1139.79	1.3736e-05
1148.35	1.08316e-05
1156.91	1.01151e-05
1165.46	9.91714e-06
1174.02	1.05858e-05
1182.58	1.3108e-05
1191.14	1.58866e-05
1199.69	2.01502e-05
1208.25	2.82502e-05
1216.81	4.53364e-05
1225.37	6.67849e-05
1233.93	6.39723e-05
1242.48	6.03856e-05
1251.04	7.06353e-05
1259.6	6.64889e-05
1268.16	4.05506e-05
1276.71	2.71495e-05
1285.27	1.96839e-05
1293.83	1.63656e-05
1302.39	1.4785e-05
1310.94	1.50447e-05
1319.5	1.50628e-05
1328.06	1.54957e-05
1336.62	1.7069e-05
1345.17	1.87504e-05
1353.73	2.4221e-05
1362.29	3.48904e-05
1370.85	5.65307e-05
1379.4	8.13596e-05
1387.96	7.22926e-05
1396.52	7.09356e-05
1405.08	9.67563e-05
1413.64	7.36279e-05
1422.19	4.04797e-05
1430.75	2.90457e-05
1439.31	2.76335e-05
1447.87	2.91104e-05
1456.42	2.22024e-05
1464.98	1.94631e-05
1473.54	1.93503e-05
1482.1	1.72808e-05
1490.65	1.34113e-05
1499.21	1.00869e-05
1507.77	7.39041e-06
1516.33	4.55697e-06
1524.88	2.65873e-06
1533.44	1.73338e-06
1542	9.38423e-07
1550.56	6.98511e-07
1559.11	7.08371e-07
1567.67	4.43834e-07
1576.23	3.93922e-07
1584.79	2.37951e-07
1593.35	2.22999e-07
1601.9	5.26032e-07
1610.46	4.50499e-07
1619.02	2.5831e-07
1627.58	3.24107e-07
1636.13	2.91746e-07
1644.69	4.61224e-07
1653.25	1.05997e-07
1661.81	4.99237e-07
1670.36	6.2118e-07
1678.92	5.56866e-07
1687.48	5.1369e-07
1696.04	4.15265e-07
1704.59	3.38704e-07
1713.15	3.62405e-07
1721.71	5.65376e-07
1730.27	7.09344e-08
1738.83	3.84828e-07
1747.38	3.7609e-07
1755.94	5.08166e-07
1764.5	3.90377e-07
1773.06	6.11946e-07
1781.61	4.31508e-07
1790.17	1.24607e-07
1798.73	1.24503e-07
1807.29	9.88068e-08
1815.84	-1.1245e-07
1824.4	-1.5259e-07
1832.96	-2.53318e-07
1841.52	-2.11426e-07
1850.07	-6.11539e-08
1858.63	-3.17218e-08
1867.19	6.94015e-08
1875.75	1.06978e-07
1884.3	4.81083e-07
1892.86	8.83308e-07
1901.42	1.78001e-06
1909.98	2.4267e-06
1918.54	2.89021e-06
1927.09	3.92374e-06
1935.65	3.36379e-06
1944.21	3.40912e-06
1952.77	2.11186e-06
1961.32	1.54381e-06
1969.88	8.23298e-07
1978.44	5.99396e-07
1987	6.64558e-07
1995.55	2.22015e-07
2004.11	-2.35508e-07
2012.67	-1.89324e-07
2021.23	-3.00292e-07
2029.78	-4.27182e-07
2038.34	-3.83936e-07
2046.9	-4.87981e-07
2055.46	-3.31597e-07
2064.01	-1.14825e-07
2072.57	-1.97469e-07
2081.13	6.56476e-08
2089.69	4.40302e-07
2098.25	8.79149e-07
2106.8	1.24301e-06
2115.36	1.42724e-06
2123.92	1.8979e-06
2132.48	1.14488e-06
2141.03	7.17142e-07
2149.59	3.87503e-07
2158.15	7.89964e-07
2166.71	1.92559e-07
2175.26	4.29076e-07
2183.82	5.18816e-07
2192.38	2.59819e-07
2200.94	4.19611e-08
2209.49	4.7799e-07
2218.05	3.07081e-08
2226.61	4.02209e-07
2235.17	3.79229e-07
2243.72	9.08206e-07
2252.28	1.03667e-06
2260.84	1.60658e-06
2269.4	1.43215e-06
2277.96	1.478e-06
2286.51	1.26628e-06
2295.07	6.26848e-07
2303.63	7.56354e-07
2312.19	7.91761e-07
2320.74	1.14324e-06
2329.3	9.79766e-07
2337.86	2.12325e-06
2346.42	8.58831e-07
2354.97	8.81458e-07
2363.53	8.98106e-07
2372.09	9.46332e-07
2380.65	1.46547e-06
2389.2	1.12704e-06
2397.76	1.52208e-06
2406.32	1.531e-06
2414.88	1.77556e-06
2423.44	1.37096e-06
2431.99	1.3214e-06
2440.55	1.01837e-06
2449.11	7.3564e-07
2457.67	8.13002e-07
2466.22	9.32272e-07
2474.78	9.8185e-07
2483.34	8.73662e-07
2491.9	1.10006e-06
2500.45	5.84478e-07
2509.01	6.75152e-07
2517.57	6.77117e-07
2526.13	5.18817e-07
2534.68	6.15345e-07
2543.24	6.40342e-07
2551.8	5.10061e-07
2560.36	6.65612e-07
2568.91	7.01561e-07
2577.47	9.80051e-07
2586.03	1.21177e-06
2594.59	1.48671e-06
2603.15	1.62005e-06
2611.7	1.88531e-06
2620.26	2.35171e-06
2628.82	2.46502e-06
2637.38	2.63224e-06
2645.93	2.89328e-06
2654.49	3.41405e-06
2663.05	3.46455e-06
2671.61	3.72167e-06
2680.16	3.90511e-06
2688.72	3.87257e-06
2697.28	4.35327e-06
2705.84	5.26536e-06
2714.39	5.72688e-06
2722.95	6.80598e-06
2731.51	8.03914e-06
2740.07	9.24527e-06
2748.62	1.01076e-05
2757.18	1.07711e-05
2765.74	1.12821e-05
2774.3	1.2363e-05
2782.86	1.38462e-05
2791.41	1.49425e-05
2799.97	1.7005e-05
2808.53	1.81474e-05
2817.09	2.09125e-05
2825.64	2.48902e-05
2834.2	3.06227e-05
2842.76	4.0293e-05
2851.32	5.53843e-05
2859.87	7.86723e-05
2868.43	0.000107338
2876.99	0.000124004
2885.55	0.000150968
2894.1	0.000157942
2902.66	0.000172144
2911.22	0.000168295
2919.78	0.000150416
2928.34	0.000143084
2936.89	0.000139806
2945.45	0.000145368
2954.01	0.000161489
2962.57	0.000183988
2971.12	0.00021703
2979.68	0.000203575
2988.24	0.000211347
2996.8	0.000171052
3005.35	0.000129537
3013.91	8.65294e-05
3022.47	5.27598e-05
3031.03	2.81221e-05
3039.58	1.26436e-05
3048.14	5.24892e-06
3056.7	1.86173e-06
3065.26	1.09921e-06
3073.81	6.82485e-07
3082.37	4.32456e-07
3090.93	6.79229e-07
3099.49	4.09285e-07
3108.05	6.81463e-07
3116.6	6.00847e-07
3125.16	7.02295e-07
3133.72	9.16865e-07
3142.28	3.69675e-07
3150.83	5.72022e-07
3159.39	8.09567e-07
3167.95	1.19765e-06
3176.51	1.09866e-06
3185.06	1.26094e-06
3193.62	1.32688e-06
3202.18	1.63404e-06
3210.74	1.93198e-06
3219.29	2.18583e-06
3227.85	1.93827e-06
3236.41	1.65838e-06
3244.97	9.44202e-07
3253.52	1.0441e-06
3262.08	2.59219e-07
3270.64	4.64716e-07
3279.2	7.63613e-08
3287.76	1.31345e-07
3296.31	-4.67876e-07
3304.87	-5.67479e-08
3313.43	-3.16057e-07
3321.99	-2.39514e-07
3330.54	-2.01359e-07
3339.1	-1.60273e-07
3347.66	-2.44475e-07
3356.22	-1.65824e-07
3364.77	1.10332e-07
3373.33	4.6749e-07
3381.89	6.93581e-07
3390.45	8.52112e-07
3399	1.17492e-06
3407.56	6.34608e-07
3416.12	1.42348e-06
3424.68	1.39936e-06
3433.23	1.1395e-06
3441.79	8.51978e-07
3450.35	1.39185e-06
3458.91	1.07347e-06
3467.47	1.54323e-06
3476.02	1.63931e-06
3484.58	1.36642e-06
3493.14	1.12202e-06
3501.7	1.19668e-06
3510.25	1.04347e-06
3518.81	1.00535e-06
3527.37	6.00802e-07
3535.93	6.76788e-07
3544.48	6.89785e-07
3553.04	6.04538e-07
3561.6	1.1348e-06
3570.16	1.19287e-06
3578.71	4.91207e-07
3587.27	8.21953e-07
3595.83	1.74451e-06
3604.39	3.08663e-06
3612.95	4.52187e-06
3621.5	7.25206e-06
3630.06	1.19635e-05
3638.62	1.99283e-05
3647.18	3.10624e-05
3655.73	4.98841e-05
3664.29	5.06709e-05
3672.85	5.20284e-05
3681.41	4.25122e-05
3689.96	4.39777e-05
3698.52	2.73996e-05
3707.08	1.18734e-05
3715.64	5.24418e-06
3724.19	2.70952e-06
3732.75	2.08464e-06
3741.31	1.42985e-06
3749.87	1.36923e-06
3758.42	1.78764e-06
3766.98	7.83497e-07
3775.54	1.61524e-06
3784.1	1.89601e-06
3792.66	1.80469e-06
3801.21	1.85082e-06
3809.77	1.62976e-06
3818.33	1.46371e-06
3826.89	1.97325e-06
3835.44	2.50606e-06
3844	2.34251e-06
3852.56	2.25779e-06
3861.12	2.72686e-06
3869.67	2.27113e-06
3878.23	1.75836e-06
3886.79	2.72024e-06
3895.35	1.42458e-06
3903.9	1.54543e-06
3912.46	1.23996e-06
3921.02	1.17257e-06
3929.58	1.35907e-06
3938.13	5.77711e-07
3946.69	5.89763e-07
3955.25	9.5176e-07
3963.81	1.05942e-06
3972.37	9.42179e-07
