Infrared Spectrum: Ethanol
Formula: C2 H5 O H
CAS: 64-17-5
State: gas
Melting point: -117.3 C
Boiling point: 78.5 C
Class: IUPAC A
Instrument: IFS66V (Bruker)
Instrument parameters: KBr Beam splitter; MCT Detector; Multipass cell
Sampling: 1 L/min Flow
Resolution: 0.2410
Temperature: 23 C
Pressure: 101.3 kPa
Origin: NIST, Anayltical Chemistry Division, 301-975-3108
cm-1	(micromol/mol)-1m-1 (base 10)
575.048	3.11473e-06
583.606	3.6558e-06
592.163	1.83375e-06
600.721	2.79333e-06
609.279	3.66149e-06
617.836	3.1936e-06
626.394	3.10259e-06
634.951	2.69473e-06
643.509	2.50644e-06
652.067	1.80873e-06
660.624	1.01581e-06
669.182	2.10245e-06
677.74	1.43496e-06
686.297	7.68753e-07
694.855	9.33196e-07
703.412	6.39048e-07
711.97	4.03698e-07
720.528	6.16286e-07
729.085	6.1747e-07
737.643	8.15425e-07
746.201	7.88246e-07
754.758	1.02837e-06
763.316	1.36522e-06
771.873	2.10567e-06
780.431	3.21938e-06
788.989	4.10773e-06
797.546	4.92168e-06
806.104	4.2226e-06
814.662	3.86634e-06
823.219	4.23395e-06
831.777	3.73975e-06
840.334	4.8978e-06
848.892	9.42631e-06
857.45	1.93994e-05
866.007	3.54207e-05
874.565	3.45318e-05
883.123	4.42222e-05
891.68	6.14718e-05
900.238	4.04877e-05
908.795	2.41776e-05
917.353	1.07757e-05
925.911	6.32824e-06
934.468	4.74301e-06
943.026	3.99808e-06
951.584	3.8082e-06
960.141	4.84485e-06
968.699	5.73601e-06
977.256	8.34927e-06
985.814	1.31161e-05
994.372	2.20956e-05
1002.93	4.02451e-05
1011.49	7.58619e-05
1020.04	9.66915e-05
1028.6	0.000131704
1037.16	0.000205571
1045.72	0.000245505
1054.28	0.000258553
1062.83	0.000238602
1071.39	0.000246573
1079.95	0.000233642
1088.51	0.000155152
1097.06	9.83642e-05
1105.62	8.10782e-05
1114.18	4.82837e-05
1122.74	2.80946e-05
1131.29	2.06365e-05
1139.85	1.3713e-05
1148.41	1.07355e-05
1156.97	1.00258e-05
1165.52	1.01462e-05
1174.08	1.06901e-05
1182.64	1.32688e-05
1191.2	1.59396e-05
1199.75	2.04679e-05
1208.31	2.82048e-05
1216.87	4.51894e-05
1225.43	6.55232e-05
1233.99	6.42603e-05
1242.54	6.02837e-05
1251.1	7.08791e-05
1259.66	6.50818e-05
1268.22	4.09396e-05
1276.77	2.71308e-05
1285.33	1.95328e-05
1293.89	1.64583e-05
1302.45	1.47932e-05
1311	1.50181e-05
1319.56	1.5101e-05
1328.12	1.5484e-05
1336.68	1.70226e-05
1345.23	1.87342e-05
1353.79	2.4335e-05
1362.35	3.50416e-05
1370.91	5.66631e-05
1379.46	8.19228e-05
1388.02	7.17985e-05
1396.58	7.10088e-05
1405.14	9.7108e-05
1413.7	7.32326e-05
1422.25	4.04191e-05
1430.81	2.89832e-05
1439.37	2.78173e-05
1447.93	2.91995e-05
1456.48	2.2141e-05
1465.04	1.95774e-05
1473.6	1.94989e-05
1482.16	1.71009e-05
1490.71	1.32234e-05
1499.27	1.00995e-05
1507.83	7.32828e-06
1516.39	4.48414e-06
1524.94	2.73338e-06
1533.5	1.82134e-06
1542.06	1.02417e-06
1550.62	6.91921e-07
1559.18	7.11841e-07
1567.73	4.90706e-07
1576.29	4.01532e-07
1584.85	3.36854e-07
1593.41	2.91765e-07
1601.96	4.26042e-07
1610.52	4.92451e-07
1619.08	3.49565e-07
1627.64	3.98114e-07
1636.19	3.25639e-07
1644.75	3.70685e-07
1653.31	2.3714e-07
1661.87	4.30572e-07
1670.42	5.78277e-07
1678.98	5.14749e-07
1687.54	4.44291e-07
1696.1	4.29758e-07
1704.65	4.36223e-07
1713.21	3.76e-07
1721.77	5.44748e-07
1730.33	1.69691e-07
1738.89	3.96727e-07
1747.44	4.39238e-07
1756	7.01664e-07
1764.56	4.69824e-07
1773.12	5.48579e-07
1781.67	3.98837e-07
1790.23	1.55436e-07
1798.79	7.55064e-08
1807.35	2.37988e-08
1815.9	-1.53148e-07
1824.46	-1.50114e-07
1833.02	-2.61834e-07
1841.58	-1.54378e-07
1850.13	-1.58383e-07
1858.69	-6.29383e-08
1867.25	4.36077e-08
1875.81	1.88478e-07
1884.36	4.63743e-07
1892.92	9.08513e-07
1901.48	1.80537e-06
1910.04	2.3909e-06
1918.6	2.95518e-06
1927.15	3.81725e-06
1935.71	3.4214e-06
1944.27	3.44843e-06
1952.83	2.15644e-06
1961.38	1.39356e-06
1969.94	8.56088e-07
1978.5	7.20692e-07
1987.06	5.57763e-07
1995.61	2.2027e-07
2004.17	-9.9393e-08
2012.73	-2.05302e-07
2021.29	-2.50618e-07
2029.84	-3.95924e-07
2038.4	-3.71821e-07
2046.96	-4.15671e-07
2055.52	-3.99566e-07
2064.08	-9.55468e-08
2072.63	-1.56618e-07
2081.19	8.55907e-08
2089.75	4.68779e-07
2098.31	8.83081e-07
2106.86	1.31321e-06
2115.42	1.67762e-06
2123.98	1.85225e-06
2132.54	1.12796e-06
2141.09	6.85308e-07
2149.65	2.84858e-07
2158.21	1.42546e-06
2166.77	2.16237e-07
2175.32	4.26296e-07
2183.88	5.32756e-07
2192.44	2.88129e-07
2201	3.49099e-08
2209.55	2.88143e-07
2218.11	7.7098e-08
2226.67	3.90956e-07
2235.23	3.76488e-07
2243.79	8.80343e-07
2252.34	1.20889e-06
2260.9	1.65353e-06
2269.46	1.34995e-06
2278.02	1.44781e-06
2286.57	1.29262e-06
2295.13	7.7982e-07
2303.69	7.37024e-07
2312.25	7.64869e-07
2320.8	1.18614e-06
2329.36	9.73273e-07
2337.92	1.88749e-06
2346.48	8.41214e-07
2355.03	8.55645e-07
2363.59	8.97992e-07
2372.15	9.34808e-07
2380.71	1.34521e-06
2389.26	1.10601e-06
2397.82	1.50374e-06
2406.38	1.57652e-06
2414.94	1.76564e-06
2423.5	1.44642e-06
2432.05	1.3159e-06
2440.61	1.00711e-06
2449.17	7.48712e-07
2457.73	8.56049e-07
2466.28	9.90067e-07
2474.84	1.0002e-06
2483.4	9.65156e-07
2491.96	1.04984e-06
2500.51	6.82562e-07
2509.07	6.67724e-07
2517.63	6.91601e-07
2526.19	5.62746e-07
2534.74	5.80456e-07
2543.3	6.2538e-07
2551.86	5.35691e-07
2560.42	7.61733e-07
2568.98	7.7667e-07
2577.53	1.03189e-06
2586.09	1.24335e-06
2594.65	1.56074e-06
2603.21	1.59331e-06
2611.76	1.80556e-06
2620.32	2.29679e-06
2628.88	2.38255e-06
2637.44	2.59632e-06
2645.99	2.99162e-06
2654.55	3.30452e-06
2663.11	3.46801e-06
2671.67	3.61573e-06
2680.22	3.75513e-06
2688.78	3.88726e-06
2697.34	4.39523e-06
2705.9	5.18359e-06
2714.45	5.86062e-06
2723.01	6.95627e-06
2731.57	7.87442e-06
2740.13	9.27138e-06
2748.69	1.01445e-05
2757.24	1.0745e-05
2765.8	1.13369e-05
2774.36	1.23835e-05
2782.92	1.3765e-05
2791.47	1.5202e-05
2800.03	1.71473e-05
2808.59	1.80961e-05
2817.15	2.08011e-05
2825.7	2.47639e-05
2834.26	3.06469e-05
2842.82	4.03938e-05
2851.38	5.56967e-05
2859.93	7.87616e-05
2868.49	0.000107496
2877.05	0.000124074
2885.61	0.000151227
2894.16	0.000157988
2902.72	0.00017206
2911.28	0.000168219
2919.84	0.000150088
2928.4	0.000143242
2936.95	0.000139425
2945.51	0.00014523
2954.07	0.000161664
2962.63	0.000184329
2971.18	0.000216701
2979.74	0.000203796
2988.3	0.000212005
2996.86	0.000171296
3005.41	0.000129049
3013.97	8.65192e-05
3022.53	5.24998e-05
3031.09	2.78541e-05
3039.64	1.26366e-05
3048.2	5.09985e-06
3056.76	1.76827e-06
3065.32	1.10249e-06
3073.88	7.52775e-07
3082.43	5.53487e-07
3090.99	7.51517e-07
3099.55	5.16897e-07
3108.11	7.89934e-07
3116.66	5.71828e-07
3125.22	7.08413e-07
3133.78	8.02159e-07
3142.34	5.44455e-07
3150.89	7.00025e-07
3159.45	9.67865e-07
3168.01	1.23275e-06
3176.57	1.00702e-06
3185.12	1.39963e-06
3193.68	1.24751e-06
3202.24	1.62588e-06
3210.8	1.94473e-06
3219.35	1.9244e-06
3227.91	2.12253e-06
3236.47	1.66942e-06
3245.03	9.95741e-07
3253.59	1.02221e-06
3262.14	2.53879e-07
3270.7	1.76923e-07
3279.26	-6.18674e-08
3287.82	-2.36287e-07
3296.37	-3.22054e-07
3304.93	-1.48275e-07
3313.49	-4.97695e-07
3322.05	-3.3506e-07
3330.6	-1.74577e-07
3339.16	-2.03104e-07
3347.72	-2.11064e-07
3356.28	-1.12955e-07
3364.83	-4.04878e-08
3373.39	3.33305e-07
3381.95	4.91986e-07
3390.51	9.21443e-07
3399.06	9.13494e-07
3407.62	7.85309e-07
3416.18	1.56461e-06
3424.74	1.18902e-06
3433.3	8.25972e-07
3441.85	9.78793e-07
3450.41	1.11607e-06
3458.97	1.07138e-06
3467.53	1.35218e-06
3476.08	1.40615e-06
3484.64	1.45975e-06
3493.2	1.30503e-06
3501.76	1.22856e-06
3510.31	9.12579e-07
3518.87	1.00926e-06
3527.43	6.21732e-07
3535.99	5.81353e-07
3544.54	7.25888e-07
3553.1	7.71611e-07
3561.66	1.02414e-06
3570.22	1.01871e-06
3578.78	6.29458e-07
3587.33	7.86547e-07
3595.89	1.83472e-06
3604.45	2.85552e-06
3613.01	4.44739e-06
3621.56	7.29738e-06
3630.12	1.21017e-05
3638.68	2.01424e-05
3647.24	3.11421e-05
3655.79	5.03737e-05
3664.35	5.10413e-05
3672.91	5.179e-05
3681.47	4.27941e-05
3690.02	4.34689e-05
3698.58	2.74326e-05
3707.14	1.16104e-05
3715.7	5.19894e-06
3724.25	2.97053e-06
3732.81	1.96081e-06
3741.37	1.43659e-06
3749.93	1.50414e-06
3758.49	1.57494e-06
3767.04	1.02054e-06
3775.6	1.54451e-06
3784.16	1.86268e-06
3792.72	1.91445e-06
3801.27	1.79228e-06
3809.83	1.73069e-06
3818.39	1.70379e-06
3826.95	1.98417e-06
3835.5	2.38108e-06
3844.06	2.36777e-06
3852.62	2.3172e-06
3861.18	2.46493e-06
3869.73	2.04204e-06
3878.29	1.66779e-06
3886.85	2.707e-06
3895.41	1.61561e-06
3903.96	1.46713e-06
3912.52	1.27339e-06
3921.08	1.04747e-06
3929.64	9.91328e-07
3938.2	7.10104e-07
3946.75	9.06541e-07
3955.31	1.0572e-06
3963.87	1.06586e-06
3972.43	1.10984e-06
