Infrared Spectrum: Ethanol
Formula: C2 H5 O H
CAS: 64-17-5
State: gas
Melting point: -117.3 C
Boiling point: 78.5 C
Class: IUPAC A
Instrument: IFS66V (Bruker)
Instrument parameters: KBr Beam splitter; MCT Detector; Multipass cell
Sampling: 1 L/min Flow
Resolution: 0.9640
Temperature: 23 C
Pressure: 101.3 kPa
Origin: NIST, Anayltical Chemistry Division, 301-975-3108
cm-1	(micromol/mol)-1m-1 (base 10)
575.169	2.19584e-06
583.847	2.96939e-06
592.525	2.29732e-06
601.203	2.53051e-06
609.882	2.69169e-06
618.56	2.4421e-06
627.238	2.84193e-06
635.916	2.54353e-06
644.594	2.52414e-06
653.272	1.74629e-06
661.951	1.69417e-06
670.629	1.28274e-06
679.307	1.48581e-06
687.985	1.04908e-06
696.663	7.81874e-07
705.341	5.29326e-07
714.019	3.67549e-07
722.698	5.16092e-07
731.376	8.05093e-07
740.054	7.90063e-07
748.732	7.18803e-07
757.41	1.00904e-06
766.088	1.53167e-06
774.767	2.57289e-06
783.445	3.50741e-06
792.123	3.84243e-06
800.801	6.92364e-06
809.479	4.01917e-06
818.157	3.90719e-06
826.835	4.02896e-06
835.514	4.26263e-06
844.192	6.31042e-06
852.87	1.32975e-05
861.548	2.74161e-05
870.226	3.81407e-05
878.904	5.57881e-05
887.583	3.68176e-05
896.261	4.26236e-05
904.939	3.2299e-05
913.617	1.53906e-05
922.295	7.56671e-06
930.973	5.21875e-06
939.651	4.36189e-06
948.33	4.02659e-06
957.008	4.1777e-06
965.686	5.2412e-06
974.364	7.31517e-06
983.042	1.10556e-05
991.72	1.90372e-05
1000.4	3.53286e-05
1009.08	6.3673e-05
1017.75	9.13511e-05
1026.43	0.000134703
1035.11	0.000160193
1043.79	0.000234198
1052.47	0.000264088
1061.15	0.00022937
1069.82	0.000235224
1078.5	0.000248595
1087.18	0.000164097
1095.86	9.81447e-05
1104.54	8.52474e-05
1113.21	5.11093e-05
1121.89	2.90937e-05
1130.57	1.97577e-05
1139.25	1.40611e-05
1147.93	1.0818e-05
1156.61	1.00297e-05
1165.28	1.01739e-05
1173.96	1.07002e-05
1182.64	1.31061e-05
1191.32	1.62065e-05
1200	2.07719e-05
1208.67	2.86422e-05
1217.35	4.65707e-05
1226.03	6.97396e-05
1234.71	6.36814e-05
1243.39	6.28027e-05
1252.07	7.45186e-05
1260.74	6.11601e-05
1269.42	3.78419e-05
1278.1	2.55799e-05
1286.78	1.89395e-05
1295.46	1.61373e-05
1304.13	1.52471e-05
1312.81	1.49759e-05
1321.49	1.56185e-05
1330.17	1.57234e-05
1338.85	1.7584e-05
1347.52	2.0111e-05
1356.2	2.66363e-05
1364.88	4.07867e-05
1373.56	6.44383e-05
1382.24	8.55212e-05
1390.92	7.57751e-05
1399.59	7.64895e-05
1408.27	9.47221e-05
1416.95	5.71813e-05
1425.63	3.44145e-05
1434.31	2.83743e-05
1442.98	2.78511e-05
1451.66	3.23576e-05
1460.34	2.13201e-05
1469.02	1.96479e-05
1477.7	1.94237e-05
1486.38	1.41237e-05
1495.05	1.11191e-05
1503.73	8.63928e-06
1512.41	5.70154e-06
1521.09	3.43739e-06
1529.77	2.10412e-06
1538.44	1.31279e-06
1547.12	8.27712e-07
1555.8	6.434e-07
1564.48	5.11897e-07
1573.16	4.3085e-07
1581.83	4.07962e-07
1590.51	4.14425e-07
1599.19	3.70853e-07
1607.87	3.74625e-07
1616.55	3.17229e-07
1625.23	3.0993e-07
1633.9	3.39134e-07
1642.58	3.63828e-07
1651.26	4.13915e-07
1659.94	3.94476e-07
1668.62	4.26534e-07
1677.29	4.35157e-07
1685.97	5.21619e-07
1694.65	4.17851e-07
1703.33	4.55577e-07
1712.01	3.54093e-07
1720.69	3.55237e-07
1729.36	3.54181e-07
1738.04	3.98726e-07
1746.72	4.62041e-07
1755.4	5.50578e-07
1764.08	6.08438e-07
1772.75	6.28558e-07
1781.43	4.42616e-07
1790.11	2.712e-07
1798.79	1.26916e-07
1807.47	-3.27604e-08
1816.15	-1.18427e-07
1824.82	-1.68883e-07
1833.5	-1.61056e-07
1842.18	-1.95346e-07
1850.86	-1.18297e-07
1859.54	-8.99048e-08
1868.21	3.32419e-08
1876.89	2.00153e-07
1885.57	5.5958e-07
1894.25	1.17512e-06
1902.93	2.04851e-06
1911.6	2.59662e-06
1920.28	3.29591e-06
1928.96	3.67954e-06
1937.64	3.34635e-06
1946.32	3.1986e-06
1955	1.92813e-06
1963.67	1.23891e-06
1972.35	7.30858e-07
1981.03	4.79977e-07
1989.71	5.11535e-07
1998.39	8.41774e-08
2007.06	-1.9493e-07
2015.74	-3.14329e-07
2024.42	-3.13903e-07
2033.1	-3.44495e-07
2041.78	-2.88402e-07
2050.46	-2.33047e-07
2059.13	-1.55528e-07
2067.81	-1.43186e-07
2076.49	1.44216e-08
2085.17	2.13223e-07
2093.85	6.36389e-07
2102.52	1.158e-06
2111.2	1.89785e-06
2119.88	1.90699e-06
2128.56	1.45957e-06
2137.24	1.00586e-06
2145.91	4.91896e-07
2154.59	7.091e-07
2163.27	2.60476e-07
2171.95	3.80357e-07
2180.63	4.24912e-07
2189.31	4.52394e-07
2197.98	1.33613e-07
2206.66	1.29774e-07
2215.34	1.57204e-09
2224.02	1.90522e-07
2232.7	3.91537e-07
2241.37	7.57239e-07
2250.05	1.23345e-06
2258.73	1.24096e-06
2267.41	1.43833e-06
2276.09	1.46222e-06
2284.77	1.35596e-06
2293.44	8.8685e-07
2302.12	8.37099e-07
2310.8	1.0337e-06
2319.48	1.40909e-06
2328.16	1.92177e-06
2336.83	1.18326e-06
2345.51	1.39592e-06
2354.19	1.93077e-06
2362.87	2.82994e-06
2371.55	1.74347e-06
2380.23	1.19732e-06
2388.9	1.22495e-06
2397.58	1.40845e-06
2406.26	1.62357e-06
2414.94	1.68278e-06
2423.62	1.43744e-06
2432.29	1.22358e-06
2440.97	1.07059e-06
2449.65	8.44082e-07
2458.33	9.05848e-07
2467.01	9.54476e-07
2475.68	9.57194e-07
2484.36	1.14557e-06
2493.04	9.4749e-07
2501.72	7.174e-07
2510.4	6.25442e-07
2519.08	6.22813e-07
2527.75	5.20031e-07
2536.43	4.80641e-07
2545.11	5.92921e-07
2553.79	6.68285e-07
2562.47	6.73303e-07
2571.14	8.94645e-07
2579.82	1.08888e-06
2588.5	1.22601e-06
2597.18	1.54361e-06
2605.86	1.67348e-06
2614.54	1.92318e-06
2623.21	2.31183e-06
2631.89	2.5427e-06
2640.57	2.76296e-06
2649.25	3.02582e-06
2657.93	3.26724e-06
2666.6	3.53207e-06
2675.28	3.68586e-06
2683.96	3.91867e-06
2692.64	4.21201e-06
2701.32	4.73513e-06
2709.99	5.61451e-06
2718.67	6.44857e-06
2727.35	7.13541e-06
2736.03	8.48498e-06
2744.71	9.83051e-06
2753.39	1.03277e-05
2762.06	1.1199e-05
2770.74	1.1951e-05
2779.42	1.3304e-05
2788.1	1.38912e-05
2796.78	1.64389e-05
2805.45	1.7761e-05
2814.13	1.95598e-05
2822.81	2.36215e-05
2831.49	2.82992e-05
2840.17	3.75229e-05
2848.85	5.06315e-05
2857.52	7.13349e-05
2866.2	0.000101618
2874.88	0.000117321
2883.56	0.000147651
2892.24	0.000156966
2900.91	0.000210441
2909.59	0.000162704
2918.27	0.000150322
2926.95	0.000144471
2935.63	0.000140114
2944.31	0.000145398
2952.98	0.000159229
2961.66	0.000180409
2970.34	0.000212807
2979.02	0.000209284
2987.7	0.000217536
2996.37	0.000173045
3005.05	0.000132011
3013.73	8.71272e-05
3022.41	5.2739e-05
3031.09	2.78214e-05
3039.76	1.24406e-05
3048.44	4.93424e-06
3057.12	1.91196e-06
3065.8	9.77676e-07
3074.48	8.00343e-07
3083.16	6.38305e-07
3091.83	6.35912e-07
3100.51	6.77875e-07
3109.19	5.59706e-07
3117.87	6.54978e-07
3126.55	6.53763e-07
3135.22	5.67191e-07
3143.9	6.0923e-07
3152.58	7.63985e-07
3161.26	7.08186e-07
3169.94	8.85596e-07
3178.62	1.05845e-06
3187.29	1.26691e-06
3195.97	1.46051e-06
3204.65	1.8349e-06
3213.33	2.00201e-06
3222.01	2.17284e-06
3230.68	1.91691e-06
3239.36	1.84158e-06
3248.04	1.01091e-06
3256.72	7.05492e-07
3265.4	1.8486e-07
3274.07	-8.25158e-08
3282.75	-3.67684e-07
3291.43	-3.10437e-07
3300.11	-3.42099e-07
3308.79	-2.14739e-07
3317.47	-1.28491e-07
3326.14	-3.32302e-07
3334.82	-3.48525e-07
3343.5	-7.95149e-08
3352.18	-1.01251e-07
3360.86	-1.14255e-07
3369.53	2.43049e-07
3378.21	5.20299e-07
3386.89	8.73449e-07
3395.57	8.89988e-07
3404.25	1.2548e-06
3412.93	1.38722e-06
3421.6	1.16024e-06
3430.28	8.77563e-07
3438.96	1.00639e-06
3447.64	1.14616e-06
3456.32	1.31111e-06
3464.99	1.4465e-06
3473.67	2.21059e-06
3482.35	1.60913e-06
3491.03	1.40634e-06
3499.71	1.15479e-06
3508.39	1.08655e-06
3517.06	8.70926e-07
3525.74	7.90436e-07
3534.42	8.37476e-07
3543.1	7.47106e-07
3551.78	8.06116e-07
3560.45	7.81834e-07
3569.13	1.00629e-06
3577.81	8.37838e-07
3586.49	1.03868e-06
3595.17	1.72639e-06
3603.84	2.57092e-06
3612.52	4.27647e-06
3621.2	7.27723e-06
3629.88	1.17205e-05
3638.56	1.95971e-05
3647.24	3.15052e-05
3655.91	4.87962e-05
3664.59	5.17817e-05
3673.27	5.1425e-05
3681.95	4.31122e-05
3690.63	4.30127e-05
3699.3	2.59212e-05
3707.98	1.08089e-05
3716.66	4.75284e-06
3725.34	2.66982e-06
3734.02	1.7852e-06
3742.7	1.372e-06
3751.37	1.5569e-06
3760.05	1.34069e-06
3768.73	1.07661e-06
3777.41	1.45723e-06
3786.09	1.8648e-06
3794.76	1.73431e-06
3803.44	1.63171e-06
3812.12	1.73883e-06
3820.8	1.70505e-06
3829.48	2.00397e-06
3838.16	2.18253e-06
3846.83	2.49271e-06
3855.51	2.30466e-06
3864.19	2.37347e-06
3872.87	2.0799e-06
3881.55	1.93524e-06
3890.22	1.60032e-06
3898.9	1.62322e-06
3907.58	1.42976e-06
3916.26	1.13139e-06
3924.94	1.21372e-06
3933.61	8.83153e-07
3942.29	8.45156e-07
3950.97	8.69552e-07
3959.65	9.81101e-07
3968.33	1.18481e-06
