Infrared Spectrum: Ethanol
Formula: C2 H5 O H
CAS: 64-17-5
State: gas
Melting point: -117.3 C
Boiling point: 78.5 C
Class: IUPAC A
Instrument: IFS66V (Bruker)
Instrument parameters: KBr Beam splitter; MCT Detector; Multipass cell
Sampling: 1 L/min Flow
Resolution: 0.9640
Temperature: 23 C
Pressure: 101.3 kPa
Origin: NIST, Anayltical Chemistry Division, 301-975-3108
cm-1	(micromol/mol)-1m-1 (base 10)
575.169	2.26531e-06
583.847	2.9123e-06
592.525	2.30024e-06
601.203	2.54571e-06
609.882	2.68039e-06
618.56	2.4792e-06
627.238	2.81972e-06
635.916	2.55291e-06
644.594	2.50132e-06
653.272	1.76826e-06
661.951	1.68776e-06
670.629	1.33362e-06
679.307	1.47852e-06
687.985	1.06256e-06
696.663	8.13404e-07
705.341	5.56881e-07
714.019	4.00351e-07
722.698	5.50399e-07
731.376	8.07947e-07
740.054	8.03521e-07
748.732	7.62566e-07
757.41	1.04528e-06
766.088	1.57488e-06
774.767	2.60047e-06
783.445	3.5276e-06
792.123	3.88358e-06
800.801	6.69681e-06
809.479	4.09517e-06
818.157	3.9782e-06
826.835	4.09165e-06
835.514	4.3476e-06
844.192	6.4376e-06
852.87	1.3404e-05
861.548	2.73584e-05
870.226	3.78877e-05
878.904	5.36481e-05
887.583	3.69633e-05
896.261	4.24386e-05
904.939	3.21988e-05
913.617	1.55537e-05
922.295	7.74118e-06
930.973	5.37218e-06
939.651	4.50172e-06
948.33	4.17252e-06
957.008	4.33982e-06
965.686	5.43314e-06
974.364	7.55108e-06
983.042	1.13404e-05
991.72	1.93727e-05
1000.4	3.56904e-05
1009.08	6.38852e-05
1017.75	9.14795e-05
1026.43	0.000134271
1035.11	0.000160884
1043.79	0.000233109
1052.47	0.000262602
1061.15	0.000230656
1069.82	0.000236145
1078.5	0.000246891
1087.18	0.000164092
1095.86	9.87219e-05
1104.54	8.5151e-05
1113.21	5.14305e-05
1121.89	2.94566e-05
1130.57	2.003e-05
1139.25	1.43159e-05
1147.93	1.10377e-05
1156.61	1.02118e-05
1165.28	1.03065e-05
1173.96	1.08526e-05
1182.64	1.32371e-05
1191.32	1.63577e-05
1200	2.09389e-05
1208.67	2.88612e-05
1217.35	4.65198e-05
1226.03	6.92991e-05
1234.71	6.35855e-05
1243.39	6.34845e-05
1252.07	7.41264e-05
1260.74	6.08761e-05
1269.42	3.79919e-05
1278.1	2.5717e-05
1286.78	1.90727e-05
1295.46	1.62396e-05
1304.13	1.53241e-05
1312.81	1.50595e-05
1321.49	1.5694e-05
1330.17	1.58266e-05
1338.85	1.76722e-05
1347.52	2.0245e-05
1356.2	2.68038e-05
1364.88	4.08664e-05
1373.56	6.42797e-05
1382.24	8.49358e-05
1390.92	7.65111e-05
1399.59	7.67728e-05
1408.27	9.39272e-05
1416.95	5.72413e-05
1425.63	3.46153e-05
1434.31	2.85049e-05
1442.98	2.79344e-05
1451.66	3.25008e-05
1460.34	2.14138e-05
1469.02	1.96887e-05
1477.7	1.93851e-05
1486.38	1.41949e-05
1495.05	1.11927e-05
1503.73	8.66795e-06
1512.41	5.75244e-06
1521.09	3.49139e-06
1529.77	2.15278e-06
1538.44	1.35379e-06
1547.12	8.66397e-07
1555.8	6.74479e-07
1564.48	5.39284e-07
1573.16	4.56715e-07
1581.83	4.28029e-07
1590.51	4.35466e-07
1599.19	3.94482e-07
1607.87	3.95976e-07
1616.55	3.35258e-07
1625.23	3.31487e-07
1633.9	3.51896e-07
1642.58	3.8022e-07
1651.26	4.2522e-07
1659.94	4.0645e-07
1668.62	4.38971e-07
1677.29	4.48773e-07
1685.97	5.26864e-07
1694.65	4.31328e-07
1703.33	4.60274e-07
1712.01	3.66316e-07
1720.69	3.6339e-07
1729.36	3.65267e-07
1738.04	4.09794e-07
1746.72	4.74377e-07
1755.4	5.54079e-07
1764.08	6.1211e-07
1772.75	6.29613e-07
1781.43	4.49096e-07
1790.11	2.77988e-07
1798.79	1.32463e-07
1807.47	-2.4621e-08
1816.15	-1.12884e-07
1824.82	-1.6225e-07
1833.5	-1.53465e-07
1842.18	-1.858e-07
1850.86	-1.15566e-07
1859.54	-8.01011e-08
1868.21	3.93464e-08
1876.89	2.12898e-07
1885.57	5.68379e-07
1894.25	1.18206e-06
1902.93	2.03992e-06
1911.6	2.60238e-06
1920.28	3.28478e-06
1928.96	3.68307e-06
1937.64	3.35365e-06
1946.32	3.17963e-06
1955	1.93593e-06
1963.67	1.24542e-06
1972.35	7.43317e-07
1981.03	4.95681e-07
1989.71	5.10143e-07
1998.39	9.43795e-08
2007.06	-1.83623e-07
2015.74	-3.02748e-07
2024.42	-3.04817e-07
2033.1	-3.36311e-07
2041.78	-2.79771e-07
2050.46	-2.3192e-07
2059.13	-1.53346e-07
2067.81	-1.33947e-07
2076.49	2.29053e-08
2085.17	2.30173e-07
2093.85	6.49574e-07
2102.52	1.146e-06
2111.2	1.85415e-06
2119.88	1.86687e-06
2128.56	1.44815e-06
2137.24	1.0132e-06
2145.91	5.04181e-07
2154.59	6.91624e-07
2163.27	3.0099e-07
2171.95	3.83963e-07
2180.63	4.32222e-07
2189.31	4.4848e-07
2197.98	1.63303e-07
2206.66	1.33773e-07
2215.34	1.64871e-08
2224.02	1.97802e-07
2232.7	3.99676e-07
2241.37	7.65683e-07
2250.05	1.22904e-06
2258.73	1.2557e-06
2267.41	1.44042e-06
2276.09	1.46584e-06
2284.77	1.35281e-06
2293.44	8.97244e-07
2302.12	8.42993e-07
2310.8	1.04136e-06
2319.48	1.42379e-06
2328.16	1.88513e-06
2336.83	1.19849e-06
2345.51	1.40849e-06
2354.19	1.93724e-06
2362.87	2.89432e-06
2371.55	1.77476e-06
2380.23	1.21186e-06
2388.9	1.23552e-06
2397.58	1.40952e-06
2406.26	1.6204e-06
2414.94	1.68121e-06
2423.62	1.43743e-06
2432.29	1.23086e-06
2440.97	1.07373e-06
2449.65	8.60891e-07
2458.33	9.19748e-07
2467.01	9.60289e-07
2475.68	9.72085e-07
2484.36	1.13735e-06
2493.04	9.54564e-07
2501.72	7.27331e-07
2510.4	6.37503e-07
2519.08	6.32888e-07
2527.75	5.34155e-07
2536.43	4.97853e-07
2545.11	6.10653e-07
2553.79	6.86079e-07
2562.47	6.9566e-07
2571.14	9.12358e-07
2579.82	1.10561e-06
2588.5	1.2477e-06
2597.18	1.56095e-06
2605.86	1.69065e-06
2614.54	1.93956e-06
2623.21	2.32433e-06
2631.89	2.55487e-06
2640.57	2.77838e-06
2649.25	3.04631e-06
2657.93	3.29059e-06
2666.6	3.55585e-06
2675.28	3.71174e-06
2683.96	3.94603e-06
2692.64	4.24405e-06
2701.32	4.7691e-06
2709.99	5.64122e-06
2718.67	6.4801e-06
2727.35	7.18088e-06
2736.03	8.52049e-06
2744.71	9.85516e-06
2753.39	1.03794e-05
2762.06	1.12468e-05
2770.74	1.2012e-05
2779.42	1.33547e-05
2788.1	1.40023e-05
2796.78	1.65053e-05
2805.45	1.7855e-05
2814.13	1.96923e-05
2822.81	2.37478e-05
2831.49	2.84775e-05
2840.17	3.76868e-05
2848.85	5.08163e-05
2857.52	7.14525e-05
2866.2	0.000101356
2874.88	0.000117376
2883.56	0.000147092
2892.24	0.000156507
2900.91	0.000206273
2909.59	0.000162546
2918.27	0.000150264
2926.95	0.00014442
2935.63	0.000140042
2944.31	0.000145301
2952.98	0.000159184
2961.66	0.000180306
2970.34	0.000212056
2979.02	0.000208802
2987.7	0.000216869
2996.37	0.000172333
3005.05	0.000131732
3013.73	8.72179e-05
3022.41	5.29837e-05
3031.09	2.81396e-05
3039.76	1.27635e-05
3048.44	5.20506e-06
3057.12	2.12297e-06
3065.8	1.13576e-06
3074.48	9.14811e-07
3083.16	7.3841e-07
3091.83	7.2311e-07
3100.51	7.46126e-07
3109.19	6.22656e-07
3117.87	7.01748e-07
3126.55	7.00971e-07
3135.22	6.1521e-07
3143.9	6.51772e-07
3152.58	7.95826e-07
3161.26	7.50101e-07
3169.94	9.13167e-07
3178.62	1.0853e-06
3187.29	1.29835e-06
3195.97	1.49442e-06
3204.65	1.85482e-06
3213.33	2.02289e-06
3222.01	2.1803e-06
3230.68	1.92787e-06
3239.36	1.82603e-06
3248.04	1.03162e-06
3256.72	7.15322e-07
3265.4	1.9757e-07
3274.07	-5.93649e-08
3282.75	-3.342e-07
3291.43	-2.85182e-07
3300.11	-3.17123e-07
3308.79	-2.00556e-07
3317.47	-1.3173e-07
3326.14	-3.08453e-07
3334.82	-3.1891e-07
3343.5	-8.0408e-08
3352.18	-8.85515e-08
3360.86	-9.70292e-08
3369.53	2.57546e-07
3378.21	5.28645e-07
3386.89	8.7759e-07
3395.57	9.06582e-07
3404.25	1.25144e-06
3412.93	1.38321e-06
3421.6	1.16309e-06
3430.28	8.98734e-07
3438.96	1.01788e-06
3447.64	1.15054e-06
3456.32	1.31808e-06
3464.99	1.44866e-06
3473.67	2.17335e-06
3482.35	1.60676e-06
3491.03	1.41475e-06
3499.71	1.17272e-06
3508.39	1.08846e-06
3517.06	8.77527e-07
3525.74	8.00235e-07
3534.42	8.50079e-07
3543.1	7.67631e-07
3551.78	8.2848e-07
3560.45	8.10336e-07
3569.13	1.02354e-06
3577.81	8.62951e-07
3586.49	1.07544e-06
3595.17	1.75533e-06
3603.84	2.61904e-06
3612.52	4.33959e-06
3621.2	7.34584e-06
3629.88	1.17955e-05
3638.56	1.96468e-05
3647.24	3.14689e-05
3655.91	4.82904e-05
3664.59	5.16571e-05
3673.27	5.16581e-05
3681.95	4.33008e-05
3690.63	4.27489e-05
3699.3	2.59093e-05
3707.98	1.09537e-05
3716.66	4.88411e-06
3725.34	2.75634e-06
3734.02	1.85164e-06
3742.7	1.42071e-06
3751.37	1.5762e-06
3760.05	1.36908e-06
3768.73	1.11053e-06
3777.41	1.47433e-06
3786.09	1.87713e-06
3794.76	1.74722e-06
3803.44	1.63921e-06
3812.12	1.74043e-06
3820.8	1.71124e-06
3829.48	2.01556e-06
3838.16	2.1986e-06
3846.83	2.49516e-06
3855.51	2.31126e-06
3864.19	2.37149e-06
3872.87	2.08106e-06
3881.55	1.95223e-06
3890.22	1.6279e-06
3898.9	1.62408e-06
3907.58	1.43929e-06
3916.26	1.14889e-06
3924.94	1.21099e-06
3933.61	8.89808e-07
3942.29	8.53599e-07
3950.97	8.85699e-07
3959.65	1.00031e-06
3968.33	1.19061e-06
