Infrared Spectrum: Ethanol
Formula: C2 H5 O H
CAS: 64-17-5
State: gas
Melting point: -117.3 C
Boiling point: 78.5 C
Class: IUPAC A
Instrument: IFS66V (Bruker)
Instrument parameters: KBr Beam splitter; MCT Detector; Multipass cell
Sampling: 1 L/min Flow
Resolution: 0.1250
Temperature: 23 C
Pressure: 101.3 kPa
Origin: NIST, Anayltical Chemistry Division, 301-975-3108
cm-1	(micromol/mol)-1m-1 (base 10)
3975.02	9.47968e-07
3966.46	1.57995e-06
3957.9	6.65177e-07
3949.34	1.06696e-06
3940.79	8.13473e-07
3932.23	1.09196e-06
3923.67	1.27396e-06
3915.11	1.21596e-06
3906.56	1.47595e-06
3898	2.24793e-06
3889.44	1.75794e-06
3880.88	2.12493e-06
3872.33	1.68094e-06
3863.77	2.44292e-06
3855.21	2.67891e-06
3846.65	2.19593e-06
3838.09	2.66591e-06
3829.54	2.69991e-06
3820.98	1.58995e-06
3812.42	2.00993e-06
3803.86	2.02993e-06
3795.31	1.71194e-06
3786.75	1.81994e-06
3778.19	1.31896e-06
3769.63	8.48371e-07
3761.08	1.56895e-06
3752.52	1.39695e-06
3743.96	1.09696e-06
3735.4	1.60995e-06
3726.85	2.24193e-06
3718.29	4.35785e-06
3709.73	9.44368e-06
3701.17	2.19893e-05
3692.62	4.08186e-05
3684.06	5.25282e-05
3675.5	6.90877e-05
3666.94	5.19183e-05
3658.38	5.43982e-05
3649.83	3.65988e-05
3641.27	2.30292e-05
3632.71	1.33196e-05
3624.15	9.19169e-06
3615.6	5.26582e-06
3607.04	2.51591e-06
3598.48	1.49395e-06
3589.92	9.96967e-07
3581.37	2.72691e-07
3572.81	8.53271e-07
3564.25	4.60884e-07
3555.69	1.26696e-06
3547.14	1.06596e-06
3538.58	1.13996e-07
3530.02	4.77684e-07
3521.46	5.15282e-07
3512.91	1.34995e-06
3504.35	1.61695e-06
3495.79	1.48995e-06
3487.23	1.71094e-06
3478.67	1.56095e-06
3470.12	1.51395e-06
3461.56	9.43368e-07
3453	1.58295e-06
3444.44	5.73681e-07
3435.89	1.05396e-06
3427.33	1.15296e-06
3418.77	1.16196e-06
3410.21	1.59695e-06
3401.66	1.10496e-06
3393.1	1.23596e-06
3384.54	3.91987e-07
3375.98	-9.64065e-08
3367.43	2.08493e-07
3358.87	-1.39395e-07
3350.31	2.42891e-07
3341.75	-8.49772e-07
3333.2	-7.45875e-07
3324.64	6.39278e-08
3316.08	-4.91783e-07
3307.52	-1.35795e-07
3298.96	-8.68171e-07
3290.41	-6.32279e-07
3281.85	-6.35658e-09
3273.29	-2.61391e-07
3264.73	-8.15469e-08
3256.18	6.74377e-07
3247.62	1.28096e-06
3239.06	1.86794e-06
3230.5	1.61295e-06
3221.95	1.59395e-06
3213.39	1.45495e-06
3204.83	2.29092e-06
3196.27	1.50895e-06
3187.72	1.17796e-06
3179.16	1.12496e-06
3170.6	1.26696e-06
3162.04	9.67867e-07
3153.48	2.8429e-07
3144.93	6.23279e-07
3136.37	3.86287e-07
3127.81	6.37978e-07
3119.25	1.34695e-07
3110.7	1.83494e-07
3102.14	4.01286e-07
3093.58	5.62181e-07
3085.02	5.20282e-07
3076.47	9.69767e-07
3067.91	7.81774e-07
3059.35	1.28396e-06
3050.79	3.81487e-06
3042.24	9.73267e-06
3033.68	2.26292e-05
3025.12	4.38185e-05
3016.56	7.45375e-05
3008.01	0.000116296
2999.45	0.000160295
2990.89	0.000185494
2982.33	0.000203793
2973.77	0.000215693
2965.22	0.000193094
2956.66	0.000170394
2948.1	0.000144795
2939.54	0.000139195
2930.99	0.000139895
2922.43	0.000150295
2913.87	0.000156595
2905.31	0.000169094
2896.76	0.000156995
2888.2	0.000147895
2879.64	0.000131696
2871.08	0.000112396
2862.53	8.81071e-05
2853.97	6.25279e-05
2845.41	4.46685e-05
2836.85	3.35289e-05
2828.3	2.59291e-05
2819.74	2.26992e-05
2811.18	1.88194e-05
2802.62	1.70794e-05
2794.06	1.60895e-05
2785.51	1.36295e-05
2776.95	1.28996e-05
2768.39	1.14496e-05
2759.83	1.10496e-05
2751.28	1.04197e-05
2742.72	9.70068e-06
2734.16	8.12773e-06
2725.6	6.53978e-06
2717.05	6.56678e-06
2708.49	5.49382e-06
2699.93	4.71984e-06
2691.37	4.01987e-06
2682.82	3.94387e-06
2674.26	3.50288e-06
2665.7	3.36489e-06
2657.14	3.14789e-06
2648.59	3.26589e-06
2640.03	2.9909e-06
2631.47	2.19993e-06
2622.91	2.25992e-06
2614.35	2.12393e-06
2605.8	1.58995e-06
2597.24	1.22396e-06
2588.68	1.26996e-06
2580.12	8.73671e-07
2571.57	9.12669e-07
2563.01	8.8967e-07
2554.45	8.30872e-07
2545.89	5.9838e-07
2537.34	8.64671e-07
2528.78	4.58585e-07
2520.22	2.32692e-07
2511.66	3.47688e-07
2503.11	9.23969e-07
2494.55	9.82767e-07
2485.99	8.67871e-07
2477.43	9.06069e-07
2468.87	8.9617e-07
2460.32	9.76867e-07
2451.76	1.03897e-06
2443.2	1.01597e-06
2434.64	1.24896e-06
2426.09	1.25796e-06
2417.53	1.10996e-06
2408.97	1.64394e-06
2400.41	1.40895e-06
2391.86	1.21396e-06
2383.3	1.13396e-06
2374.74	3.14189e-06
2366.18	1.07196e-06
2357.63	1.55295e-06
2349.07	1.03297e-06
2340.51	1.26596e-06
2331.95	7.58974e-07
2323.4	1.41595e-06
2314.84	7.76674e-07
2306.28	3.47188e-07
2297.72	8.20872e-07
2289.16	1.15096e-06
2280.61	1.35995e-06
2272.05	1.91594e-06
2263.49	1.44895e-06
2254.93	1.39195e-06
2246.38	9.30669e-07
2237.82	6.33979e-07
2229.26	1.32695e-07
2220.7	1.70194e-07
2212.15	6.30877e-08
2203.59	9.18768e-08
2195.03	4.18886e-07
2186.47	9.35369e-07
2177.92	-2.5879e-08
2169.36	9.60068e-07
2160.8	2.32392e-07
2152.24	3.0449e-07
2143.69	6.82577e-07
2135.13	1.13496e-06
2126.57	1.37595e-06
2118.01	1.60995e-06
2109.45	1.22896e-06
2100.9	7.44975e-07
2092.34	6.92376e-07
2083.78	1.90793e-07
2075.22	-1.56295e-07
2066.67	1.27196e-07
2058.11	-3.88885e-08
2049.55	-9.30669e-08
2040.99	-2.9779e-07
2032.44	-2.62091e-07
2023.88	-4.14786e-07
2015.32	-4.37185e-07
2006.76	-2.01193e-07
1998.21	2.8339e-07
1989.65	5.07883e-07
1981.09	6.21679e-07
1972.53	6.83377e-07
1963.97	1.34895e-06
1955.42	1.83194e-06
1946.86	3.14189e-06
1938.3	3.13789e-06
1929.74	3.70988e-06
1921.19	3.38789e-06
1912.63	2.80591e-06
1904.07	1.98093e-06
1895.51	1.02497e-06
1886.96	7.43075e-07
1878.4	4.86484e-07
1869.84	3.74285e-08
1861.28	-8.2317e-08
1852.73	-2.63791e-07
1844.17	-3.88086e-08
1835.61	-2.25692e-07
1827.05	-1.71794e-07
1818.5	-1.76894e-07
1809.94	-2.76591e-07
1801.38	-7.63472e-08
1792.82	3.67788e-07
1784.26	3.38288e-07
1775.71	5.05483e-07
1767.15	4.63784e-07
1758.59	1.50295e-07
1750.03	6.32779e-07
1741.48	4.76184e-07
1732.92	4.96083e-07
1724.36	6.11578e-08
1715.8	7.32075e-07
1707.25	2.57291e-07
1698.69	4.03286e-07
1690.13	4.02286e-07
1681.57	6.30579e-07
1673.02	4.46885e-07
1664.46	3.52488e-07
1655.9	2.59091e-07
1647.34	3.0429e-07
1638.79	9.03768e-08
1630.23	5.42581e-07
1621.67	4.25786e-07
1613.11	3.82287e-07
1604.55	3.57588e-07
1596	5.73381e-07
1587.44	2.22692e-07
1578.88	6.76477e-07
1570.32	3.15789e-07
1561.77	6.17279e-07
1553.21	5.41282e-07
1544.65	7.97673e-07
1536.09	1.69094e-06
1527.54	2.59391e-06
1518.98	3.97787e-06
1510.42	6.23079e-06
1501.86	9.0877e-06
1493.31	1.31796e-05
1484.75	1.58495e-05
1476.19	1.97393e-05
1467.63	1.95593e-05
1459.08	2.11293e-05
1450.52	3.50388e-05
1441.96	2.76391e-05
1433.4	2.8569e-05
1424.84	3.54188e-05
1416.29	6.0738e-05
1407.73	9.54868e-05
1399.17	7.52875e-05
1390.61	7.43775e-05
1382.06	8.66871e-05
1373.5	6.50778e-05
1364.94	4.12086e-05
1356.38	2.70891e-05
1347.83	2.05293e-05
1339.27	1.71294e-05
1330.71	1.59195e-05
1322.15	1.57395e-05
1313.6	1.52195e-05
1305.04	1.51795e-05
1296.48	1.59095e-05
1287.92	1.76794e-05
1279.36	2.43192e-05
1270.81	3.84087e-05
1262.25	5.52382e-05
1253.69	6.98477e-05
1245.13	6.32579e-05
1236.58	5.8728e-05
1228.02	7.66874e-05
1219.46	5.52382e-05
1210.9	3.1449e-05
1202.35	2.24692e-05
1193.79	1.81694e-05
1185.23	1.39595e-05
1176.67	1.11996e-05
1168.12	9.45869e-06
1159.56	1.00597e-05
1151	1.06296e-05
1142.44	1.28796e-05
1133.89	1.74794e-05
1125.33	2.41092e-05
1116.77	3.94887e-05
1108.21	6.99977e-05
1099.65	9.45568e-05
1091.1	0.000118796
1082.54	0.000210693
1073.98	0.000263691
1065.42	0.00029499
1056.87	0.000270091
1048.31	0.000251692
1039.75	0.000202793
1031.19	0.000121096
1022.64	9.93667e-05
1014.08	8.61071e-05
1005.52	5.31682e-05
996.963	2.77291e-05
988.406	1.50395e-05
979.848	9.57168e-06
971.29	6.1528e-06
962.733	4.72884e-06
954.175	3.94787e-06
945.618	4.35985e-06
937.06	4.93284e-06
928.502	6.32879e-06
919.945	9.43369e-06
911.387	1.93494e-05
902.829	3.71988e-05
894.272	4.15886e-05
885.714	3.75787e-05
877.157	3.26589e-05
868.599	3.73887e-05
860.041	2.54392e-05
851.484	1.08396e-05
842.926	5.59881e-06
834.368	4.06286e-06
825.811	3.87487e-06
817.253	4.82484e-06
808.696	3.81287e-06
800.138	5.47082e-06
791.58	3.32189e-06
783.023	2.76591e-06
774.465	2.29392e-06
765.907	1.35495e-06
757.35	9.21269e-07
748.792	6.29579e-07
740.235	4.86683e-07
731.677	5.36382e-08
723.119	7.95373e-07
714.562	7.77374e-07
706.004	2.45492e-07
697.446	8.05573e-07
688.889	1.50395e-06
680.331	1.15996e-06
671.774	1.33496e-06
663.216	2.47792e-06
654.658	2.35992e-06
646.101	1.66894e-06
637.543	2.49192e-06
628.985	2.79591e-06
620.428	2.52392e-06
611.87	3.90787e-06
603.313	9.61168e-07
594.755	2.17893e-06
586.197	3.0159e-06
577.64	4.54085e-06
