Infrared Spectrum: Ethanol
Formula: C2 H5 O H
CAS: 64-17-5
State: gas
Melting point: -117.3 C
Boiling point: 78.5 C
Class: IUPAC A
Instrument: IFS66V (Bruker)
Instrument parameters: KBr Beam splitter; MCT Detector; Multipass cell
Sampling: 1 L/min Flow
Resolution: 0.2410
Temperature: 23 C
Pressure: 101.3 kPa
Origin: NIST, Anayltical Chemistry Division, 301-975-3108
cm-1	(micromol/mol)-1m-1 (base 10)
575.048	3.14967e-06
583.606	3.54133e-06
592.163	1.89729e-06
600.721	2.75885e-06
609.279	3.5624e-06
617.836	3.18055e-06
626.394	3.04234e-06
634.951	2.69508e-06
643.509	2.46777e-06
652.067	1.78983e-06
660.624	1.05943e-06
669.182	2.07588e-06
677.74	1.4106e-06
686.297	7.70646e-07
694.855	9.2037e-07
703.412	6.5121e-07
711.97	4.2789e-07
720.528	5.88209e-07
729.085	6.11691e-07
737.643	7.99004e-07
746.201	7.85694e-07
754.758	1.04835e-06
763.316	1.37474e-06
771.873	2.1132e-06
780.431	3.20081e-06
788.989	4.08028e-06
797.546	4.87288e-06
806.104	4.25124e-06
814.662	3.92171e-06
823.219	4.22267e-06
831.777	3.78179e-06
840.334	4.93173e-06
848.892	9.43624e-06
857.45	1.94648e-05
866.007	3.53443e-05
874.565	3.45518e-05
883.123	4.39099e-05
891.68	6.03509e-05
900.238	4.04299e-05
908.795	2.41747e-05
917.353	1.0845e-05
925.911	6.38448e-06
934.468	4.78026e-06
943.026	4.04527e-06
951.584	3.85651e-06
960.141	4.86732e-06
968.699	5.79533e-06
977.256	8.39912e-06
985.814	1.31724e-05
994.372	2.22595e-05
1002.93	4.06844e-05
1011.49	7.55692e-05
1020.04	9.65569e-05
1028.6	0.000132815
1037.16	0.000205079
1045.72	0.000245192
1054.28	0.000258434
1062.83	0.000238866
1071.39	0.000246186
1079.95	0.000233733
1088.51	0.000155026
1097.06	9.83821e-05
1105.62	8.10547e-05
1114.18	4.83884e-05
1122.74	2.81717e-05
1131.29	2.05741e-05
1139.85	1.37958e-05
1148.41	1.0787e-05
1156.97	1.00721e-05
1165.52	1.01983e-05
1174.08	1.07338e-05
1182.64	1.329e-05
1191.2	1.59972e-05
1199.75	2.05329e-05
1208.31	2.82898e-05
1216.87	4.52772e-05
1225.43	6.55083e-05
1233.99	6.43552e-05
1242.54	6.13228e-05
1251.1	7.10795e-05
1259.66	6.4871e-05
1268.22	4.09947e-05
1276.77	2.71316e-05
1285.33	1.95588e-05
1293.89	1.64737e-05
1302.45	1.48368e-05
1311	1.504e-05
1319.56	1.51185e-05
1328.12	1.55085e-05
1336.68	1.70551e-05
1345.23	1.87931e-05
1353.79	2.43837e-05
1362.35	3.51053e-05
1370.91	5.66277e-05
1379.46	8.17953e-05
1388.02	7.19141e-05
1396.58	7.1548e-05
1405.14	9.69162e-05
1413.7	7.3154e-05
1422.25	4.04293e-05
1430.81	2.90168e-05
1439.37	2.78716e-05
1447.93	2.92829e-05
1456.48	2.22993e-05
1465.04	1.96496e-05
1473.6	1.95228e-05
1482.16	1.7105e-05
1490.71	1.32259e-05
1499.27	1.00895e-05
1507.83	7.33073e-06
1516.39	4.50549e-06
1524.94	2.75377e-06
1533.5	1.82215e-06
1542.06	1.04195e-06
1550.62	7.0271e-07
1559.18	7.02743e-07
1567.73	4.9027e-07
1576.29	4.10488e-07
1584.85	3.43192e-07
1593.41	3.07728e-07
1601.96	4.32732e-07
1610.52	4.9328e-07
1619.08	3.51718e-07
1627.64	4.03651e-07
1636.19	3.33207e-07
1644.75	3.81535e-07
1653.31	2.62462e-07
1661.87	4.30772e-07
1670.42	5.72564e-07
1678.98	5.23567e-07
1687.54	4.53385e-07
1696.1	4.31404e-07
1704.65	4.33962e-07
1713.21	3.77245e-07
1721.77	5.39284e-07
1730.33	1.85997e-07
1738.89	4.02816e-07
1747.44	4.46285e-07
1756	6.89845e-07
1764.56	4.8496e-07
1773.12	5.53829e-07
1781.67	4.05968e-07
1790.23	1.72687e-07
1798.79	8.66157e-08
1807.35	1.93833e-08
1815.9	-1.44841e-07
1824.46	-1.46359e-07
1833.02	-2.50576e-07
1841.58	-1.55864e-07
1850.13	-1.54424e-07
1858.69	-6.48355e-08
1867.25	4.00812e-08
1875.81	1.8769e-07
1884.36	4.72261e-07
1892.92	9.27538e-07
1901.48	1.80959e-06
1910.04	2.40069e-06
1918.6	2.96519e-06
1927.15	3.81358e-06
1935.71	3.43867e-06
1944.27	3.44136e-06
1952.83	2.15825e-06
1961.38	1.39236e-06
1969.94	8.57532e-07
1978.5	7.16976e-07
1987.06	5.58192e-07
1995.61	2.25107e-07
2004.17	-9.88969e-08
2012.73	-2.05605e-07
2021.29	-2.56176e-07
2029.84	-3.93569e-07
2038.4	-3.63067e-07
2046.96	-4.01374e-07
2055.52	-3.98413e-07
2064.08	-9.09926e-08
2072.63	-1.43069e-07
2081.19	9.12736e-08
2089.75	4.77819e-07
2098.31	8.84603e-07
2106.86	1.3225e-06
2115.42	1.64277e-06
2123.98	1.86175e-06
2132.54	1.14289e-06
2141.09	6.95615e-07
2149.65	2.93298e-07
2158.21	1.32547e-06
2166.77	2.25767e-07
2175.32	4.36945e-07
2183.88	5.48913e-07
2192.44	3.01019e-07
2201	4.44854e-08
2209.55	2.61437e-07
2218.11	7.45674e-08
2226.67	3.8134e-07
2235.23	3.89243e-07
2243.79	8.75339e-07
2252.34	1.21165e-06
2260.9	1.63745e-06
2269.46	1.35791e-06
2278.02	1.43854e-06
2286.57	1.28843e-06
2295.13	7.87114e-07
2303.69	7.40919e-07
2312.25	7.79123e-07
2320.8	1.24189e-06
2329.36	1.05471e-06
2337.92	1.90961e-06
2346.48	8.99671e-07
2355.03	9.53725e-07
2363.59	1.02605e-06
2372.15	1.02822e-06
2380.71	1.3274e-06
2389.26	1.12397e-06
2397.82	1.49683e-06
2406.38	1.57442e-06
2414.94	1.7578e-06
2423.5	1.45345e-06
2432.05	1.30917e-06
2440.61	1.02215e-06
2449.17	7.63737e-07
2457.73	8.66431e-07
2466.28	9.79824e-07
2474.84	1.00162e-06
2483.4	9.70221e-07
2491.96	1.03825e-06
2500.51	6.84644e-07
2509.07	6.63441e-07
2517.63	6.87438e-07
2526.19	5.64026e-07
2534.74	5.81128e-07
2543.3	6.27658e-07
2551.86	5.52859e-07
2560.42	7.65483e-07
2568.98	7.9675e-07
2577.53	1.03557e-06
2586.09	1.25369e-06
2594.65	1.55892e-06
2603.21	1.59541e-06
2611.76	1.81335e-06
2620.32	2.2944e-06
2628.88	2.38208e-06
2637.44	2.59988e-06
2645.99	2.99222e-06
2654.55	3.29849e-06
2663.11	3.48118e-06
2671.67	3.61196e-06
2680.22	3.76501e-06
2688.78	3.90938e-06
2697.34	4.40358e-06
2705.9	5.2065e-06
2714.45	5.87988e-06
2723.01	6.95083e-06
2731.57	7.88444e-06
2740.13	9.26394e-06
2748.69	1.01557e-05
2757.24	1.07519e-05
2765.8	1.13517e-05
2774.36	1.24001e-05
2782.92	1.37757e-05
2791.47	1.52147e-05
2800.03	1.71466e-05
2808.59	1.81309e-05
2817.15	2.08369e-05
2825.7	2.48165e-05
2834.26	3.07095e-05
2842.82	4.04576e-05
2851.38	5.57583e-05
2859.93	7.87626e-05
2868.49	0.000107444
2877.05	0.000124017
2885.61	0.000151032
2894.16	0.000157928
2902.72	0.000172189
2911.28	0.000167882
2919.84	0.000150131
2928.4	0.000143228
2936.95	0.00013944
2945.51	0.000145246
2954.07	0.000161678
2962.63	0.000184198
2971.18	0.00021643
2979.74	0.000204069
2988.3	0.000212577
2996.86	0.000171238
3005.41	0.000129054
3013.97	8.64872e-05
3022.53	5.25431e-05
3031.09	2.79388e-05
3039.64	1.27286e-05
3048.2	5.16609e-06
3056.76	1.84114e-06
3065.32	1.13617e-06
3073.88	7.79714e-07
3082.43	5.82023e-07
3090.99	7.60304e-07
3099.55	5.52533e-07
3108.11	8.01984e-07
3116.66	5.86781e-07
3125.22	7.13568e-07
3133.78	8.04055e-07
3142.34	5.65253e-07
3150.89	7.1312e-07
3159.45	9.54831e-07
3168.01	1.19595e-06
3176.57	1.01217e-06
3185.12	1.39305e-06
3193.68	1.27686e-06
3202.24	1.64881e-06
3210.8	1.94925e-06
3219.35	1.95139e-06
3227.91	2.13827e-06
3236.47	1.67869e-06
3245.03	1.01464e-06
3253.59	9.97313e-07
3262.14	2.72631e-07
3270.7	1.87646e-07
3279.26	-5.75601e-08
3287.82	-2.34628e-07
3296.37	-3.10641e-07
3304.93	-1.62173e-07
3313.49	-4.77672e-07
3322.05	-3.11702e-07
3330.6	-1.67886e-07
3339.16	-1.80481e-07
3347.72	-2.02594e-07
3356.28	-1.0569e-07
3364.83	-2.39261e-08
3373.39	3.33926e-07
3381.95	5.09052e-07
3390.51	9.11686e-07
3399.06	9.26362e-07
3407.62	8.12831e-07
3416.18	1.54558e-06
3424.74	1.18248e-06
3433.3	8.58502e-07
3441.85	9.88266e-07
3450.41	1.11429e-06
3458.97	1.08995e-06
3467.53	1.3714e-06
3476.08	1.45598e-06
3484.64	1.46967e-06
3493.2	1.30445e-06
3501.76	1.21891e-06
3510.31	9.21138e-07
3518.87	9.95568e-07
3527.43	6.43628e-07
3535.99	6.21438e-07
3544.54	7.35905e-07
3553.1	7.72654e-07
3561.66	1.02494e-06
3570.22	1.03741e-06
3578.78	6.47255e-07
3587.33	8.21779e-07
3595.89	1.84009e-06
3604.45	2.84318e-06
3613.01	4.47622e-06
3621.56	7.32422e-06
3630.12	1.20858e-05
3638.68	2.01303e-05
3647.24	3.12135e-05
3655.79	4.99124e-05
3664.35	5.1081e-05
3672.91	5.17777e-05
3681.47	4.28232e-05
3690.02	4.3418e-05
3698.58	2.74223e-05
3707.14	1.16585e-05
3715.7	5.23075e-06
3724.25	2.97668e-06
3732.81	1.97649e-06
3741.37	1.44435e-06
3749.93	1.50096e-06
3758.49	1.57879e-06
3767.04	1.04161e-06
3775.6	1.52746e-06
3784.16	1.85947e-06
3792.72	1.89633e-06
3801.27	1.77103e-06
3809.83	1.71411e-06
3818.39	1.70833e-06
3826.95	1.97869e-06
3835.5	2.36483e-06
3844.06	2.35923e-06
3852.62	2.3164e-06
3861.18	2.46028e-06
3869.73	2.07094e-06
3878.29	1.69695e-06
3886.85	2.67974e-06
3895.41	1.6119e-06
3903.96	1.47905e-06
3912.52	1.2705e-06
3921.08	1.04981e-06
3929.64	9.82499e-07
3938.2	7.33347e-07
3946.75	9.21378e-07
3955.31	1.05354e-06
3963.87	1.07623e-06
3972.43	1.11692e-06
