Infrared Spectrum: Ethanol
Formula: C2 H5 O H
CAS: 64-17-5
State: gas
Melting point: -117.3 C
Boiling point: 78.5 C
Class: IUPAC A
Instrument: IFS66V (Bruker)
Instrument parameters: KBr Beam splitter; MCT Detector; Multipass cell
Sampling: 1 L/min Flow
Resolution: 1.9290
Temperature: 23 C
Pressure: 101.3 kPa
Origin: NIST, Anayltical Chemistry Division, 301-975-3108
cm-1	(micromol/mol)-1m-1 (base 10)
574.687	2.46996e-06
583.365	2.71552e-06
592.043	2.3479e-06
600.721	2.62382e-06
609.4	2.78188e-06
618.078	2.78614e-06
626.756	2.71503e-06
635.434	2.46659e-06
644.112	2.32312e-06
652.79	1.66981e-06
661.469	1.72744e-06
670.147	1.58409e-06
678.825	1.28088e-06
687.503	9.85917e-07
696.181	7.83181e-07
704.859	5.94712e-07
713.537	4.26308e-07
722.216	4.76669e-07
730.894	5.87387e-07
739.572	6.77913e-07
748.25	7.97521e-07
756.928	1.0323e-06
765.606	1.59217e-06
774.285	2.46343e-06
782.963	3.4323e-06
791.641	3.70228e-06
800.319	5.46991e-06
808.997	4.06925e-06
817.675	4.05327e-06
826.353	3.94829e-06
835.032	4.09573e-06
843.71	6.13753e-06
852.388	1.26411e-05
861.066	2.65792e-05
869.744	3.79372e-05
878.422	4.48323e-05
887.101	3.69977e-05
895.779	4.25426e-05
904.457	3.32764e-05
913.135	1.62571e-05
921.813	7.8424e-06
930.491	5.41225e-06
939.169	4.40947e-06
947.848	3.99142e-06
956.526	4.14437e-06
965.204	5.17705e-06
973.882	7.2416e-06
982.56	1.08701e-05
991.238	1.84601e-05
999.917	3.41884e-05
1008.59	6.19573e-05
1017.27	9.11367e-05
1025.95	0.000127119
1034.63	0.000155883
1043.31	0.000230664
1051.99	0.000261965
1060.66	0.000233471
1069.34	0.000238112
1078.02	0.000251051
1086.7	0.000169152
1095.38	9.96166e-05
1104.05	8.60861e-05
1112.73	5.27584e-05
1121.41	2.99119e-05
1130.09	2.04657e-05
1138.77	1.44625e-05
1147.45	1.0926e-05
1156.12	1.0107e-05
1164.8	1.00807e-05
1173.48	1.06799e-05
1182.16	1.29168e-05
1190.84	1.60358e-05
1199.51	2.06277e-05
1208.19	2.83612e-05
1216.87	4.58301e-05
1225.55	6.70351e-05
1234.23	6.49891e-05
1242.9	6.8354e-05
1251.58	7.40404e-05
1260.26	6.22547e-05
1268.94	3.92889e-05
1277.62	2.59921e-05
1286.3	1.90411e-05
1294.97	1.61457e-05
1303.65	1.50628e-05
1312.33	1.49819e-05
1321.01	1.54251e-05
1329.69	1.56523e-05
1338.36	1.75845e-05
1347.04	1.97996e-05
1355.72	2.61765e-05
1364.4	3.95094e-05
1373.08	6.31494e-05
1381.76	8.51402e-05
1390.43	7.42016e-05
1399.11	7.52488e-05
1407.79	9.51932e-05
1416.47	5.95024e-05
1425.15	3.49935e-05
1433.82	2.85236e-05
1442.5	2.7894e-05
1451.18	3.42514e-05
1459.86	2.14044e-05
1468.54	1.98873e-05
1477.22	1.94635e-05
1485.89	1.4445e-05
1494.57	1.16423e-05
1503.25	8.77609e-06
1511.93	5.84292e-06
1520.61	3.54074e-06
1529.28	2.14243e-06
1537.96	1.31194e-06
1546.64	8.33666e-07
1555.32	6.31839e-07
1564	4.9987e-07
1572.67	4.21545e-07
1581.35	4.02028e-07
1590.03	4.19664e-07
1598.71	4.00021e-07
1607.39	4.05981e-07
1616.07	3.57296e-07
1624.74	3.37835e-07
1633.42	3.56703e-07
1642.1	3.89573e-07
1650.78	3.99809e-07
1659.46	3.92499e-07
1668.13	4.52032e-07
1676.81	4.72143e-07
1685.49	5.12197e-07
1694.17	4.35211e-07
1702.85	4.64151e-07
1711.53	3.49969e-07
1720.2	3.5597e-07
1728.88	3.33666e-07
1737.56	3.98978e-07
1746.24	4.73577e-07
1754.92	5.13045e-07
1763.59	6.12815e-07
1772.27	6.23806e-07
1780.95	5.17559e-07
1789.63	3.1546e-07
1798.31	1.47773e-07
1806.98	-2.43318e-08
1815.66	-1.23387e-07
1824.34	-1.63368e-07
1833.02	-1.78741e-07
1841.7	-1.98936e-07
1850.38	-1.64415e-07
1859.05	-9.89873e-08
1867.73	2.07252e-08
1876.41	1.71473e-07
1885.09	5.23218e-07
1893.77	1.13332e-06
1902.44	1.94908e-06
1911.12	2.55776e-06
1919.8	3.22406e-06
1928.48	3.70229e-06
1937.16	3.41574e-06
1945.84	3.30142e-06
1954.51	1.9713e-06
1963.19	1.2313e-06
1971.87	7.69701e-07
1980.55	4.82892e-07
1989.23	4.84415e-07
1997.9	1.05808e-07
2006.58	-1.92195e-07
2015.26	-2.78176e-07
2023.94	-3.33223e-07
2032.62	-3.33983e-07
2041.3	-2.96345e-07
2049.97	-2.29403e-07
2058.65	-1.52834e-07
2067.33	-1.15135e-07
2076.01	-4.53585e-08
2084.69	2.40797e-07
2093.36	6.70845e-07
2102.04	1.14852e-06
2110.72	1.62623e-06
2119.4	1.56917e-06
2128.08	1.62789e-06
2136.75	1.03706e-06
2145.43	5.23695e-07
2154.11	4.1531e-07
2162.79	4.3255e-07
2171.47	4.54637e-07
2180.15	6.34695e-07
2188.82	4.63797e-07
2197.5	2.61311e-07
2206.18	6.38769e-08
2214.86	1.23494e-08
2223.54	1.41946e-07
2232.21	3.88877e-07
2240.89	7.53782e-07
2249.57	1.18208e-06
2258.25	1.26226e-06
2266.93	1.44956e-06
2275.61	1.53765e-06
2284.28	1.35889e-06
2292.96	9.36259e-07
2301.64	7.80354e-07
2310.32	9.26032e-07
2319	1.20962e-06
2327.67	1.92417e-06
2336.35	1.98648e-06
2345.03	1.61467e-06
2353.71	1.56762e-06
2362.39	2.28095e-06
2371.06	1.64937e-06
2379.74	1.14242e-06
2388.42	1.20988e-06
2397.1	1.40422e-06
2405.78	1.55626e-06
2414.46	1.65991e-06
2423.13	1.42361e-06
2431.81	1.19439e-06
2440.49	1.07362e-06
2449.17	8.57317e-07
2457.85	9.23474e-07
2466.52	9.38695e-07
2475.2	9.74106e-07
2483.88	1.05328e-06
2492.56	9.28913e-07
2501.24	7.31173e-07
2509.92	6.3159e-07
2518.59	6.07689e-07
2527.27	5.39357e-07
2535.95	5.15597e-07
2544.63	5.68301e-07
2553.31	6.66422e-07
2561.98	7.52593e-07
2570.66	8.92875e-07
2579.34	1.06813e-06
2588.02	1.27548e-06
2596.7	1.5392e-06
2605.38	1.64041e-06
2614.05	1.87417e-06
2622.73	2.3297e-06
2631.41	2.50673e-06
2640.09	2.72009e-06
2648.77	3.03938e-06
2657.44	3.26129e-06
2666.12	3.53354e-06
2674.8	3.66986e-06
2683.48	3.93117e-06
2692.16	4.23557e-06
2700.83	4.69009e-06
2709.51	5.57586e-06
2718.19	6.39609e-06
2726.87	7.05884e-06
2735.55	8.36358e-06
2744.23	9.8021e-06
2752.9	1.03632e-05
2761.58	1.11917e-05
2770.26	1.18791e-05
2778.94	1.3168e-05
2787.62	1.3842e-05
2796.29	1.63148e-05
2804.97	1.76925e-05
2813.65	1.93942e-05
2822.33	2.33532e-05
2831.01	2.79135e-05
2839.69	3.68675e-05
2848.36	4.97045e-05
2857.04	7.00941e-05
2865.72	9.98008e-05
2874.4	0.000116936
2883.08	0.00014667
2891.75	0.000155763
2900.43	0.000195008
2909.11	0.000163476
2917.79	0.00015048
2926.47	0.000145017
2935.14	0.000139356
2943.82	0.000144883
2952.5	0.000158259
2961.18	0.000179879
2969.86	0.000211982
2978.54	0.00020819
2987.21	0.000220248
2995.89	0.000174832
3004.57	0.000133923
3013.25	8.92324e-05
3021.93	5.43487e-05
3030.6	2.88742e-05
3039.28	1.30708e-05
3047.96	5.23227e-06
3056.64	2.07762e-06
3065.32	1.02124e-06
3074	7.46765e-07
3082.67	6.32656e-07
3091.35	6.65362e-07
3100.03	6.71184e-07
3108.71	5.99962e-07
3117.39	6.04311e-07
3126.06	6.35038e-07
3134.74	6.19674e-07
3143.42	5.6854e-07
3152.1	6.59895e-07
3160.78	7.5043e-07
3169.46	8.95122e-07
3178.13	1.02009e-06
3186.81	1.26535e-06
3195.49	1.51895e-06
3204.17	1.84124e-06
3212.85	1.98098e-06
3221.52	2.14176e-06
3230.2	1.9654e-06
3238.88	1.65146e-06
3247.56	1.07419e-06
3256.24	6.54821e-07
3264.91	1.64823e-07
3273.59	-1.37859e-07
3282.27	-2.39732e-07
3290.95	-2.66541e-07
3299.63	-3.28803e-07
3308.31	-2.48372e-07
3316.98	-3.00628e-07
3325.66	-2.82868e-07
3334.34	-3.167e-07
3343.02	-2.05469e-07
3351.7	-1.60926e-07
3360.37	-1.41242e-08
3369.05	1.67489e-07
3377.73	4.56165e-07
3386.41	8.28797e-07
3395.09	8.85768e-07
3403.77	1.22336e-06
3412.44	1.3188e-06
3421.12	1.10094e-06
3429.8	9.232e-07
3438.48	9.83724e-07
3447.16	1.12142e-06
3455.83	1.27484e-06
3464.51	1.4357e-06
3473.19	1.96843e-06
3481.87	1.59505e-06
3490.55	1.39751e-06
3499.22	1.17623e-06
3507.9	1.07785e-06
3516.58	8.6866e-07
3525.26	7.37999e-07
3533.94	8.85357e-07
3542.62	7.3982e-07
3551.29	8.09791e-07
3559.97	9.04856e-07
3568.65	1.02062e-06
3577.33	7.50138e-07
3586.01	9.96257e-07
3594.68	1.70703e-06
3603.36	2.48876e-06
3612.04	4.09935e-06
3620.72	7.07449e-06
3629.4	1.13614e-05
3638.08	1.9077e-05
3646.75	3.12943e-05
3655.43	4.51986e-05
3664.11	5.1936e-05
3672.79	5.17779e-05
3681.47	4.28658e-05
3690.14	4.32979e-05
3698.82	2.6966e-05
3707.5	1.13946e-05
3716.18	5.0041e-06
3724.86	2.77568e-06
3733.54	1.87349e-06
3742.21	1.404e-06
3750.89	1.5025e-06
3759.57	1.37202e-06
3768.25	1.14488e-06
3776.93	1.36902e-06
3785.6	1.81052e-06
3794.28	1.78206e-06
3802.96	1.55309e-06
3811.64	1.67505e-06
3820.32	1.68792e-06
3828.99	2.04139e-06
3837.67	2.25657e-06
3846.35	2.4346e-06
3855.03	2.37663e-06
3863.71	2.3316e-06
3872.39	1.9979e-06
3881.06	1.95022e-06
3889.74	1.72828e-06
3898.42	1.59683e-06
3907.1	1.3943e-06
3915.78	1.26312e-06
3924.45	1.14109e-06
3933.13	8.7651e-07
3941.81	9.1848e-07
3950.49	9.09252e-07
3959.17	1.03596e-06
3967.85	1.13268e-06
