Infrared Spectrum: Ethanol
Formula: C2 H5 O H
CAS: 64-17-5
State: gas
Melting point: -117.3 C
Boiling point: 78.5 C
Class: IUPAC A
Instrument: IFS66V (Bruker)
Instrument parameters: KBr Beam splitter; MCT Detector; Multipass cell
Sampling: 1 L/min Flow
Resolution: 0.4820
Temperature: 23 C
Pressure: 101.3 kPa
Origin: NIST, Anayltical Chemistry Division, 301-975-3108
cm-1	(micromol/mol)-1m-1 (base 10)
574.928	1.94056e-06
583.606	3.61594e-06
592.284	2.02291e-06
600.962	2.81593e-06
609.641	2.84043e-06
618.319	2.24833e-06
626.997	2.64797e-06
635.675	2.60363e-06
644.353	2.67601e-06
653.031	1.70611e-06
661.71	1.78627e-06
670.388	1.31208e-06
679.066	1.61253e-06
687.744	9.80318e-07
696.422	5.12962e-07
705.1	5.2947e-07
713.778	3.22498e-07
722.457	4.04194e-07
731.135	9.13122e-07
739.813	7.83165e-07
748.491	7.38906e-07
757.169	1.1331e-06
765.847	1.60105e-06
774.526	2.66507e-06
783.204	3.538e-06
791.882	3.63989e-06
800.56	6.2515e-06
809.238	4.08951e-06
817.916	3.83549e-06
826.594	4.04373e-06
835.273	4.41045e-06
843.951	6.22214e-06
852.629	1.30094e-05
861.307	2.73277e-05
869.985	3.84278e-05
878.663	4.22314e-05
887.342	3.65395e-05
896.02	4.24854e-05
904.698	3.27869e-05
913.376	1.58404e-05
922.054	7.65546e-06
930.732	5.34038e-06
939.41	4.43774e-06
948.089	4.10764e-06
956.767	4.07383e-06
965.445	5.11551e-06
974.123	7.30229e-06
982.801	1.096e-05
991.479	1.86008e-05
1000.16	3.45436e-05
1008.84	6.27709e-05
1017.51	9.11921e-05
1026.19	0.000128121
1034.87	0.000157117
1043.55	0.00023324
1052.23	0.000263121
1060.9	0.000228889
1069.58	0.000231081
1078.26	0.000249489
1086.94	0.000168365
1095.62	9.8208e-05
1104.3	8.60228e-05
1112.97	5.16845e-05
1121.65	2.94112e-05
1130.33	1.98785e-05
1139.01	1.42554e-05
1147.69	1.07322e-05
1156.36	1.00569e-05
1165.04	1.01412e-05
1173.72	1.06981e-05
1182.4	1.30418e-05
1191.08	1.60533e-05
1199.76	2.05913e-05
1208.43	2.82173e-05
1217.11	4.51478e-05
1225.79	6.56441e-05
1234.47	6.33059e-05
1243.15	6.57565e-05
1251.82	7.38951e-05
1260.5	6.1293e-05
1269.18	3.88356e-05
1277.86	2.56485e-05
1286.54	1.89555e-05
1295.21	1.61395e-05
1303.89	1.52988e-05
1312.57	1.49791e-05
1321.25	1.55418e-05
1329.93	1.55947e-05
1338.61	1.79877e-05
1347.28	2.00006e-05
1355.96	2.6222e-05
1364.64	4.02917e-05
1373.32	6.36173e-05
1382	8.55595e-05
1390.67	7.44489e-05
1399.35	7.6045e-05
1408.03	9.52356e-05
1416.71	5.84534e-05
1425.39	3.48871e-05
1434.07	2.80174e-05
1442.74	2.74126e-05
1451.42	3.25075e-05
1460.1	2.14052e-05
1468.78	1.96857e-05
1477.46	1.93108e-05
1486.13	1.42851e-05
1494.81	1.12797e-05
1503.49	8.66897e-06
1512.17	5.69399e-06
1520.85	3.49406e-06
1529.52	2.1012e-06
1538.2	1.30036e-06
1546.88	7.98517e-07
1555.56	6.0351e-07
1564.24	5.29006e-07
1572.92	4.38661e-07
1581.59	4.54895e-07
1590.27	3.92678e-07
1598.95	3.65263e-07
1607.63	4.1661e-07
1616.31	2.90576e-07
1624.98	2.77179e-07
1633.66	3.57983e-07
1642.34	3.88609e-07
1651.02	4.11939e-07
1659.7	4.19673e-07
1668.38	3.9057e-07
1677.05	4.1757e-07
1685.73	5.12957e-07
1694.41	3.8458e-07
1703.09	4.62413e-07
1711.77	3.93771e-07
1720.44	3.05447e-07
1729.12	3.14369e-07
1737.8	3.34163e-07
1746.48	4.80247e-07
1755.16	4.71085e-07
1763.84	6.40042e-07
1772.51	6.05586e-07
1781.19	4.73489e-07
1789.87	3.03315e-07
1798.55	1.69261e-07
1807.23	-5.96392e-09
1815.9	-1.52587e-07
1824.58	-1.72939e-07
1833.26	-2.1335e-07
1841.94	-1.87529e-07
1850.62	-1.61454e-07
1859.29	-8.54265e-08
1867.97	4.83343e-08
1876.65	2.06738e-07
1885.33	5.49948e-07
1894.01	1.13214e-06
1902.69	2.03636e-06
1911.36	2.54982e-06
1920.04	3.24316e-06
1928.72	3.6718e-06
1937.4	3.41194e-06
1946.08	3.21106e-06
1954.75	1.96717e-06
1963.43	1.26027e-06
1972.11	7.80701e-07
1980.79	4.80644e-07
1989.47	5.59598e-07
1998.15	1.51305e-07
2006.82	-1.59282e-07
2015.5	-2.96663e-07
2024.18	-2.92834e-07
2032.86	-3.67584e-07
2041.54	-2.53545e-07
2050.21	-2.40562e-07
2058.89	-1.34905e-07
2067.57	-1.46395e-07
2076.25	1.96593e-08
2084.93	1.77972e-07
2093.6	6.29449e-07
2102.28	1.0124e-06
2110.96	1.43603e-06
2119.64	2.42402e-06
2128.32	1.47894e-06
2137	9.8921e-07
2145.67	4.70813e-07
2154.35	6.87049e-07
2163.03	2.70704e-07
2171.71	2.63914e-07
2180.39	3.69195e-07
2189.06	3.29827e-07
2197.74	1.98816e-07
2206.42	3.22403e-07
2215.1	-2.73849e-08
2223.78	1.38076e-07
2232.46	4.19498e-07
2241.13	8.08048e-07
2249.81	1.17222e-06
2258.49	1.21197e-06
2267.17	1.50162e-06
2275.85	1.43889e-06
2284.52	1.37877e-06
2293.2	9.76191e-07
2301.88	7.45789e-07
2310.56	9.42141e-07
2319.24	2.15949e-06
2327.92	1.28486e-06
2336.59	1.11493e-06
2345.27	1.05108e-06
2353.95	1.03225e-06
2362.63	3.48702e-06
2371.31	2.25927e-06
2379.98	1.20937e-06
2388.66	1.2835e-06
2397.34	1.38323e-06
2406.02	1.62588e-06
2414.7	1.60314e-06
2423.37	1.43359e-06
2432.05	1.23305e-06
2440.73	1.04087e-06
2449.41	8.15174e-07
2458.09	9.45976e-07
2466.77	9.54911e-07
2475.44	9.98228e-07
2484.12	1.1327e-06
2492.8	9.417e-07
2501.48	7.8763e-07
2510.16	6.05004e-07
2518.83	5.91492e-07
2527.51	5.02317e-07
2536.19	4.40989e-07
2544.87	5.86706e-07
2553.55	6.91524e-07
2562.23	6.65714e-07
2570.9	9.19341e-07
2579.58	1.09229e-06
2588.26	1.17901e-06
2596.94	1.56902e-06
2605.62	1.62035e-06
2614.29	1.87358e-06
2622.97	2.37986e-06
2631.65	2.61713e-06
2640.33	2.75459e-06
2649.01	3.0115e-06
2657.68	3.21785e-06
2666.36	3.48734e-06
2675.04	3.66903e-06
2683.72	3.95289e-06
2692.4	4.25252e-06
2701.08	4.70426e-06
2709.75	5.66068e-06
2718.43	6.39116e-06
2727.11	7.14956e-06
2735.79	8.4422e-06
2744.47	9.79874e-06
2753.14	1.02419e-05
2761.82	1.12017e-05
2770.5	1.18272e-05
2779.18	1.32577e-05
2787.86	1.38097e-05
2796.54	1.64133e-05
2805.21	1.77769e-05
2813.89	1.944e-05
2822.57	2.35591e-05
2831.25	2.79704e-05
2839.93	3.71881e-05
2848.6	5.01319e-05
2857.28	7.07018e-05
2865.96	0.000100816
2874.64	0.000116813
2883.32	0.00014647
2892	0.000156632
2900.67	0.000217917
2909.35	0.000162021
2918.03	0.000149543
2926.71	0.000144408
2935.39	0.000140031
2944.06	0.000145039
2952.74	0.000158519
2961.42	0.000180339
2970.1	0.000210489
2978.78	0.000212478
2987.45	0.000221532
2996.13	0.000174376
3004.81	0.000133847
3013.49	8.80227e-05
3022.17	5.33432e-05
3030.85	2.83759e-05
3039.52	1.2699e-05
3048.2	5.07633e-06
3056.88	1.87629e-06
3065.56	9.65995e-07
3074.24	6.94285e-07
3082.91	5.78453e-07
3091.59	5.76229e-07
3100.27	6.18717e-07
3108.95	5.48585e-07
3117.63	5.75865e-07
3126.31	7.06249e-07
3134.98	5.65547e-07
3143.66	5.82765e-07
3152.34	8.14698e-07
3161.02	6.98543e-07
3169.7	8.37671e-07
3178.37	1.08224e-06
3187.05	1.26062e-06
3195.73	1.48031e-06
3204.41	1.71616e-06
3213.09	2.11511e-06
3221.77	2.25048e-06
3230.44	1.91669e-06
3239.12	1.7852e-06
3247.8	1.12585e-06
3256.48	6.97729e-07
3265.16	1.15014e-07
3273.83	-1.78363e-07
3282.51	-3.46551e-07
3291.19	-2.91498e-07
3299.87	-3.29588e-07
3308.55	-2.46699e-07
3317.22	-1.64126e-07
3325.9	-2.76099e-07
3334.58	-3.12038e-07
3343.26	3.49313e-08
3351.94	-5.85046e-08
3360.62	-6.9045e-08
3369.29	2.17905e-07
3377.97	4.01396e-07
3386.65	8.70015e-07
3395.33	9.31501e-07
3404.01	1.3191e-06
3412.68	1.35318e-06
3421.36	1.2624e-06
3430.04	8.3009e-07
3438.72	1.01556e-06
3447.4	1.069e-06
3456.08	1.23583e-06
3464.75	1.37167e-06
3473.43	1.99151e-06
3482.11	1.57523e-06
3490.79	1.43112e-06
3499.47	1.20291e-06
3508.14	1.04735e-06
3516.82	8.71603e-07
3525.5	6.83208e-07
3534.18	8.15747e-07
3542.86	5.97501e-07
3551.53	7.07836e-07
3560.21	7.67359e-07
3568.89	1.09796e-06
3577.57	8.72124e-07
3586.25	1.1192e-06
3594.93	1.66463e-06
3603.6	2.58361e-06
3612.28	4.13651e-06
3620.96	7.1123e-06
3629.64	1.14813e-05
3638.32	1.86969e-05
3646.99	3.06814e-05
3655.67	4.88103e-05
3664.35	5.11781e-05
3673.03	5.16483e-05
3681.71	4.28506e-05
3690.39	4.31787e-05
3699.06	2.64698e-05
3707.74	1.1063e-05
3716.42	4.78503e-06
3725.1	2.68217e-06
3733.78	2.01737e-06
3742.45	1.47311e-06
3751.13	1.47967e-06
3759.81	1.40026e-06
3768.49	1.06411e-06
3777.17	1.43539e-06
3785.85	1.8843e-06
3794.52	1.73072e-06
3803.2	1.64164e-06
3811.88	1.81854e-06
3820.56	1.68216e-06
3829.24	2.05279e-06
3837.91	2.16975e-06
3846.59	2.43134e-06
3855.27	2.40347e-06
3863.95	2.30169e-06
3872.63	2.02873e-06
3881.3	1.80001e-06
3889.98	1.65166e-06
3898.66	1.57659e-06
3907.34	1.39952e-06
3916.02	1.17371e-06
3924.7	1.20885e-06
3933.37	7.62951e-07
3942.05	7.78442e-07
3950.73	9.32283e-07
3959.41	1.0442e-06
3968.09	1.07071e-06
