Infrared Spectrum: Ethanol
Formula: C2 H5 O H
CAS: 64-17-5
State: gas
Melting point: -117.3 C
Boiling point: 78.5 C
Class: IUPAC A
Instrument: IFS66V (Bruker)
Instrument parameters: KBr Beam splitter; MCT Detector; Multipass cell
Sampling: 1 L/min Flow
Resolution: 1.9290
Temperature: 23 C
Pressure: 101.3 kPa
Origin: NIST, Anayltical Chemistry Division, 301-975-3108
cm-1	(micromol/mol)-1m-1 (base 10)
574.687	2.46514e-06
583.365	2.77394e-06
592.043	2.3239e-06
600.721	2.64417e-06
609.4	2.80549e-06
618.078	2.78088e-06
626.756	2.73476e-06
635.434	2.44256e-06
644.112	2.34068e-06
652.79	1.63813e-06
661.469	1.74856e-06
670.147	1.53889e-06
678.825	1.29821e-06
687.503	9.74139e-07
696.181	7.53996e-07
704.859	5.98381e-07
713.537	3.97842e-07
722.216	4.39598e-07
730.894	5.97882e-07
739.572	6.83462e-07
748.25	7.83471e-07
756.928	1.05484e-06
765.606	1.58494e-06
774.285	2.45837e-06
782.963	3.41793e-06
791.641	3.67419e-06
800.319	5.55825e-06
808.997	4.05917e-06
817.675	4.03994e-06
826.353	3.95711e-06
835.032	4.08266e-06
843.71	6.12943e-06
852.388	1.26419e-05
861.066	2.65861e-05
869.744	3.8007e-05
878.422	4.47185e-05
887.101	3.69687e-05
895.779	4.25752e-05
904.457	3.32529e-05
913.135	1.62535e-05
921.813	7.81999e-06
930.491	5.42065e-06
939.169	4.40298e-06
947.848	4.00741e-06
956.526	4.13087e-06
965.204	5.1687e-06
973.882	7.21333e-06
982.56	1.08648e-05
991.238	1.84383e-05
999.917	3.41861e-05
1008.59	6.18722e-05
1017.27	9.10757e-05
1025.95	0.000124939
1034.63	0.000155212
1043.31	0.000230781
1051.99	0.000262264
1060.66	0.000232206
1069.34	0.000235347
1078.02	0.00025134
1086.7	0.000169209
1095.38	9.93062e-05
1104.05	8.61652e-05
1112.73	5.26284e-05
1121.41	2.99062e-05
1130.09	2.04426e-05
1138.77	1.44471e-05
1147.45	1.09138e-05
1156.12	1.01102e-05
1164.8	1.00675e-05
1173.48	1.07005e-05
1182.16	1.29072e-05
1190.84	1.60167e-05
1199.51	2.0604e-05
1208.19	2.83445e-05
1216.87	4.586e-05
1225.55	6.70882e-05
1234.23	6.48438e-05
1242.9	6.63631e-05
1251.58	7.37142e-05
1260.26	6.23702e-05
1268.94	3.93118e-05
1277.62	2.59598e-05
1286.3	1.90353e-05
1294.97	1.61428e-05
1303.65	1.51048e-05
1312.33	1.49883e-05
1321.01	1.54145e-05
1329.69	1.56388e-05
1338.36	1.76638e-05
1347.04	1.98127e-05
1355.72	2.61387e-05
1364.4	3.95117e-05
1373.08	6.31585e-05
1381.76	8.52624e-05
1390.43	7.3551e-05
1399.11	7.51695e-05
1407.79	9.53246e-05
1416.47	5.94906e-05
1425.15	3.50057e-05
1433.82	2.8486e-05
1442.5	2.78647e-05
1451.18	3.37822e-05
1459.86	2.14102e-05
1468.54	1.98901e-05
1477.22	1.94482e-05
1485.89	1.44063e-05
1494.57	1.15985e-05
1503.25	8.7662e-06
1511.93	5.8339e-06
1520.61	3.53062e-06
1529.28	2.13996e-06
1537.96	1.29707e-06
1546.64	8.3093e-07
1555.32	6.31233e-07
1564	5.02465e-07
1572.67	4.11036e-07
1581.35	4.1211e-07
1590.03	4.15477e-07
1598.71	3.96005e-07
1607.39	4.06804e-07
1616.07	3.62526e-07
1624.74	3.3174e-07
1633.42	3.615e-07
1642.1	3.85882e-07
1650.78	3.97154e-07
1659.46	3.83937e-07
1668.13	4.51276e-07
1676.81	4.60611e-07
1685.49	5.18185e-07
1694.17	4.26663e-07
1702.85	4.75107e-07
1711.53	3.49164e-07
1720.2	3.49637e-07
1728.88	3.31283e-07
1737.56	4.003e-07
1746.24	4.71177e-07
1754.92	5.00344e-07
1763.59	6.16927e-07
1772.27	6.28153e-07
1780.95	5.30115e-07
1789.63	3.21217e-07
1798.31	1.51796e-07
1806.98	-2.74527e-08
1815.66	-1.19246e-07
1824.34	-1.58019e-07
1833.02	-1.87388e-07
1841.7	-1.99112e-07
1850.38	-1.66605e-07
1859.05	-9.42967e-08
1867.73	2.51408e-08
1876.41	1.72661e-07
1885.09	5.25272e-07
1893.77	1.13441e-06
1902.44	1.95159e-06
1911.12	2.54663e-06
1919.8	3.22911e-06
1928.48	3.68915e-06
1937.16	3.41841e-06
1945.84	3.32165e-06
1954.51	1.96618e-06
1963.19	1.23407e-06
1971.87	7.69012e-07
1980.55	4.739e-07
1989.23	4.87082e-07
1997.9	1.07818e-07
2006.58	-2.00564e-07
2015.26	-2.77335e-07
2023.94	-3.36425e-07
2032.62	-3.31593e-07
2041.3	-3.0015e-07
2049.97	-2.19222e-07
2058.65	-1.54453e-07
2067.33	-1.1608e-07
2076.01	-5.7124e-08
2084.69	2.25452e-07
2093.36	6.42982e-07
2102.04	1.11563e-06
2110.72	1.62195e-06
2119.4	1.63466e-06
2128.08	1.66298e-06
2136.75	1.02921e-06
2145.43	5.13993e-07
2154.11	4.43393e-07
2162.79	4.44715e-07
2171.47	4.05476e-07
2180.15	6.83691e-07
2188.82	4.25909e-07
2197.5	2.51598e-07
2206.18	7.5696e-08
2214.86	3.60882e-09
2223.54	1.41603e-07
2232.21	3.82475e-07
2240.89	7.51767e-07
2249.57	1.18004e-06
2258.25	1.25035e-06
2266.93	1.4545e-06
2275.61	1.5417e-06
2284.28	1.36478e-06
2292.96	9.44575e-07
2301.64	7.76495e-07
2310.32	9.26395e-07
2319	1.24027e-06
2327.67	1.93259e-06
2336.35	2.00216e-06
2345.03	1.62024e-06
2353.71	1.57019e-06
2362.39	2.28443e-06
2371.06	1.6426e-06
2379.74	1.14487e-06
2388.42	1.20938e-06
2397.1	1.40786e-06
2405.78	1.55965e-06
2414.46	1.66349e-06
2423.13	1.42152e-06
2431.81	1.18709e-06
2440.49	1.08068e-06
2449.17	8.52562e-07
2457.85	9.17429e-07
2466.52	9.54841e-07
2475.2	9.69843e-07
2483.88	1.07146e-06
2492.56	9.28821e-07
2501.24	7.37647e-07
2509.92	6.30448e-07
2518.59	6.05772e-07
2527.27	5.34228e-07
2535.95	5.13433e-07
2544.63	5.56676e-07
2553.31	6.63421e-07
2561.98	7.39591e-07
2570.66	8.97712e-07
2579.34	1.0607e-06
2588.02	1.27587e-06
2596.7	1.54312e-06
2605.38	1.6395e-06
2614.05	1.87241e-06
2622.73	2.34413e-06
2631.41	2.50773e-06
2640.09	2.73061e-06
2648.77	3.03866e-06
2657.44	3.25385e-06
2666.12	3.52619e-06
2674.8	3.67407e-06
2683.48	3.91906e-06
2692.16	4.24047e-06
2700.83	4.68477e-06
2709.51	5.60296e-06
2718.19	6.38691e-06
2726.87	7.05586e-06
2735.55	8.36311e-06
2744.23	9.81315e-06
2752.9	1.03539e-05
2761.58	1.11954e-05
2770.26	1.18663e-05
2778.94	1.31839e-05
2787.62	1.3795e-05
2796.29	1.63308e-05
2804.97	1.76948e-05
2813.65	1.9399e-05
2822.33	2.33381e-05
2831.01	2.79104e-05
2839.69	3.68589e-05
2848.36	4.97137e-05
2857.04	7.00684e-05
2865.72	9.98795e-05
2874.4	0.000116825
2883.08	0.000146782
2891.75	0.00015592
2900.43	0.000198947
2909.11	0.000163266
2917.79	0.000150455
2926.47	0.000144963
2935.14	0.000139455
2943.82	0.000144926
2952.5	0.000158308
2961.18	0.000179745
2969.86	0.000211746
2978.54	0.00020806
2987.21	0.000220306
2995.89	0.000175191
3004.57	0.000133846
3013.25	8.92397e-05
3021.93	5.42723e-05
3030.6	2.88844e-05
3039.28	1.30316e-05
3047.96	5.23767e-06
3056.64	2.04501e-06
3065.32	1.03221e-06
3074	7.33296e-07
3082.67	6.36003e-07
3091.35	6.37058e-07
3100.03	6.77498e-07
3108.71	5.89552e-07
3117.39	6.21408e-07
3126.06	6.34943e-07
3134.74	6.29427e-07
3143.42	5.53714e-07
3152.1	6.7411e-07
3160.78	7.27485e-07
3169.46	8.91747e-07
3178.13	1.02251e-06
3186.81	1.26835e-06
3195.49	1.50626e-06
3204.17	1.82549e-06
3212.85	1.96162e-06
3221.52	2.15007e-06
3230.2	1.95963e-06
3238.88	1.67695e-06
3247.56	1.0751e-06
3256.24	6.6567e-07
3264.91	1.52165e-07
3273.59	-1.51658e-07
3282.27	-2.42293e-07
3290.95	-2.60787e-07
3299.63	-3.38126e-07
3308.31	-2.37669e-07
3316.98	-2.9458e-07
3325.66	-2.93904e-07
3334.34	-3.33662e-07
3343.02	-1.74451e-07
3351.7	-1.6853e-07
3360.37	-1.56963e-08
3369.05	1.67744e-07
3377.73	4.56821e-07
3386.41	8.35902e-07
3395.09	8.72686e-07
3403.77	1.23717e-06
3412.44	1.33757e-06
3421.12	1.09252e-06
3429.8	9.26756e-07
3438.48	9.97871e-07
3447.16	1.13117e-06
3455.83	1.27014e-06
3464.51	1.41907e-06
3473.19	1.95652e-06
3481.87	1.61016e-06
3490.55	1.388e-06
3499.22	1.18814e-06
3507.9	1.08305e-06
3516.58	8.72821e-07
3525.26	7.32728e-07
3533.94	8.81007e-07
3542.62	7.16527e-07
3551.29	8.13009e-07
3559.97	8.94541e-07
3568.65	1.02267e-06
3577.33	7.60146e-07
3586.01	1.00588e-06
3594.68	1.71663e-06
3603.36	2.48162e-06
3612.04	4.0983e-06
3620.72	7.06324e-06
3629.4	1.13608e-05
3638.08	1.90405e-05
3646.75	3.12914e-05
3655.43	4.55676e-05
3664.11	5.16976e-05
3672.79	5.13971e-05
3681.47	4.2591e-05
3690.14	4.33811e-05
3698.82	2.69352e-05
3707.5	1.13926e-05
3716.18	4.97795e-06
3724.86	2.77974e-06
3733.54	1.86225e-06
3742.21	1.42905e-06
3750.89	1.50461e-06
3759.57	1.3661e-06
3768.25	1.14414e-06
3776.93	1.36902e-06
3785.6	1.78294e-06
3794.28	1.79308e-06
3802.96	1.55233e-06
3811.64	1.68562e-06
3820.32	1.68396e-06
3828.99	2.06695e-06
3837.67	2.25975e-06
3846.35	2.42769e-06
3855.03	2.38733e-06
3863.71	2.34068e-06
3872.39	1.99872e-06
3881.06	1.93233e-06
3889.74	1.69138e-06
3898.42	1.59657e-06
3907.1	1.37764e-06
3915.78	1.26951e-06
3924.45	1.14491e-06
3933.13	8.74209e-07
3941.81	9.1475e-07
3950.49	8.92134e-07
3959.17	1.02775e-06
3967.85	1.11767e-06
