Infrared Spectrum: Ethanol
Formula: C2 H5 O H
CAS: 64-17-5
State: gas
Melting point: -117.3 C
Boiling point: 78.5 C
Class: IUPAC A
Instrument: IFS66V (Bruker)
Instrument parameters: KBr Beam splitter; MCT Detector; Multipass cell
Sampling: 1 L/min Flow
Resolution: 0.9640
Temperature: 23 C
Pressure: 101.3 kPa
Origin: NIST, Anayltical Chemistry Division, 301-975-3108
cm-1	(micromol/mol)-1m-1 (base 10)
575.169	2.47294e-06
583.847	2.51643e-06
592.525	2.40977e-06
601.203	2.40637e-06
609.882	2.35109e-06
618.56	2.22933e-06
627.238	2.94176e-06
635.916	2.61355e-06
644.594	2.64603e-06
653.272	1.96305e-06
661.951	1.50918e-06
670.629	1.29998e-06
679.307	1.70259e-06
687.985	1.10696e-06
696.663	8.70371e-07
705.341	3.75081e-07
714.019	2.77259e-07
722.698	6.37424e-07
731.376	9.59115e-07
740.054	7.3541e-07
748.732	6.9387e-07
757.41	1.01389e-06
766.088	1.44215e-06
774.767	2.66209e-06
783.445	3.46561e-06
792.123	3.98896e-06
800.801	7.09987e-06
809.479	4.02103e-06
818.157	3.87926e-06
826.835	4.1363e-06
835.514	4.33438e-06
844.192	6.2955e-06
852.87	1.33904e-05
861.548	2.73851e-05
870.226	3.80271e-05
878.904	5.27503e-05
887.583	3.64325e-05
896.261	4.2388e-05
904.939	3.20907e-05
913.617	1.53523e-05
922.295	7.38569e-06
930.973	5.05857e-06
939.651	4.24395e-06
948.33	3.95285e-06
957.008	4.07803e-06
965.686	5.11823e-06
974.364	7.15376e-06
983.042	1.08587e-05
991.72	1.88303e-05
1000.4	3.51034e-05
1009.08	6.33133e-05
1017.75	9.06064e-05
1026.43	0.000132611
1035.11	0.000158251
1043.79	0.000233952
1052.47	0.000264264
1061.15	0.00022765
1069.82	0.000237818
1078.5	0.000248016
1087.18	0.000164988
1095.86	9.81187e-05
1104.54	8.6221e-05
1113.21	5.11449e-05
1121.89	2.90474e-05
1130.57	1.91577e-05
1139.25	1.40814e-05
1147.93	1.09058e-05
1156.61	1.00683e-05
1165.28	1.00734e-05
1173.96	1.07693e-05
1182.64	1.31609e-05
1191.32	1.62051e-05
1200	2.08022e-05
1208.67	2.85775e-05
1217.35	4.56534e-05
1226.03	7.13856e-05
1234.71	6.28096e-05
1243.39	6.56192e-05
1252.07	7.6192e-05
1260.74	6.11017e-05
1269.42	3.79127e-05
1278.1	2.58335e-05
1286.78	1.9077e-05
1295.46	1.62252e-05
1304.13	1.53703e-05
1312.81	1.50615e-05
1321.49	1.57286e-05
1330.17	1.56398e-05
1338.85	1.76504e-05
1347.52	2.02129e-05
1356.2	2.6501e-05
1364.88	4.09968e-05
1373.56	6.43155e-05
1382.24	8.5422e-05
1390.92	7.47552e-05
1399.59	7.6442e-05
1408.27	9.47579e-05
1416.95	5.72007e-05
1425.63	3.44819e-05
1434.31	2.81826e-05
1442.98	2.79962e-05
1451.66	3.23695e-05
1460.34	2.12845e-05
1469.02	1.95796e-05
1477.7	1.95039e-05
1486.38	1.41077e-05
1495.05	1.10598e-05
1503.73	8.62797e-06
1512.41	5.71215e-06
1521.09	3.49609e-06
1529.77	2.14378e-06
1538.44	1.34323e-06
1547.12	8.59254e-07
1555.8	6.96694e-07
1564.48	5.55801e-07
1573.16	4.81618e-07
1581.83	4.34364e-07
1590.51	4.60753e-07
1599.19	3.64278e-07
1607.87	4.15713e-07
1616.55	2.85135e-07
1625.23	3.32127e-07
1633.9	2.82476e-07
1642.58	3.33992e-07
1651.26	3.98816e-07
1659.94	4.20366e-07
1668.62	4.01901e-07
1677.29	4.43771e-07
1685.97	5.29121e-07
1694.65	4.16916e-07
1703.33	4.30291e-07
1712.01	3.87647e-07
1720.69	3.40841e-07
1729.36	4.05034e-07
1738.04	3.96589e-07
1746.72	4.84465e-07
1755.4	5.6505e-07
1764.08	6.29583e-07
1772.75	6.59772e-07
1781.43	4.28667e-07
1790.11	2.5179e-07
1798.79	1.19944e-07
1807.47	-3.96342e-08
1816.15	-9.12863e-08
1824.82	-1.60779e-07
1833.5	-1.0776e-07
1842.18	-2.11009e-07
1850.86	-8.03794e-08
1859.54	-9.82238e-08
1868.21	3.17918e-08
1876.89	2.44864e-07
1885.57	5.4279e-07
1894.25	1.13068e-06
1902.93	2.05985e-06
1911.6	2.59245e-06
1920.28	3.25698e-06
1928.96	3.67989e-06
1937.64	3.35464e-06
1946.32	3.17599e-06
1955	1.94811e-06
1963.67	1.25205e-06
1972.35	7.24526e-07
1981.03	5.18166e-07
1989.71	5.30935e-07
1998.39	1.07909e-07
2007.06	-1.78939e-07
2015.74	-3.21423e-07
2024.42	-2.57722e-07
2033.1	-3.72442e-07
2041.78	-2.65196e-07
2050.46	-2.52548e-07
2059.13	-1.53016e-07
2067.81	-1.26518e-07
2076.49	5.08545e-08
2085.17	2.65671e-07
2093.85	6.69181e-07
2102.52	9.17414e-07
2111.2	1.88504e-06
2119.88	2.22806e-06
2128.56	1.44111e-06
2137.24	1.01053e-06
2145.91	4.62416e-07
2154.59	1.00679e-06
2163.27	3.99159e-07
2171.95	1.14541e-07
2180.63	2.24941e-07
2189.31	1.82551e-07
2197.98	1.99254e-07
2206.66	1.27071e-07
2215.34	-2.63581e-08
2224.02	1.80863e-07
2232.7	3.61064e-07
2241.37	7.31016e-07
2250.05	1.22118e-06
2258.73	1.24262e-06
2267.41	1.37596e-06
2276.09	1.41983e-06
2284.77	1.33374e-06
2293.44	8.0812e-07
2302.12	7.45102e-07
2310.8	9.54965e-07
2319.48	1.36391e-06
2328.16	1.71723e-06
2336.83	2.15909e-07
2345.51	1.30669e-06
2354.19	2.38203e-06
2362.87	4.59332e-06
2371.55	2.61615e-06
2380.23	1.18925e-06
2388.9	1.23664e-06
2397.58	1.40219e-06
2406.26	1.652e-06
2414.94	1.73916e-06
2423.62	1.41945e-06
2432.29	1.31311e-06
2440.97	1.07566e-06
2449.65	8.53071e-07
2458.33	9.37685e-07
2467.01	9.57682e-07
2475.68	9.44569e-07
2484.36	1.17082e-06
2493.04	9.96519e-07
2501.72	6.90393e-07
2510.4	6.31226e-07
2519.08	6.06816e-07
2527.75	4.97316e-07
2536.43	4.08693e-07
2545.11	6.18556e-07
2553.79	6.72199e-07
2562.47	5.94379e-07
2571.14	9.10602e-07
2579.82	1.08293e-06
2588.5	1.16639e-06
2597.18	1.59158e-06
2605.86	1.64811e-06
2614.54	1.92758e-06
2623.21	2.33526e-06
2631.89	2.53811e-06
2640.57	2.74374e-06
2649.25	3.00157e-06
2657.93	3.23188e-06
2666.6	3.54948e-06
2675.28	3.65584e-06
2683.96	3.86913e-06
2692.64	4.15291e-06
2701.32	4.76331e-06
2709.99	5.61463e-06
2718.67	6.4314e-06
2727.35	7.13395e-06
2736.03	8.55698e-06
2744.71	9.77219e-06
2753.39	1.02977e-05
2762.06	1.12065e-05
2770.74	1.19782e-05
2779.42	1.33822e-05
2788.1	1.388e-05
2796.78	1.64999e-05
2805.45	1.77255e-05
2814.13	1.95348e-05
2822.81	2.36747e-05
2831.49	2.82263e-05
2840.17	3.75515e-05
2848.85	5.05585e-05
2857.52	7.12776e-05
2866.2	0.000101492
2874.88	0.000117343
2883.56	0.000147451
2892.24	0.000156548
2900.91	0.000215711
2909.59	0.000162028
2918.27	0.000150271
2926.95	0.000144309
2935.63	0.000140292
2944.31	0.000145209
2952.98	0.00015914
2961.66	0.000180123
2970.34	0.000212399
2979.02	0.000210917
2987.7	0.000215099
2996.37	0.000171964
3005.05	0.000132771
3013.73	8.72332e-05
3022.41	5.28768e-05
3031.09	2.788e-05
3039.76	1.2606e-05
3048.44	4.95688e-06
3057.12	1.90222e-06
3065.8	9.96146e-07
3074.48	9.2225e-07
3083.16	6.44045e-07
3091.83	6.63062e-07
3100.51	7.28914e-07
3109.19	5.26927e-07
3117.87	5.95989e-07
3126.55	7.37735e-07
3135.22	6.16275e-07
3143.9	7.33527e-07
3152.58	8.73854e-07
3161.26	6.96892e-07
3169.94	8.22114e-07
3178.62	1.17464e-06
3187.29	1.30813e-06
3195.97	1.44791e-06
3204.65	1.73397e-06
3213.33	2.14051e-06
3222.01	2.14972e-06
3230.68	1.86813e-06
3239.36	2.0415e-06
3248.04	9.96288e-07
3256.72	8.53531e-07
3265.4	2.64615e-07
3274.07	-5.83431e-10
3282.75	-3.416e-07
3291.43	-2.56269e-07
3300.11	-2.51192e-07
3308.79	-1.92491e-07
3317.47	-6.38623e-08
3326.14	-3.06342e-07
3334.82	-2.99242e-07
3343.5	-1.01754e-07
3352.18	1.21675e-08
3360.86	-2.03622e-07
3369.53	3.68891e-07
3378.21	5.44447e-07
3386.89	9.42078e-07
3395.57	9.4063e-07
3404.25	1.26787e-06
3412.93	1.38435e-06
3421.6	1.18347e-06
3430.28	9.03704e-07
3438.96	9.68145e-07
3447.64	1.23356e-06
3456.32	1.36406e-06
3464.99	1.3605e-06
3473.67	2.21559e-06
3482.35	1.62248e-06
3491.03	1.51424e-06
3499.71	1.20117e-06
3508.39	1.04967e-06
3517.06	9.68705e-07
3525.74	8.9523e-07
3534.42	8.63344e-07
3543.1	7.45076e-07
3551.78	8.63322e-07
3560.45	8.24791e-07
3569.13	1.05061e-06
3577.81	9.80273e-07
3586.49	1.11445e-06
3595.17	1.68024e-06
3603.84	2.62992e-06
3612.52	4.35846e-06
3621.2	7.31721e-06
3629.88	1.18608e-05
3638.56	1.95051e-05
3647.24	3.1149e-05
3655.91	5.09421e-05
3664.59	5.19354e-05
3673.27	5.16777e-05
3681.95	4.26208e-05
3690.63	4.29579e-05
3699.3	2.58591e-05
3707.98	1.07666e-05
3716.66	4.61277e-06
3725.34	2.63894e-06
3734.02	1.68474e-06
3742.7	1.40029e-06
3751.37	1.54099e-06
3760.05	1.31055e-06
3768.73	1.04526e-06
3777.41	1.44088e-06
3786.09	1.8773e-06
3794.76	1.629e-06
3803.44	1.67626e-06
3812.12	1.80051e-06
3820.8	1.60505e-06
3829.48	2.06038e-06
3838.16	2.1852e-06
3846.83	2.58735e-06
3855.51	2.26878e-06
3864.19	2.41048e-06
3872.87	2.08746e-06
3881.55	1.90648e-06
3890.22	1.52595e-06
3898.9	1.64191e-06
3907.58	1.45934e-06
3916.26	1.07626e-06
3924.94	1.35251e-06
3933.61	8.57069e-07
3942.29	8.11981e-07
3950.97	7.81608e-07
3959.65	8.9763e-07
3968.33	1.14123e-06
