Infrared Spectrum: Ethanol
Formula: C2 H5 O H
CAS: 64-17-5
State: gas
Melting point: -117.3 C
Boiling point: 78.5 C
Class: IUPAC A
Instrument: IFS66V (Bruker)
Instrument parameters: KBr Beam splitter; MCT Detector; Multipass cell
Sampling: 1 L/min Flow
Resolution: 0.4820
Temperature: 23 C
Pressure: 101.3 kPa
Origin: NIST, Anayltical Chemistry Division, 301-975-3108
cm-1	(micromol/mol)-1m-1 (base 10)
574.928	1.92552e-06
583.606	3.61909e-06
592.284	2.03063e-06
600.962	2.81806e-06
609.641	2.84138e-06
618.319	2.24193e-06
626.997	2.64875e-06
635.675	2.60303e-06
644.353	2.68268e-06
653.031	1.70641e-06
661.71	1.78548e-06
670.388	1.31214e-06
679.066	1.61513e-06
687.744	9.75731e-07
696.422	5.10247e-07
705.1	5.28049e-07
713.778	3.19509e-07
722.457	4.0245e-07
731.135	9.20321e-07
739.813	7.84952e-07
748.491	7.39411e-07
757.169	1.13249e-06
765.847	1.59984e-06
774.526	2.66821e-06
783.204	3.53913e-06
791.882	3.63811e-06
800.56	6.25055e-06
809.238	4.08852e-06
817.916	3.83172e-06
826.594	4.0418e-06
835.273	4.41978e-06
843.951	6.22267e-06
852.629	1.3008e-05
861.307	2.73343e-05
869.985	3.84256e-05
878.663	4.21007e-05
887.342	3.65239e-05
896.02	4.24902e-05
904.698	3.27896e-05
913.376	1.58394e-05
922.054	7.6544e-06
930.732	5.33926e-06
939.41	4.43813e-06
948.089	4.11097e-06
956.767	4.07205e-06
965.445	5.11346e-06
974.123	7.30299e-06
982.801	1.09593e-05
991.479	1.86008e-05
1000.16	3.45392e-05
1008.84	6.27678e-05
1017.51	9.11805e-05
1026.19	0.000128119
1034.87	0.000157096
1043.55	0.000233237
1052.23	0.00026311
1060.9	0.000228886
1069.58	0.000231004
1078.26	0.000249514
1086.94	0.000168396
1095.62	9.82098e-05
1104.3	8.60204e-05
1112.97	5.16786e-05
1121.65	2.94077e-05
1130.33	1.98705e-05
1139.01	1.42543e-05
1147.69	1.07303e-05
1156.36	1.00574e-05
1165.04	1.01434e-05
1173.72	1.06998e-05
1182.4	1.30415e-05
1191.08	1.6053e-05
1199.76	2.05914e-05
1208.43	2.8212e-05
1217.11	4.51359e-05
1225.79	6.55708e-05
1234.47	6.33065e-05
1243.15	6.58201e-05
1251.82	7.38697e-05
1260.5	6.129e-05
1269.18	3.88342e-05
1277.86	2.56482e-05
1286.54	1.89537e-05
1295.21	1.61388e-05
1303.89	1.5299e-05
1312.57	1.49784e-05
1321.25	1.55423e-05
1329.93	1.5593e-05
1338.61	1.79914e-05
1347.28	2.00009e-05
1355.96	2.62194e-05
1364.64	4.02951e-05
1373.32	6.36175e-05
1382	8.55524e-05
1390.67	7.44424e-05
1399.35	7.60411e-05
1408.03	9.52489e-05
1416.71	5.84557e-05
1425.39	3.48909e-05
1434.07	2.80129e-05
1442.74	2.74057e-05
1451.42	3.25173e-05
1460.1	2.1407e-05
1468.78	1.96857e-05
1477.46	1.93106e-05
1486.13	1.42846e-05
1494.81	1.1281e-05
1503.49	8.66894e-06
1512.17	5.69352e-06
1520.85	3.49423e-06
1529.52	2.10131e-06
1538.2	1.30095e-06
1546.88	7.99334e-07
1555.56	6.02047e-07
1564.24	5.29906e-07
1572.92	4.39863e-07
1581.59	4.54901e-07
1590.27	3.92397e-07
1598.95	3.66177e-07
1607.63	4.16303e-07
1616.31	2.88508e-07
1624.98	2.76669e-07
1633.66	3.57667e-07
1642.34	3.88721e-07
1651.02	4.12791e-07
1659.7	4.20433e-07
1668.38	3.89292e-07
1677.05	4.17364e-07
1685.73	5.12785e-07
1694.41	3.83623e-07
1703.09	4.62188e-07
1711.77	3.94675e-07
1720.44	3.04148e-07
1729.12	3.14819e-07
1737.8	3.31781e-07
1746.48	4.80059e-07
1755.16	4.71027e-07
1763.84	6.41188e-07
1772.51	6.04628e-07
1781.19	4.72966e-07
1789.87	3.03517e-07
1798.55	1.69419e-07
1807.23	-4.92756e-09
1815.9	-1.52783e-07
1824.58	-1.7258e-07
1833.26	-2.1339e-07
1841.94	-1.87311e-07
1850.62	-1.62089e-07
1859.29	-8.52856e-08
1867.97	4.85735e-08
1876.65	2.07413e-07
1885.33	5.4998e-07
1894.01	1.13155e-06
1902.69	2.03671e-06
1911.36	2.5501e-06
1920.04	3.24222e-06
1928.72	3.67203e-06
1937.4	3.412e-06
1946.08	3.2091e-06
1954.75	1.96866e-06
1963.43	1.26114e-06
1972.11	7.81023e-07
1980.79	4.80472e-07
1989.47	5.60925e-07
1998.15	1.51777e-07
2006.82	-1.584e-07
2015.5	-2.95729e-07
2024.18	-2.92208e-07
2032.86	-3.67587e-07
2041.54	-2.51695e-07
2050.21	-2.41857e-07
2058.89	-1.3448e-07
2067.57	-1.45785e-07
2076.25	2.09749e-08
2084.93	1.77526e-07
2093.6	6.29032e-07
2102.28	1.01177e-06
2110.96	1.42554e-06
2119.64	2.43258e-06
2128.32	1.47388e-06
2137	9.89411e-07
2145.67	4.69692e-07
2154.35	6.90939e-07
2163.03	2.68478e-07
2171.71	2.61189e-07
2180.39	3.60691e-07
2189.06	3.29287e-07
2197.74	1.99002e-07
2206.42	3.25856e-07
2215.1	-2.77505e-08
2223.78	1.38265e-07
2232.46	4.20072e-07
2241.13	8.09297e-07
2249.81	1.17245e-06
2258.49	1.21098e-06
2267.17	1.5023e-06
2275.85	1.4376e-06
2284.52	1.37876e-06
2293.2	9.77362e-07
2301.88	7.45791e-07
2310.56	9.3931e-07
2319.24	2.17293e-06
2327.92	1.28368e-06
2336.59	1.09843e-06
2345.27	1.04829e-06
2353.95	1.01485e-06
2362.63	3.51147e-06
2371.31	2.27211e-06
2379.98	1.21017e-06
2388.66	1.28552e-06
2397.34	1.38182e-06
2406.02	1.62563e-06
2414.7	1.60151e-06
2423.37	1.43393e-06
2432.05	1.2337e-06
2440.73	1.03961e-06
2449.41	8.14116e-07
2458.09	9.46653e-07
2466.77	9.54535e-07
2475.44	9.98654e-07
2484.12	1.13236e-06
2492.8	9.42045e-07
2501.48	7.88287e-07
2510.16	6.04098e-07
2518.83	5.9045e-07
2527.51	5.01824e-07
2536.19	4.39297e-07
2544.87	5.85802e-07
2553.55	6.92457e-07
2562.23	6.65427e-07
2570.9	9.19053e-07
2579.58	1.09325e-06
2588.26	1.17802e-06
2596.94	1.57034e-06
2605.62	1.61967e-06
2614.29	1.87325e-06
2622.97	2.37995e-06
2631.65	2.61974e-06
2640.33	2.75476e-06
2649.01	3.01165e-06
2657.68	3.2174e-06
2666.36	3.48607e-06
2675.04	3.66979e-06
2683.72	3.95327e-06
2692.4	4.253e-06
2701.08	4.70491e-06
2709.75	5.6631e-06
2718.43	6.39062e-06
2727.11	7.15112e-06
2735.79	8.44389e-06
2744.47	9.79834e-06
2753.14	1.02395e-05
2761.82	1.1201e-05
2770.5	1.18258e-05
2779.18	1.32581e-05
2787.86	1.38099e-05
2796.54	1.64135e-05
2805.21	1.77782e-05
2813.89	1.94392e-05
2822.57	2.35584e-05
2831.25	2.79669e-05
2839.93	3.71877e-05
2848.6	5.013e-05
2857.28	7.06991e-05
2865.96	0.000100816
2874.64	0.000116813
2883.32	0.00014646
2892	0.000156627
2900.67	0.000218088
2909.35	0.000162008
2918.03	0.000149532
2926.71	0.000144404
2935.39	0.000140036
2944.06	0.000145037
2952.74	0.000158517
2961.42	0.000180349
2970.1	0.000210466
2978.78	0.000212544
2987.45	0.000221555
2996.13	0.000174367
3004.81	0.000133863
3013.49	8.8019e-05
3022.17	5.33423e-05
3030.85	2.83765e-05
3039.52	1.27002e-05
3048.2	5.07704e-06
3056.88	1.87435e-06
3065.56	9.67428e-07
3074.24	6.93318e-07
3082.91	5.78046e-07
3091.59	5.73606e-07
3100.27	6.1763e-07
3108.95	5.50155e-07
3117.63	5.75617e-07
3126.31	7.07027e-07
3134.98	5.65083e-07
3143.66	5.83373e-07
3152.34	8.17779e-07
3161.02	6.99077e-07
3169.7	8.37768e-07
3178.37	1.08155e-06
3187.05	1.26185e-06
3195.73	1.48231e-06
3204.41	1.7134e-06
3213.09	2.11906e-06
3221.77	2.25195e-06
3230.44	1.9176e-06
3239.12	1.78799e-06
3247.8	1.12542e-06
3256.48	6.97037e-07
3265.16	1.15401e-07
3273.83	-1.79478e-07
3282.51	-3.4834e-07
3291.19	-2.89447e-07
3299.87	-3.27078e-07
3308.55	-2.45821e-07
3317.22	-1.63623e-07
3325.9	-2.74771e-07
3334.58	-3.10941e-07
3343.26	3.55084e-08
3351.94	-5.70949e-08
3360.62	-7.01164e-08
3369.29	2.18191e-07
3377.97	4.01415e-07
3386.65	8.70986e-07
3395.33	9.30622e-07
3404.01	1.31979e-06
3412.68	1.35418e-06
3421.36	1.26613e-06
3430.04	8.31071e-07
3438.72	1.01552e-06
3447.4	1.06939e-06
3456.08	1.23702e-06
3464.75	1.37088e-06
3473.43	1.9907e-06
3482.11	1.57586e-06
3490.79	1.4298e-06
3499.47	1.20286e-06
3508.14	1.04652e-06
3516.82	8.71639e-07
3525.5	6.8171e-07
3534.18	8.13523e-07
3542.86	5.95231e-07
3551.53	7.05523e-07
3560.21	7.65973e-07
3568.89	1.09959e-06
3577.57	8.73888e-07
3586.25	1.12094e-06
3594.93	1.66153e-06
3603.6	2.58697e-06
3612.28	4.13654e-06
3620.96	7.11289e-06
3629.64	1.14794e-05
3638.32	1.86888e-05
3646.99	3.06665e-05
3655.67	4.88349e-05
3664.35	5.11713e-05
3673.03	5.16548e-05
3681.71	4.28515e-05
3690.39	4.31761e-05
3699.06	2.64695e-05
3707.74	1.10635e-05
3716.42	4.78401e-06
3725.1	2.682e-06
3733.78	2.02159e-06
3742.45	1.47528e-06
3751.13	1.47789e-06
3759.81	1.40268e-06
3768.49	1.06192e-06
3777.17	1.43585e-06
3785.85	1.88553e-06
3794.52	1.7288e-06
3803.2	1.64265e-06
3811.88	1.82069e-06
3820.56	1.68089e-06
3829.24	2.05306e-06
3837.91	2.16896e-06
3846.59	2.43326e-06
3855.27	2.40263e-06
3863.95	2.2986e-06
3872.63	2.0273e-06
3881.3	1.79774e-06
3889.98	1.6543e-06
3898.66	1.57375e-06
3907.34	1.40003e-06
3916.02	1.17359e-06
3924.7	1.20898e-06
3933.37	7.62008e-07
3942.05	7.7619e-07
3950.73	9.32715e-07
3959.41	1.04579e-06
3968.09	1.06911e-06
