Infrared Spectrum: Ethanol
Formula: C2 H5 O H
CAS: 64-17-5
State: gas
Melting point: -117.3 C
Boiling point: 78.5 C
Class: IUPAC A
Instrument: IFS66V (Bruker)
Instrument parameters: KBr Beam splitter; MCT Detector; Multipass cell
Sampling: 1 L/min Flow
Resolution: 0.9640
Temperature: 23 C
Pressure: 101.3 kPa
Origin: NIST, Anayltical Chemistry Division, 301-975-3108
cm-1	(micromol/mol)-1m-1 (base 10)
575.169	2.20563e-06
583.847	2.95504e-06
592.525	2.30098e-06
601.203	2.53114e-06
609.882	2.68991e-06
618.56	2.45113e-06
627.238	2.83921e-06
635.916	2.53978e-06
644.594	2.52019e-06
653.272	1.74615e-06
661.951	1.6938e-06
670.629	1.29037e-06
679.307	1.48071e-06
687.985	1.04895e-06
696.663	7.83472e-07
705.341	5.28302e-07
714.019	3.68926e-07
722.698	5.16179e-07
731.376	8.01983e-07
740.054	7.87969e-07
748.732	7.19711e-07
757.41	1.01065e-06
766.088	1.53114e-06
774.767	2.57145e-06
783.445	3.50561e-06
792.123	3.83756e-06
800.801	6.8986e-06
809.479	4.01931e-06
818.157	3.91169e-06
826.835	4.02874e-06
835.514	4.26058e-06
844.192	6.31107e-06
852.87	1.32955e-05
861.548	2.74155e-05
870.226	3.81385e-05
878.904	5.56071e-05
887.583	3.68228e-05
896.261	4.26242e-05
904.939	3.2299e-05
913.617	1.53932e-05
922.295	7.56573e-06
930.973	5.21893e-06
939.651	4.35984e-06
948.33	4.02325e-06
957.008	4.1773e-06
965.686	5.23981e-06
974.364	7.31404e-06
983.042	1.10559e-05
991.72	1.90362e-05
1000.4	3.53248e-05
1009.08	6.3668e-05
1017.75	9.1368e-05
1026.43	0.000134827
1035.11	0.000160198
1043.79	0.000234177
1052.47	0.000264052
1061.15	0.000229394
1069.82	0.000235277
1078.5	0.000248588
1087.18	0.000164109
1095.86	9.81742e-05
1104.54	8.52413e-05
1113.21	5.11113e-05
1121.89	2.90968e-05
1130.57	1.97641e-05
1139.25	1.40661e-05
1147.93	1.08192e-05
1156.61	1.00301e-05
1165.28	1.01741e-05
1173.96	1.07032e-05
1182.64	1.31067e-05
1191.32	1.62086e-05
1200	2.07743e-05
1208.67	2.865e-05
1217.35	4.65855e-05
1226.03	6.96809e-05
1234.71	6.36689e-05
1243.39	6.2803e-05
1252.07	7.44732e-05
1260.74	6.11631e-05
1269.42	3.78488e-05
1278.1	2.55799e-05
1286.78	1.89384e-05
1295.46	1.61366e-05
1304.13	1.52444e-05
1312.81	1.49773e-05
1321.49	1.56192e-05
1330.17	1.5724e-05
1338.85	1.75827e-05
1347.52	2.01103e-05
1356.2	2.66364e-05
1364.88	4.07805e-05
1373.56	6.4444e-05
1382.24	8.55195e-05
1390.92	7.57901e-05
1399.59	7.64952e-05
1408.27	9.47147e-05
1416.95	5.71845e-05
1425.63	3.44126e-05
1434.31	2.83805e-05
1442.98	2.78519e-05
1451.66	3.23598e-05
1460.34	2.13236e-05
1469.02	1.96577e-05
1477.7	1.94227e-05
1486.38	1.41232e-05
1495.05	1.1122e-05
1503.73	8.63983e-06
1512.41	5.70132e-06
1521.09	3.43843e-06
1529.77	2.10385e-06
1538.44	1.31249e-06
1547.12	8.27845e-07
1555.8	6.43714e-07
1564.48	5.12249e-07
1573.16	4.31108e-07
1581.83	4.08463e-07
1590.51	4.1498e-07
1599.19	3.71412e-07
1607.87	3.75557e-07
1616.55	3.18654e-07
1625.23	3.10986e-07
1633.9	3.38753e-07
1642.58	3.63922e-07
1651.26	4.12933e-07
1659.94	3.95141e-07
1668.62	4.27289e-07
1677.29	4.36533e-07
1685.97	5.21658e-07
1694.65	4.18484e-07
1703.33	4.55249e-07
1712.01	3.5444e-07
1720.69	3.5583e-07
1729.36	3.54197e-07
1738.04	3.98731e-07
1746.72	4.62366e-07
1755.4	5.5103e-07
1764.08	6.08793e-07
1772.75	6.28426e-07
1781.43	4.43228e-07
1790.11	2.71893e-07
1798.79	1.27091e-07
1807.47	-3.30009e-08
1816.15	-1.18233e-07
1824.82	-1.68392e-07
1833.5	-1.60749e-07
1842.18	-1.95283e-07
1850.86	-1.18809e-07
1859.54	-9.03273e-08
1868.21	3.33361e-08
1876.89	1.99772e-07
1885.57	5.59042e-07
1894.25	1.17505e-06
1902.93	2.04696e-06
1911.6	2.59732e-06
1920.28	3.29553e-06
1928.96	3.67915e-06
1937.64	3.34692e-06
1946.32	3.19893e-06
1955	1.92805e-06
1963.67	1.23834e-06
1972.35	7.31328e-07
1981.03	4.79876e-07
1989.71	5.10416e-07
1998.39	8.46185e-08
2007.06	-1.95442e-07
2015.74	-3.14334e-07
2024.42	-3.13635e-07
2033.1	-3.44146e-07
2041.78	-2.88419e-07
2050.46	-2.32918e-07
2059.13	-1.55741e-07
2067.81	-1.4128e-07
2076.49	1.50187e-08
2085.17	2.1668e-07
2093.85	6.41896e-07
2102.52	1.15971e-06
2111.2	1.89232e-06
2119.88	1.90149e-06
2128.56	1.46439e-06
2137.24	1.00394e-06
2145.91	4.92694e-07
2154.59	7.04399e-07
2163.27	2.64949e-07
2171.95	3.84592e-07
2180.63	4.29601e-07
2189.31	4.52197e-07
2197.98	1.35789e-07
2206.66	1.27312e-07
2215.34	1.31374e-09
2224.02	1.89135e-07
2232.7	3.91896e-07
2241.37	7.57249e-07
2250.05	1.23258e-06
2258.73	1.24168e-06
2267.41	1.43769e-06
2276.09	1.46355e-06
2284.77	1.35552e-06
2293.44	8.86356e-07
2302.12	8.34518e-07
2310.8	1.02882e-06
2319.48	1.39968e-06
2328.16	1.92572e-06
2336.83	1.20845e-06
2345.51	1.40079e-06
2354.19	1.92313e-06
2362.87	2.83003e-06
2371.55	1.75132e-06
2380.23	1.19444e-06
2388.9	1.22447e-06
2397.58	1.40914e-06
2406.26	1.62259e-06
2414.94	1.68252e-06
2423.62	1.43654e-06
2432.29	1.22366e-06
2440.97	1.07072e-06
2449.65	8.44971e-07
2458.33	9.0632e-07
2467.01	9.54819e-07
2475.68	9.57201e-07
2484.36	1.14429e-06
2493.04	9.48177e-07
2501.72	7.17723e-07
2510.4	6.25446e-07
2519.08	6.21863e-07
2527.75	5.20519e-07
2536.43	4.80568e-07
2545.11	5.92451e-07
2553.79	6.68346e-07
2562.47	6.75372e-07
2571.14	8.94632e-07
2579.82	1.08804e-06
2588.5	1.22643e-06
2597.18	1.54367e-06
2605.86	1.67252e-06
2614.54	1.92191e-06
2623.21	2.31157e-06
2631.89	2.54279e-06
2640.57	2.76215e-06
2649.25	3.02657e-06
2657.93	3.26721e-06
2666.6	3.5332e-06
2675.28	3.68545e-06
2683.96	3.91949e-06
2692.64	4.21261e-06
2701.32	4.73502e-06
2709.99	5.6135e-06
2718.67	6.44807e-06
2727.35	7.13483e-06
2736.03	8.4843e-06
2744.71	9.83027e-06
2753.39	1.03293e-05
2762.06	1.11992e-05
2770.74	1.19512e-05
2779.42	1.33037e-05
2788.1	1.38934e-05
2796.78	1.64386e-05
2805.45	1.7761e-05
2814.13	1.95602e-05
2822.81	2.36227e-05
2831.49	2.83001e-05
2840.17	3.75214e-05
2848.85	5.06313e-05
2857.52	7.13373e-05
2866.2	0.000101614
2874.88	0.00011733
2883.56	0.00014766
2892.24	0.000156962
2900.91	0.000210175
2909.59	0.000162725
2918.27	0.000150328
2926.95	0.000144472
2935.63	0.000140106
2944.31	0.000145395
2952.98	0.000159228
2961.66	0.000180423
2970.34	0.000212812
2979.02	0.000209245
2987.7	0.000217513
2996.37	0.000173066
3005.05	0.000131997
3013.73	8.71277e-05
3022.41	5.27388e-05
3031.09	2.78203e-05
3039.76	1.24436e-05
3048.44	4.93503e-06
3057.12	1.91355e-06
3065.8	9.78105e-07
3074.48	8.01022e-07
3083.16	6.38848e-07
3091.83	6.38257e-07
3100.51	6.778e-07
3109.19	5.61207e-07
3117.87	6.52936e-07
3126.55	6.54043e-07
3135.22	5.69204e-07
3143.9	6.09382e-07
3152.58	7.62247e-07
3161.26	7.08992e-07
3169.94	8.84506e-07
3178.62	1.05968e-06
3187.29	1.26744e-06
3195.97	1.46146e-06
3204.65	1.83474e-06
3213.33	2.00317e-06
3222.01	2.17153e-06
3230.68	1.91669e-06
3239.36	1.83844e-06
3248.04	1.01309e-06
3256.72	7.03984e-07
3265.4	1.85675e-07
3274.07	-8.36026e-08
3282.75	-3.65004e-07
3291.43	-3.08613e-07
3300.11	-3.4166e-07
3308.79	-2.16815e-07
3317.47	-1.32078e-07
3326.14	-3.309e-07
3334.82	-3.47685e-07
3343.5	-8.21788e-08
3352.18	-1.01705e-07
3360.86	-1.11377e-07
3369.53	2.41236e-07
3378.21	5.20459e-07
3386.89	8.72802e-07
3395.57	8.90169e-07
3404.25	1.25393e-06
3412.93	1.38554e-06
3421.6	1.15873e-06
3430.28	8.78339e-07
3438.96	1.00539e-06
3447.64	1.14595e-06
3456.32	1.31002e-06
3464.99	1.44568e-06
3473.67	2.20812e-06
3482.35	1.60952e-06
3491.03	1.40777e-06
3499.71	1.15416e-06
3508.39	1.08706e-06
3517.06	8.72029e-07
3525.74	7.90856e-07
3534.42	8.38865e-07
3543.1	7.47751e-07
3551.78	8.06148e-07
3560.45	7.86678e-07
3569.13	1.00695e-06
3577.81	8.36458e-07
3586.49	1.03766e-06
3595.17	1.7265e-06
3603.84	2.5711e-06
3612.52	4.27654e-06
3621.2	7.27736e-06
3629.88	1.17185e-05
3638.56	1.95981e-05
3647.24	3.15214e-05
3655.91	4.87463e-05
3664.59	5.17791e-05
3673.27	5.14369e-05
3681.95	4.31227e-05
3690.63	4.30092e-05
3699.3	2.59187e-05
3707.98	1.08092e-05
3716.66	4.75343e-06
3725.34	2.67078e-06
3734.02	1.78456e-06
3742.7	1.37243e-06
3751.37	1.55653e-06
3760.05	1.34147e-06
3768.73	1.07778e-06
3777.41	1.45477e-06
3786.09	1.86281e-06
3794.76	1.73365e-06
3803.44	1.63048e-06
3812.12	1.73805e-06
3820.8	1.70418e-06
3829.48	2.0055e-06
3838.16	2.18327e-06
3846.83	2.49198e-06
3855.51	2.30608e-06
3864.19	2.37277e-06
3872.87	2.079e-06
3881.55	1.93542e-06
3890.22	1.60149e-06
3898.9	1.62202e-06
3907.58	1.4283e-06
3916.26	1.13359e-06
3924.94	1.2128e-06
3933.61	8.83643e-07
3942.29	8.47357e-07
3950.97	8.68328e-07
3959.65	9.80402e-07
3968.33	1.18284e-06
