Infrared Spectrum: Ethanol
Formula: C 2 H 6 O
CAS: 64-17-5
State: liquid
Instrument: Bruker Vertex 70 FTIR
Resolution: 0.48217186
Origin: Pacific Northwest National Laboratory Under IARPA Contract
1/cm	dispersion index
7799.05	1.34839
7780.49	1.34842
7761.93	1.3484
7743.36	1.34839
7724.8	1.34837
7706.24	1.34835
7687.67	1.34833
7669.11	1.34831
7650.55	1.34829
7631.98	1.34826
7613.42	1.34824
7594.86	1.34821
7576.3	1.34819
7557.73	1.34816
7539.17	1.34814
7520.61	1.34811
7502.04	1.34809
7483.48	1.34806
7464.92	1.34803
7446.35	1.348
7427.79	1.34798
7409.23	1.34795
7390.67	1.34792
7372.1	1.34789
7353.54	1.34785
7334.98	1.34782
7316.41	1.34779
7297.85	1.34776
7279.29	1.34773
7260.72	1.3477
7242.16	1.34767
7223.6	1.34763
7205.04	1.3476
7186.47	1.34756
7167.91	1.34753
7149.35	1.34749
7130.78	1.34745
7112.22	1.34741
7093.66	1.34737
7075.09	1.34733
7056.53	1.34729
7037.97	1.34725
7019.41	1.34721
7000.84	1.34717
6982.28	1.34712
6963.72	1.34706
6945.15	1.34701
6926.59	1.34694
6908.03	1.34687
6889.46	1.3468
6870.9	1.34672
6852.34	1.34669
6833.77	1.34666
6815.21	1.3466
6796.65	1.34654
6778.09	1.3465
6759.52	1.34644
6740.96	1.34636
6722.4	1.3463
6703.83	1.34622
6685.27	1.34613
6666.71	1.34605
6648.14	1.34596
6629.58	1.34588
6611.02	1.34578
6592.46	1.34569
6573.89	1.34558
6555.33	1.34548
6536.77	1.34537
6518.2	1.34525
6499.64	1.34514
6481.08	1.34502
6462.51	1.3449
6443.95	1.34476
6425.39	1.34462
6406.83	1.34447
6388.26	1.34431
6369.7	1.34414
6351.14	1.34397
6332.57	1.34382
6314.01	1.34369
6295.45	1.34356
6276.88	1.34341
6258.32	1.34324
6239.76	1.34303
6221.2	1.34279
6202.63	1.34254
6184.07	1.34226
6165.51	1.34196
6146.94	1.3416
6128.38	1.34119
6109.82	1.34072
6091.25	1.34085
6072.69	1.34042
6054.13	1.34063
6035.57	1.34005
6017	1.33977
5998.44	1.3392
5979.88	1.33863
5961.31	1.33809
5942.75	1.33742
5924.19	1.33697
5905.62	1.33639
5887.06	1.33573
5868.5	1.33485
5849.94	1.33374
5831.37	1.33248
5812.81	1.33114
5794.25	1.32954
5775.68	1.32766
5757.12	1.32533
5738.56	1.32231
5719.99	1.31816
5701.43	1.31276
5682.87	1.30592
5664.31	1.29815
5645.74	1.292
5627.18	1.29017
5608.62	1.29447
5590.05	1.30726
5571.49	1.33079
5552.93	1.35492
5534.36	1.373
5515.8	1.38375
5497.24	1.38571
5478.68	1.38151
5460.11	1.37439
5441.55	1.36567
5422.99	1.35447
5404.42	1.33444
5385.86	1.36254
5367.3	1.36129
5348.73	1.36988
5330.17	1.39928
5311.61	1.39149
5293.05	1.38473
5274.48	1.37885
5255.92	1.37738
5237.36	1.37486
5218.79	1.37149
5200.23	1.36919
5181.67	1.36702
5163.1	1.36648
5144.54	1.36621
5125.98	1.36499
5107.41	1.3633
5088.85	1.36246
5070.29	1.36147
5051.73	1.36003
5033.16	1.35862
5014.6	1.35828
4996.04	1.35725
4977.47	1.35627
4958.91	1.35597
4940.35	1.35504
4921.78	1.35391
4903.22	1.35263
4884.66	1.35144
4866.1	1.34964
4847.53	1.35141
4828.97	1.34975
4810.41	1.34824
4791.84	1.34664
4773.28	1.34585
4754.72	1.34384
4736.15	1.34162
4717.59	1.33872
4699.03	1.33515
4680.47	1.33011
4661.9	1.32224
4643.34	1.3111
4624.78	1.32536
4606.21	1.33925
4587.65	1.36228
4569.09	1.35085
4550.52	1.36085
4531.96	1.36014
4513.4	1.34705
4494.84	1.33176
4476.27	1.31001
4457.71	1.2601
4439.15	1.36911
4420.58	1.61064
4402.02	1.44829
4383.46	1.40552
4364.89	1.38024
4346.33	1.32112
4327.77	1.40326
4309.21	1.37128
4290.64	1.36957
4272.08	1.36264
4253.52	1.36478
4234.95	1.37565
4216.39	1.39201
4197.83	1.40444
4179.26	1.40676
4160.7	1.39952
4142.14	1.38467
4123.58	1.36638
4105.01	1.40642
4086.45	0.000149943
4067.89	0.000147642
4049.32	0.000147259
4030.76	0.000138055
4012.2	0.000138439
3993.63	0.000136138
3975.07	0.000134604
3956.51	0.000133453
3937.95	0.000132303
3919.38	0.00013422
3900.82	0.000142657
3882.26	0.000156846
3863.69	0.000157997
3845.13	0.000167967
3826.57	0.000174102
3808	0.000171419
3789.44	0.000174102
3770.88	0.000177938
3752.32	0.000197879
3733.75	0.000197879
3715.19	0.000199796
3696.63	0.000208233
3678.06	0.000211684
3659.5	0.000222039
3640.94	0.000235077
3622.37	0.000251951
3603.81	0.000264223
3585.25	0.000272276
3566.68	0.000284164
3548.12	0.00029145
3529.56	0.000296436
3511	0.000298353
3492.43	0.000298353
3473.87	0.000298353
3455.31	0.000299119
3436.74	0.000302955
3418.18	0.000311007
3399.62	0.000320211
3381.05	0.000330182
3362.49	0.000334784
3343.93	0.000328265
3325.37	0.000310625
3306.8	0.000286081
3288.24	0.000256553
3269.68	0.000227024
3251.11	0.000200947
3232.55	0.000181772
3213.99	0.000171419
3195.42	0.000178322
3176.86	0.000294135
3158.3	0.00040266
3139.74	0.000425671
3121.17	0.000383487
3102.61	0.000375433
3084.05	0.00044868
3065.48	0.000319061
3046.92	0.000274576
3028.36	0.000286465
3009.79	0.000222039
2991.23	0.000189059
2972.67	0.000171419
2954.11	0.000160682
2935.54	0.000151094
2916.98	0.000125783
2898.42	0.000103541
2879.85	7.86151e-05
2861.29	7.24784e-05
2842.73	7.82311e-05
2824.16	7.28624e-05
2805.6	8.01481e-05
2787.04	8.24491e-05
2768.48	8.05321e-05
2749.91	6.71098e-05
2731.35	5.63726e-05
2712.79	5.86737e-05
2694.22	8.74352e-05
2675.66	0.000155696
2657.1	0.000268441
2638.53	0.000444844
2619.97	0.000609744
2601.41	0.000678771
2582.85	0.000613578
2564.28	0.000498533
2545.72	0.00036738
2527.16	0.000263072
2508.59	0.000195194
2490.03	0.000166433
2471.47	0.000136521
2452.9	0.000170268
2434.34	0.000346288
2415.78	0.00111595
2397.22	0.00259237
2378.65	0.00209767
2360.09	0.00279945
2341.53	0.00126934
2322.96	0.0017602
2304.4	0.000920369
2285.84	0.000939542
2267.27	0.00103925
2248.71	0.00116963
2230.15	0.0020018
2211.59	0.00192894
2193.02	0.0015838
2174.46	0.000809157
2155.9	0.000264605
2137.33	0.000148026
2118.77	0.000193661
2100.21	0.000289149
2081.64	0.000406496
2063.08	0.000494698
2044.52	0.000705616
2025.95	0.00187142
2007.39	0.00609744
1988.83	0.0162982
1970.27	0.038272
1951.7	0.0778478
1933.14	0.135371
1914.58	0.201714
1896.01	0.27381
1877.45	0.328265
1858.89	0.331716
1840.32	0.295285
1821.76	0.237762
1803.2	0.172186
1784.64	0.116963
1766.07	0.0789983
1747.51	0.0552221
1728.95	0.042567
1710.38	0.044868
1691.82	0.218588
1673.26	0.137288
1654.69	0.171035
1636.13	0.192894
1617.57	0.0855176
1599.01	0.0490863
1580.44	0.0362395
1561.88	0.0335168
1543.32	0.0219354
1524.75	0.0151094
1506.19	0.0131919
1487.63	0.0121949
1469.06	0.0152628
1450.5	0.0138055
1431.94	0.00812992
1413.38	0.00598239
1394.81	0.00490863
1376.25	0.00368531
1357.69	0.0015723
1339.12	0.00192127
1320.56	0.00257703
1302	0.00189826
1283.43	0.0019251
1264.87	0.0034207
1246.31	0.00186758
1227.75	0.000406496
1209.18	0.000340153
1190.62	0.00178321
1172.06	0.00387322
1153.49	0.00513872
1134.93	0.00171035
1116.37	0.0013422
1097.8	0.00187525
1079.24	0.00437175
1060.68	0.00221272
1042.12	0.00223189
1023.55	0.00261155
1004.99	0.00494698
986.426	0.00870515
967.863	0.0170652
949.3	0.0490863
930.737	0.149943
912.174	0.170652
893.611	0.188676
875.048	0.112362
856.485	0.118114
837.922	0.10009
819.359	0.0437175
800.796	0.028263
782.233	0.0391157
763.67	0.0793818
745.107	0.828332
726.544	1.39589
707.981	0.0686441
689.418	0.0105459
670.855	0.00127318
652.292	0.0197496
633.729	0.0513872
615.166	0.0136905
596.603	0.0529212
578.04	0.0770809
559.477	0.123483
540.914	0.165283
522.351	0.178705
503.788	0.147259
485.225	0.0897359
466.662	0.0362779
448.099	0.00766974
429.536	0.042567
410.973	0.151094
