Infrared Spectrum: Ethanol
Formula: C2 H5 O H
CAS: 64-17-5
State: gas
Melting point: -117.3 C
Boiling point: 78.5 C
Class: IUPAC A
Instrument: IFS66V (Bruker)
Instrument parameters: KBr Beam splitter; MCT Detector; Multipass cell
Sampling: 1 L/min Flow
Resolution: 1.9290
Temperature: 23 C
Pressure: 101.3 kPa
Origin: NIST, Anayltical Chemistry Division, 301-975-3108
cm-1	(micromol/mol)-1m-1 (base 10)
574.687	2.46774e-06
583.365	2.77888e-06
592.043	2.3265e-06
600.721	2.64444e-06
609.4	2.80784e-06
618.078	2.78445e-06
626.756	2.73805e-06
635.434	2.44016e-06
644.112	2.34004e-06
652.79	1.6386e-06
661.469	1.7491e-06
670.147	1.52887e-06
678.825	1.30001e-06
687.503	9.68296e-07
696.181	7.51522e-07
704.859	5.97253e-07
713.537	3.97613e-07
722.216	4.3894e-07
730.894	6.00363e-07
739.572	6.83915e-07
748.25	7.84646e-07
756.928	1.05382e-06
765.606	1.5852e-06
774.285	2.4602e-06
782.963	3.41791e-06
791.641	3.67239e-06
800.319	5.56751e-06
808.997	4.05571e-06
817.675	4.03985e-06
826.353	3.95807e-06
835.032	4.08209e-06
843.71	6.12685e-06
852.388	1.26393e-05
861.066	2.65856e-05
869.744	3.80137e-05
878.422	4.48568e-05
887.101	3.69508e-05
895.779	4.2566e-05
904.457	3.32559e-05
913.135	1.62482e-05
921.813	7.82195e-06
930.491	5.41968e-06
939.169	4.40385e-06
947.848	4.00553e-06
956.526	4.13217e-06
965.204	5.16756e-06
973.882	7.21268e-06
982.56	1.08622e-05
991.238	1.84367e-05
999.917	3.41829e-05
1008.59	6.18662e-05
1017.27	9.10781e-05
1025.95	0.000124749
1034.63	0.000155082
1043.31	0.000230794
1051.99	0.000262285
1060.66	0.000232004
1069.34	0.000235063
1078.02	0.000251379
1086.7	0.000169192
1095.38	9.92947e-05
1104.05	8.61813e-05
1112.73	5.26062e-05
1121.41	2.98977e-05
1130.09	2.04431e-05
1138.77	1.44448e-05
1147.45	1.09136e-05
1156.12	1.01105e-05
1164.8	1.00697e-05
1173.48	1.07007e-05
1182.16	1.29075e-05
1190.84	1.6013e-05
1199.51	2.06047e-05
1208.19	2.83393e-05
1216.87	4.58639e-05
1225.55	6.70899e-05
1234.23	6.48614e-05
1242.9	6.62412e-05
1251.58	7.36433e-05
1260.26	6.23926e-05
1268.94	3.92997e-05
1277.62	2.59617e-05
1286.3	1.90314e-05
1294.97	1.61438e-05
1303.65	1.5105e-05
1312.33	1.49892e-05
1321.01	1.54135e-05
1329.69	1.56374e-05
1338.36	1.76698e-05
1347.04	1.98116e-05
1355.72	2.61363e-05
1364.4	3.95098e-05
1373.08	6.31582e-05
1381.76	8.52752e-05
1390.43	7.34951e-05
1399.11	7.51587e-05
1407.79	9.53385e-05
1416.47	5.94859e-05
1425.15	3.50014e-05
1433.82	2.84894e-05
1442.5	2.78696e-05
1451.18	3.37617e-05
1459.86	2.14013e-05
1468.54	1.98926e-05
1477.22	1.94546e-05
1485.89	1.4406e-05
1494.57	1.15944e-05
1503.25	8.76706e-06
1511.93	5.83281e-06
1520.61	3.53091e-06
1529.28	2.13916e-06
1537.96	1.29749e-06
1546.64	8.29757e-07
1555.32	6.31919e-07
1564	5.01974e-07
1572.67	4.1156e-07
1581.35	4.11134e-07
1590.03	4.16216e-07
1598.71	3.95399e-07
1607.39	4.06802e-07
1616.07	3.61874e-07
1624.74	3.32065e-07
1633.42	3.61275e-07
1642.1	3.85952e-07
1650.78	3.9659e-07
1659.46	3.84193e-07
1668.13	4.50649e-07
1676.81	4.60126e-07
1685.49	5.17755e-07
1694.17	4.26701e-07
1702.85	4.75518e-07
1711.53	3.49041e-07
1720.2	3.48937e-07
1728.88	3.31664e-07
1737.56	3.99331e-07
1746.24	4.71909e-07
1754.92	4.99352e-07
1763.59	6.17629e-07
1772.27	6.2762e-07
1780.95	5.31007e-07
1789.63	3.20812e-07
1798.31	1.52615e-07
1806.98	-2.77096e-08
1815.66	-1.18021e-07
1824.34	-1.57498e-07
1833.02	-1.87315e-07
1841.7	-1.99805e-07
1850.38	-1.65823e-07
1859.05	-9.43558e-08
1867.73	2.54336e-08
1876.41	1.72419e-07
1885.09	5.25966e-07
1893.77	1.13358e-06
1902.44	1.95251e-06
1911.12	2.54518e-06
1919.8	3.23036e-06
1928.48	3.68722e-06
1937.16	3.41756e-06
1945.84	3.32305e-06
1954.51	1.96604e-06
1963.19	1.23374e-06
1971.87	7.69491e-07
1980.55	4.72479e-07
1989.23	4.87617e-07
1997.9	1.07265e-07
2006.58	-2.00339e-07
2015.26	-2.77679e-07
2023.94	-3.36383e-07
2032.62	-3.31872e-07
2041.3	-3.00152e-07
2049.97	-2.18511e-07
2058.65	-1.53645e-07
2067.33	-1.16464e-07
2076.01	-5.82081e-08
2084.69	2.23254e-07
2093.36	6.42388e-07
2102.04	1.11738e-06
2110.72	1.62735e-06
2119.4	1.63608e-06
2128.08	1.6654e-06
2136.75	1.03024e-06
2145.43	5.13888e-07
2154.11	4.45507e-07
2162.79	4.45437e-07
2171.47	4.01452e-07
2180.15	6.88486e-07
2188.82	4.22707e-07
2197.5	2.51111e-07
2206.18	7.58856e-08
2214.86	3.41783e-09
2223.54	1.41619e-07
2232.21	3.82778e-07
2240.89	7.50831e-07
2249.57	1.18061e-06
2258.25	1.24877e-06
2266.93	1.45545e-06
2275.61	1.54244e-06
2284.28	1.36549e-06
2292.96	9.44454e-07
2301.64	7.77614e-07
2310.32	9.2868e-07
2319	1.23463e-06
2327.67	1.93923e-06
2336.35	2.0005e-06
2345.03	1.6211e-06
2353.71	1.57019e-06
2362.39	2.28459e-06
2371.06	1.64279e-06
2379.74	1.145e-06
2388.42	1.20907e-06
2397.1	1.40811e-06
2405.78	1.56006e-06
2414.46	1.66331e-06
2423.13	1.42162e-06
2431.81	1.1867e-06
2440.49	1.08151e-06
2449.17	8.51535e-07
2457.85	9.17607e-07
2466.52	9.54839e-07
2475.2	9.69693e-07
2483.88	1.07325e-06
2492.56	9.29112e-07
2501.24	7.3691e-07
2509.92	6.31224e-07
2518.59	6.04661e-07
2527.27	5.34399e-07
2535.95	5.1262e-07
2544.63	5.56432e-07
2553.31	6.62297e-07
2561.98	7.40043e-07
2570.66	8.98271e-07
2579.34	1.0609e-06
2588.02	1.27547e-06
2596.7	1.54434e-06
2605.38	1.63944e-06
2614.05	1.87366e-06
2622.73	2.3446e-06
2631.41	2.5085e-06
2640.09	2.73013e-06
2648.77	3.03948e-06
2657.44	3.2523e-06
2666.12	3.52635e-06
2674.8	3.67346e-06
2683.48	3.91891e-06
2692.16	4.23998e-06
2700.83	4.68584e-06
2709.51	5.60371e-06
2718.19	6.38826e-06
2726.87	7.05359e-06
2735.55	8.36401e-06
2744.23	9.81189e-06
2752.9	1.03547e-05
2761.58	1.11944e-05
2770.26	1.18667e-05
2778.94	1.31837e-05
2787.62	1.37923e-05
2796.29	1.63299e-05
2804.97	1.76957e-05
2813.65	1.9396e-05
2822.33	2.33378e-05
2831.01	2.79085e-05
2839.69	3.68621e-05
2848.36	4.97116e-05
2857.04	7.00716e-05
2865.72	9.98845e-05
2874.4	0.000116817
2883.08	0.000146803
2891.75	0.00015594
2900.43	0.000199244
2909.11	0.000163231
2917.79	0.000150449
2926.47	0.000144964
2935.14	0.00013946
2943.82	0.00014494
2952.5	0.000158309
2961.18	0.000179738
2969.86	0.000211707
2978.54	0.000208051
2987.21	0.000220033
2995.89	0.00017519
3004.57	0.00013386
3013.25	8.92264e-05
3021.93	5.42768e-05
3030.6	2.88753e-05
3039.28	1.30337e-05
3047.96	5.23292e-06
3056.64	2.04721e-06
3065.32	1.02886e-06
3074	7.35406e-07
3082.67	6.34307e-07
3091.35	6.39071e-07
3100.03	6.74585e-07
3108.71	5.89896e-07
3117.39	6.20714e-07
3126.06	6.36946e-07
3134.74	6.29392e-07
3143.42	5.5442e-07
3152.1	6.72541e-07
3160.78	7.29156e-07
3169.46	8.91301e-07
3178.13	1.02352e-06
3186.81	1.26661e-06
3195.49	1.50681e-06
3204.17	1.82429e-06
3212.85	1.96298e-06
3221.52	2.14912e-06
3230.2	1.96016e-06
3238.88	1.67859e-06
3247.56	1.07598e-06
3256.24	6.65745e-07
3264.91	1.53099e-07
3273.59	-1.53058e-07
3282.27	-2.42022e-07
3290.95	-2.60892e-07
3299.63	-3.38381e-07
3308.31	-2.37274e-07
3316.98	-2.93765e-07
3325.66	-2.9437e-07
3334.34	-3.34956e-07
3343.02	-1.75591e-07
3351.7	-1.68291e-07
3360.37	-1.66644e-08
3369.05	1.68138e-07
3377.73	4.5635e-07
3386.41	8.37037e-07
3395.09	8.71578e-07
3403.77	1.23905e-06
3412.44	1.33573e-06
3421.12	1.09392e-06
3429.8	9.26938e-07
3438.48	9.97977e-07
3447.16	1.13178e-06
3455.83	1.2708e-06
3464.51	1.41644e-06
3473.19	1.95929e-06
3481.87	1.61013e-06
3490.55	1.38882e-06
3499.22	1.18768e-06
3507.9	1.08397e-06
3516.58	8.72027e-07
3525.26	7.34358e-07
3533.94	8.81305e-07
3542.62	7.14823e-07
3551.29	8.12923e-07
3559.97	8.95404e-07
3568.65	1.02304e-06
3577.33	7.59912e-07
3586.01	1.00697e-06
3594.68	1.71812e-06
3603.36	2.48126e-06
3612.04	4.09771e-06
3620.72	7.0629e-06
3629.4	1.13583e-05
3638.08	1.90381e-05
3646.75	3.12905e-05
3655.43	4.55973e-05
3664.11	5.16506e-05
3672.79	5.13837e-05
3681.47	4.25583e-05
3690.14	4.33793e-05
3698.82	2.69367e-05
3707.5	1.1389e-05
3716.18	4.9772e-06
3724.86	2.77752e-06
3733.54	1.86398e-06
3742.21	1.42764e-06
3750.89	1.50727e-06
3759.57	1.36409e-06
3768.25	1.14359e-06
3776.93	1.36772e-06
3785.6	1.78287e-06
3794.28	1.79295e-06
3802.96	1.55309e-06
3811.64	1.68514e-06
3820.32	1.68417e-06
3828.99	2.06589e-06
3837.67	2.2598e-06
3846.35	2.42701e-06
3855.03	2.38745e-06
3863.71	2.34145e-06
3872.39	1.99977e-06
3881.06	1.93201e-06
3889.74	1.689e-06
3898.42	1.59689e-06
3907.1	1.37763e-06
3915.78	1.26827e-06
3924.45	1.14603e-06
3933.13	8.73643e-07
3941.81	9.15493e-07
3950.49	8.89208e-07
3959.17	1.02736e-06
3967.85	1.11536e-06
