Infrared Spectrum: Ethanol
Formula: C2 H5 O H
CAS: 64-17-5
State: gas
Melting point: -117.3 C
Boiling point: 78.5 C
Class: IUPAC A
Instrument: IFS66V (Bruker)
Instrument parameters: KBr Beam splitter; MCT Detector; Multipass cell
Sampling: 1 L/min Flow
Resolution: 0.1250
Temperature: 23 C
Pressure: 101.3 kPa
Origin: NIST, Anayltical Chemistry Division, 301-975-3108
cm-1	(micromol/mol)-1m-1 (base 10)
574.988	4.63038e-06
583.546	4.31319e-06
592.103	2.64166e-06
600.661	2.25071e-06
609.219	3.88805e-06
617.776	2.95806e-06
626.334	3.22721e-06
634.891	2.85336e-06
643.449	2.42146e-06
652.007	1.94388e-06
660.564	6.95876e-07
669.122	2.27097e-06
677.68	1.61585e-06
686.237	9.13857e-07
694.795	8.0128e-07
703.352	8.15167e-07
711.91	5.55278e-07
720.468	6.99001e-07
729.025	9.98599e-07
737.583	1.01549e-06
746.141	9.94019e-07
754.698	9.0236e-07
763.256	1.03424e-06
771.813	2.08167e-06
780.371	3.39406e-06
788.929	4.12668e-06
797.486	4.93741e-06
806.044	4.1479e-06
814.602	4.03069e-06
823.159	4.18332e-06
831.717	3.51925e-06
840.274	4.90684e-06
848.832	9.06314e-06
857.39	1.92033e-05
865.947	3.4868e-05
874.505	3.44034e-05
883.063	4.49174e-05
891.62	6.53435e-05
900.178	4.0858e-05
908.735	2.39626e-05
917.293	1.08239e-05
925.851	6.52653e-06
934.408	4.8099e-06
942.966	3.84813e-06
951.524	4.09668e-06
960.081	4.60297e-06
968.639	5.9877e-06
977.196	8.26311e-06
985.754	1.31697e-05
994.312	2.19572e-05
1002.87	3.96215e-05
1011.43	7.66445e-05
1019.98	9.86468e-05
1028.54	0.000139234
1037.1	0.00020656
1045.66	0.000244801
1054.22	0.000259322
1062.77	0.000236951
1071.33	0.000245735
1079.89	0.000236093
1088.45	0.000155908
1097	9.9312e-05
1105.56	8.10927e-05
1114.12	4.86997e-05
1122.68	2.84896e-05
1131.23	2.03438e-05
1139.79	1.37357e-05
1148.35	1.08321e-05
1156.91	1.01119e-05
1165.46	9.92232e-06
1174.02	1.05901e-05
1182.58	1.31091e-05
1191.14	1.58875e-05
1199.69	2.01577e-05
1208.25	2.82458e-05
1216.81	4.53344e-05
1225.37	6.67557e-05
1233.93	6.3983e-05
1242.48	6.04009e-05
1251.04	7.06459e-05
1259.6	6.64799e-05
1268.16	4.05552e-05
1276.71	2.71515e-05
1285.27	1.96814e-05
1293.83	1.63651e-05
1302.39	1.47832e-05
1310.94	1.5045e-05
1319.5	1.50615e-05
1328.06	1.54949e-05
1336.62	1.70678e-05
1345.17	1.87493e-05
1353.73	2.42203e-05
1362.29	3.48922e-05
1370.85	5.65306e-05
1379.4	8.13639e-05
1387.96	7.22918e-05
1396.52	7.09396e-05
1405.08	9.67607e-05
1413.64	7.36242e-05
1422.19	4.04807e-05
1430.75	2.90435e-05
1439.31	2.76349e-05
1447.87	2.91116e-05
1456.42	2.22011e-05
1464.98	1.94639e-05
1473.54	1.93489e-05
1482.1	1.72771e-05
1490.65	1.3409e-05
1499.21	1.0085e-05
1507.77	7.38859e-06
1516.33	4.55688e-06
1524.88	2.66094e-06
1533.44	1.73409e-06
1542	9.38077e-07
1550.56	6.993e-07
1559.11	7.07414e-07
1567.67	4.43564e-07
1576.23	3.9345e-07
1584.79	2.39832e-07
1593.35	2.25319e-07
1601.9	5.23793e-07
1610.46	4.50128e-07
1619.02	2.60807e-07
1627.58	3.26057e-07
1636.13	2.93517e-07
1644.69	4.59474e-07
1653.25	1.07487e-07
1661.81	4.9722e-07
1670.36	6.20573e-07
1678.92	5.54909e-07
1687.48	5.1324e-07
1696.04	4.15472e-07
1704.59	3.40649e-07
1713.15	3.61459e-07
1721.71	5.64365e-07
1730.27	7.37361e-08
1738.83	3.83844e-07
1747.38	3.75877e-07
1755.94	5.12333e-07
1764.5	3.92694e-07
1773.06	6.12428e-07
1781.61	4.28918e-07
1790.17	1.25657e-07
1798.73	1.23074e-07
1807.29	9.65831e-08
1815.84	-1.14625e-07
1824.4	-1.53329e-07
1832.96	-2.52767e-07
1841.52	-2.10328e-07
1850.07	-6.29688e-08
1858.63	-3.21947e-08
1867.19	6.97144e-08
1875.75	1.08146e-07
1884.3	4.80819e-07
1892.86	8.83461e-07
1901.42	1.78192e-06
1909.98	2.42713e-06
1918.54	2.89147e-06
1927.09	3.92172e-06
1935.65	3.365e-06
1944.21	3.40944e-06
1952.77	2.11424e-06
1961.32	1.54096e-06
1969.88	8.24624e-07
1978.44	6.00666e-07
1987	6.61006e-07
1995.55	2.21779e-07
2004.11	-2.3348e-07
2012.67	-1.90417e-07
2021.23	-2.98871e-07
2029.78	-4.2624e-07
2038.34	-3.84665e-07
2046.9	-4.86411e-07
2055.46	-3.32024e-07
2064.01	-1.15453e-07
2072.57	-1.97656e-07
2081.13	6.56585e-08
2089.69	4.40503e-07
2098.25	8.79775e-07
2106.8	1.24425e-06
2115.36	1.42911e-06
2123.92	1.90026e-06
2132.48	1.145e-06
2141.03	7.15688e-07
2149.59	3.8704e-07
2158.15	7.97096e-07
2166.71	1.92652e-07
2175.26	4.28879e-07
2183.82	5.19166e-07
2192.38	2.59954e-07
2200.94	4.18506e-08
2209.49	4.73028e-07
2218.05	3.09237e-08
2226.61	4.01405e-07
2235.17	3.80243e-07
2243.72	9.0846e-07
2252.28	1.03963e-06
2260.84	1.60537e-06
2269.4	1.4319e-06
2277.96	1.47774e-06
2286.51	1.26584e-06
2295.07	6.3106e-07
2303.63	7.54033e-07
2312.19	7.92817e-07
2320.74	1.14368e-06
2329.3	9.80439e-07
2337.86	2.138e-06
2346.42	8.61456e-07
2354.97	8.81536e-07
2363.53	8.98086e-07
2372.09	9.45417e-07
2380.65	1.46246e-06
2389.2	1.12541e-06
2397.76	1.52178e-06
2406.32	1.53329e-06
2414.88	1.77454e-06
2423.44	1.37238e-06
2431.99	1.31924e-06
2440.55	1.01697e-06
2449.11	7.35474e-07
2457.67	8.1517e-07
2466.22	9.35444e-07
2474.78	9.80829e-07
2483.34	8.75866e-07
2491.9	1.09734e-06
2500.45	5.86566e-07
2509.01	6.74517e-07
2517.57	6.78112e-07
2526.13	5.18601e-07
2534.68	6.13103e-07
2543.24	6.39548e-07
2551.8	5.09358e-07
2560.36	6.68351e-07
2568.91	7.03574e-07
2577.47	9.79375e-07
2586.03	1.21223e-06
2594.59	1.4884e-06
2603.15	1.61863e-06
2611.7	1.88581e-06
2620.26	2.35085e-06
2628.82	2.46462e-06
2637.38	2.63136e-06
2645.93	2.89349e-06
2654.49	3.41272e-06
2663.05	3.46371e-06
2671.61	3.72224e-06
2680.16	3.90177e-06
2688.72	3.8755e-06
2697.28	4.35513e-06
2705.84	5.25985e-06
2714.39	5.72914e-06
2722.95	6.80944e-06
2731.51	8.03567e-06
2740.07	9.24448e-06
2748.62	1.01063e-05
2757.18	1.07702e-05
2765.74	1.12809e-05
2774.3	1.23654e-05
2782.86	1.38477e-05
2791.41	1.4948e-05
2799.97	1.70064e-05
2808.53	1.81447e-05
2817.09	2.09092e-05
2825.64	2.48906e-05
2834.2	3.06221e-05
2842.76	4.02932e-05
2851.32	5.53892e-05
2859.87	7.86664e-05
2868.43	0.000107341
2876.99	0.000123999
2885.55	0.000150965
2894.1	0.000157946
2902.66	0.000172153
2911.22	0.000168288
2919.78	0.000150408
2928.34	0.000143092
2936.89	0.000139802
2945.45	0.00014537
2954.01	0.000161486
2962.57	0.00018398
2971.12	0.000217031
2979.68	0.000203574
2988.24	0.000211349
2996.8	0.000171054
3005.35	0.000129535
3013.91	8.65331e-05
3022.47	5.27564e-05
3031.03	2.81196e-05
3039.58	1.26407e-05
3048.14	5.24795e-06
3056.7	1.86333e-06
3065.26	1.0977e-06
3073.81	6.8429e-07
3082.37	4.34766e-07
3090.93	6.80468e-07
3099.49	4.10034e-07
3108.05	6.81311e-07
3116.6	5.99367e-07
3125.16	7.01154e-07
3133.72	9.148e-07
3142.28	3.72371e-07
3150.83	5.76195e-07
3159.39	8.13403e-07
3167.95	1.19807e-06
3176.51	1.09465e-06
3185.06	1.26572e-06
3193.62	1.32482e-06
3202.18	1.63548e-06
3210.74	1.93318e-06
3219.29	2.17858e-06
3227.85	1.93814e-06
3236.41	1.65963e-06
3244.97	9.46097e-07
3253.52	1.04696e-06
3262.08	2.58929e-07
3270.64	4.59472e-07
3279.2	7.26638e-08
3287.76	1.23284e-07
3296.31	-4.62394e-07
3304.87	-5.81963e-08
3313.43	-3.22984e-07
3321.99	-2.40592e-07
3330.54	-2.04367e-07
3339.1	-1.60109e-07
3347.66	-2.42835e-07
3356.22	-1.62238e-07
3364.77	1.09156e-07
3373.33	4.57992e-07
3381.89	6.90901e-07
3390.45	8.52233e-07
3399	1.17077e-06
3407.56	6.37403e-07
3416.12	1.4252e-06
3424.68	1.3961e-06
3433.23	1.13649e-06
3441.79	8.50046e-07
3450.35	1.38739e-06
3458.91	1.07193e-06
3467.47	1.54033e-06
3476.02	1.63415e-06
3484.58	1.36926e-06
3493.14	1.12361e-06
3501.7	1.19994e-06
3510.25	1.03999e-06
3518.81	1.00145e-06
3527.37	5.96804e-07
3535.93	6.75203e-07
3544.48	6.92701e-07
3553.04	6.06519e-07
3561.6	1.1353e-06
3570.16	1.19192e-06
3578.71	4.91095e-07
3587.27	8.21733e-07
3595.83	1.74732e-06
3604.39	3.08461e-06
3612.95	4.51775e-06
3621.5	7.25506e-06
3630.06	1.19653e-05
3638.62	1.99217e-05
3647.18	3.10647e-05
3655.73	4.98778e-05
3664.29	5.06765e-05
3672.85	5.20246e-05
3681.41	4.25145e-05
3689.96	4.39677e-05
3698.52	2.73991e-05
3707.08	1.18736e-05
3715.64	5.24516e-06
3724.19	2.71438e-06
3732.75	2.08106e-06
3741.31	1.43009e-06
3749.87	1.36952e-06
3758.42	1.78215e-06
3766.98	7.85064e-07
3775.54	1.61544e-06
3784.1	1.89523e-06
3792.66	1.8059e-06
3801.21	1.84845e-06
3809.77	1.62858e-06
3818.33	1.46377e-06
3826.89	1.97228e-06
3835.44	2.50515e-06
3844	2.34455e-06
3852.56	2.26099e-06
3861.12	2.71964e-06
3869.67	2.2666e-06
3878.23	1.75729e-06
3886.79	2.71655e-06
3895.35	1.42823e-06
3903.9	1.54179e-06
3912.46	1.24117e-06
3921.02	1.16861e-06
3929.58	1.35296e-06
3938.13	5.82135e-07
3946.69	5.91514e-07
3955.25	9.49407e-07
3963.81	1.057e-06
3972.37	9.44865e-07
