Infrared Spectrum: 9H-Purine, 6-chloro-9-(2-chloroethyl)-
Formula: C7 H6 Cl2 N4
CAS: 64127-00-0
State: SOLID (KBr DISC)
Class: COBLENTZ III
Instrument: PERKIN-ELMER 21 (GRATING)
Instrument parameters: FILTER CHANGE ABOUT 1090 CM^-^1
Sampling: TRANSMISSION
Resolution: 2
Origin: SOUTHERN RESEARCH INSTITUTE
1/CM	TRANSMITTANCE
594.9	0.6482
603.948	0.8837
612.996	0.8603
622.043	0.8266
631.091	0.6519
640.139	0.6819
649.187	0.6463
658.235	0.8831
667.283	0.8929
676.33	0.7796
685.378	0.9235
694.426	0.9218
703.474	0.8677
712.522	0.6738
721.569	0.8879
730.617	0.8864
739.665	0.8966
748.713	0.8864
757.761	0.8782
766.808	0.8618
775.856	0.8481
784.904	0.8187
793.952	0.6076
803	0.8207
812.048	0.813
821.095	0.7992
830.143	0.778
839.191	0.723
848.239	0.6414
857.287	0.5238
866.334	0.8056
875.382	0.7922
884.43	0.5631
893.478	0.7113
902.526	0.6458
911.574	0.4069
920.621	0.7187
929.669	0.6764
938.717	0.505
947.765	0.2265
956.813	0.6989
965.86	0.7905
974.908	0.7993
983.956	0.8558
993.004	0.8665
1002.05	0.857
1011.1	0.8357
1020.15	0.816
1029.2	0.7948
1038.24	0.7689
1047.29	0.7529
1056.34	0.8014
1065.39	0.7904
1074.43	0.7739
1083.48	0.762
1092.53	0.7355
1101.58	0.731
1110.63	0.7004
1119.67	0.6247
1128.72	0.5935
1137.77	0.5585
1146.82	0.6366
1155.86	0.6468
1164.91	0.6002
1173.96	0.4943
1183.01	0.2466
1192.06	0.4599
1201.1	0.5583
1210.15	0.2022
1219.2	0.6264
1228.25	0.7625
1237.29	0.7355
1246.34	0.6302
1255.39	0.5643
1264.44	0.6415
1273.49	0.5325
1282.53	0.676
1291.58	0.7352
1300.63	0.6723
1309.68	0.5455
1318.73	0.6447
1327.77	0.5279
1336.82	0.2813
1345.87	0.4472
1354.92	0.7691
1363.96	0.6887
1373.01	0.6549
1382.06	0.5773
1391.11	0.6283
1400.16	0.4069
1409.2	0.6617
1418.25	0.7069
1427.3	0.5043
1436.35	0.4567
1445.39	0.4193
1454.44	0.5428
1463.49	0.8238
1472.54	0.7898
1481.59	0.698
1490.63	0.6547
1499.68	0.5707
1508.73	0.7138
1517.78	0.6819
1526.82	0.5949
1535.87	0.4619
1544.92	0.3145
1553.97	0.2243
1563.02	0.1635
1572.06	0.4543
1581.11	0.4718
1590.16	0.3175
1599.21	0.5472
1608.26	0.8036
1617.3	0.8281
1626.35	0.8265
1635.4	0.8471
1644.45	0.8512
1653.49	0.8524
1662.54	0.8601
1671.59	0.8607
1680.64	0.8611
1689.69	0.861
1698.73	0.8597
1707.78	0.8582
1716.83	0.8565
1725.88	0.852
1734.92	0.8409
1743.97	0.8029
1753.02	0.7653
1762.07	0.8552
1771.12	0.8557
1780.16	0.8552
1789.21	0.8541
1798.26	0.8505
1807.31	0.8467
1816.36	0.846
1825.4	0.8448
1834.45	0.8425
1843.5	0.8401
1852.55	0.8374
1861.59	0.8338
1870.64	0.8299
1879.69	0.8261
1888.74	0.8196
1897.79	0.8058
1906.83	0.7866
1915.88	0.8036
1924.93	0.8227
1933.98	0.824
1943.02	0.821
1952.07	0.8171
1961.12	0.8143
1970.17	0.8143
1979.22	0.8145
1988.26	0.8152
1997.31	0.8152
2006.36	0.8128
2015.41	0.8081
2024.45	0.8031
2033.5	0.7994
2042.55	0.7966
2051.6	0.7936
2060.65	0.7905
2069.69	0.7875
2078.74	0.7845
2087.79	0.7817
2096.84	0.7793
2105.89	0.7768
2114.93	0.7746
2123.98	0.7725
2133.03	0.7704
2142.08	0.7689
2151.12	0.7677
2160.17	0.7665
2169.22	0.7653
2178.27	0.7646
2187.32	0.764
2196.36	0.7634
2205.41	0.7633
2214.46	0.763
2223.51	0.7622
2232.55	0.7608
2241.6	0.7589
2250.65	0.7575
2259.7	0.7533
2268.75	0.7482
2277.79	0.7494
2286.84	0.7517
2295.89	0.7516
2304.94	0.7469
2313.98	0.7436
2323.03	0.7409
2332.08	0.7382
2341.13	0.7355
2350.18	0.7328
2359.22	0.7316
2368.27	0.7307
2377.32	0.7313
2386.37	0.7312
2395.42	0.7303
2404.46	0.7295
2413.51	0.7291
2422.56	0.7277
2431.61	0.725
2440.65	0.7216
2449.7	0.7187
2458.75	0.7172
2467.8	0.7145
2476.85	0.7131
2485.89	0.713
2494.94	0.7138
2503.99	0.7143
2513.04	0.7147
2522.08	0.7153
2531.13	0.7167
2540.18	0.7143
2549.23	0.7081
2558.28	0.703
2567.32	0.6983
2576.37	0.6945
2585.42	0.6946
2594.47	0.6952
2603.51	0.6952
2612.56	0.6951
2621.61	0.6949
2630.66	0.6946
2639.71	0.6939
2648.75	0.6928
2657.8	0.691
2666.85	0.6872
2675.9	0.6853
2684.95	0.683
2693.99	0.6806
2703.04	0.6788
2712.09	0.677
2721.14	0.6748
2730.18	0.6725
2739.23	0.6705
2748.28	0.6687
2757.33	0.6668
2766.38	0.6655
2775.42	0.6648
2784.47	0.6642
2793.52	0.6638
2802.57	0.6615
2811.61	0.6593
2820.66	0.657
2829.71	0.6538
2838.76	0.6493
2847.81	0.6458
2856.85	0.6419
2865.9	0.6368
2874.95	0.6315
2884	0.6264
2893.05	0.6202
2902.09	0.6154
2911.14	0.6115
2920.19	0.6119
2929.24	0.6146
2938.28	0.6157
2947.33	0.6135
2956.38	0.6099
2965.43	0.6055
2974.48	0.5969
2983.52	0.5941
2992.57	0.5954
3001.62	0.604
3010.67	0.6125
3019.71	0.6131
3028.76	0.6125
3037.81	0.6118
3046.86	0.6096
3055.91	0.6047
3064.95	0.6061
3074	0.6108
3083.05	0.6077
3092.1	0.5957
3101.14	0.5939
3110.19	0.6084
3119.24	0.6225
3128.29	0.6206
3137.34	0.6178
3146.38	0.6147
3155.43	0.6124
3164.48	0.6138
3173.53	0.6181
3182.58	0.6164
3191.62	0.6135
3200.67	0.6106
3209.72	0.6076
3218.77	0.6033
3227.81	0.5963
3236.86	0.5951
3245.91	0.5889
3254.96	0.5862
3264.01	0.5854
3273.05	0.5846
3282.1	0.582
3291.15	0.5772
3300.2	0.5719
3309.24	0.5669
3318.29	0.5652
3327.34	0.5607
3336.39	0.5536
3345.44	0.553
3354.48	0.5527
3363.53	0.55
3372.58	0.5414
3381.63	0.5318
3390.67	0.5269
3399.72	0.5237
3408.77	0.5215
3417.82	0.5216
3426.87	0.5248
3435.91	0.529
3444.96	0.533
3454.01	0.5366
3463.06	0.5395
3472.11	0.542
3481.15	0.545
3490.2	0.5483
3499.25	0.5503
3508.3	0.5511
3517.34	0.5517
3526.39	0.553
3535.44	0.5541
3544.49	0.5555
3553.54	0.5602
3562.58	0.566
3571.63	0.5693
3580.68	0.5704
3589.73	0.5711
3598.77	0.5725
3607.82	0.5744
3616.87	0.5758
3625.92	0.5763
3634.97	0.5757
3644.01	0.5751
3653.06	0.5744
3662.11	0.5773
3671.16	0.5814
3680.2	0.5872
3689.25	0.5895
3698.3	0.5902
3707.35	0.5896
3716.4	0.5886
3725.44	0.5875
3734.49	0.5861
3743.54	0.5837
3752.59	0.5814
3761.64	0.5797
3770.68	0.5782
3779.73	0.5762
3788.78	0.574
3797.83	0.5714
3806.87	0.5687
3815.92	0.566
3824.97	0.5642
3834.02	0.5628
3843.07	0.5619
3852.11	0.5617
3861.16	0.5619
3870.21	0.5622
3879.26	0.5624
3888.3	0.5624
3897.35	0.5624
3906.4	0.5626
3915.45	0.5632
3924.5	0.5638
3933.54	0.5644
3942.59	0.5649
3951.64	0.565
3960.69	0.5616
3969.73	0.564
3978.78	0.5628
3987.83	0.5614
3996.88	0.5574
4005.93	0.5437
4014.97	0.523
