Infrared Spectrum: Ethanol
Formula: C2 H5 O H
CAS: 64-17-5
State: gas
Melting point: -117.3 C
Boiling point: 78.5 C
Class: IUPAC A
Instrument: IFS66V (Bruker)
Instrument parameters: KBr Beam splitter; MCT Detector; Multipass cell
Sampling: 1 L/min Flow
Resolution: 0.4820
Temperature: 23 C
Pressure: 101.3 kPa
Origin: NIST, Anayltical Chemistry Division, 301-975-3108
cm-1	(micromol/mol)-1m-1 (base 10)
574.928	1.9781e-06
583.606	3.46315e-06
592.284	2.04949e-06
600.962	2.80567e-06
609.641	2.83123e-06
618.319	2.31375e-06
626.997	2.64065e-06
635.675	2.60744e-06
644.353	2.64747e-06
653.031	1.71586e-06
661.71	1.76648e-06
670.388	1.3822e-06
679.066	1.5878e-06
687.744	9.81023e-07
696.422	5.35999e-07
705.1	5.38353e-07
713.778	3.60433e-07
722.457	4.39358e-07
731.135	9.01623e-07
739.813	7.92861e-07
748.491	7.56494e-07
757.169	1.14193e-06
765.847	1.62879e-06
774.526	2.66253e-06
783.204	3.54345e-06
791.882	3.65942e-06
800.56	6.14938e-06
809.238	4.10379e-06
817.916	3.87818e-06
826.594	4.05881e-06
835.273	4.44679e-06
843.951	6.28193e-06
852.629	1.30405e-05
861.307	2.72787e-05
869.985	3.82721e-05
878.663	4.26735e-05
887.342	3.66445e-05
896.02	4.24387e-05
904.698	3.27259e-05
913.376	1.5922e-05
922.054	7.75046e-06
930.732	5.41655e-06
939.41	4.49714e-06
948.089	4.16003e-06
956.767	4.15448e-06
965.445	5.21136e-06
974.123	7.41947e-06
982.801	1.11057e-05
991.479	1.87375e-05
1000.16	3.46382e-05
1008.84	6.2992e-05
1017.51	9.1433e-05
1026.19	0.000128431
1034.87	0.000157418
1043.55	0.00023268
1052.23	0.000262315
1060.9	0.000229691
1069.58	0.000232019
1078.26	0.000248542
1086.94	0.000168109
1095.62	9.85999e-05
1104.3	8.59005e-05
1112.97	5.18615e-05
1121.65	2.96265e-05
1130.33	2.00628e-05
1139.01	1.43913e-05
1147.69	1.08561e-05
1156.36	1.01563e-05
1165.04	1.0215e-05
1173.72	1.07781e-05
1182.4	1.31025e-05
1191.08	1.61331e-05
1199.76	2.06749e-05
1208.43	2.83419e-05
1217.11	4.53195e-05
1225.79	6.55058e-05
1234.47	6.343e-05
1243.15	6.57772e-05
1251.82	7.36329e-05
1260.5	6.12594e-05
1269.18	3.88512e-05
1277.86	2.57192e-05
1286.54	1.90271e-05
1295.21	1.61941e-05
1303.89	1.53206e-05
1312.57	1.50258e-05
1321.25	1.55823e-05
1329.93	1.56613e-05
1338.61	1.79878e-05
1347.28	2.00587e-05
1355.96	2.63287e-05
1364.64	4.03106e-05
1373.32	6.35533e-05
1382	8.52774e-05
1390.67	7.48662e-05
1399.35	7.61839e-05
1408.03	9.48543e-05
1416.71	5.84541e-05
1425.39	3.49683e-05
1434.07	2.81462e-05
1442.74	2.74937e-05
1451.42	3.26038e-05
1460.1	2.14651e-05
1468.78	1.97387e-05
1477.46	1.93097e-05
1486.13	1.43211e-05
1494.81	1.13198e-05
1503.49	8.68666e-06
1512.17	5.72735e-06
1520.85	3.52214e-06
1529.52	2.1293e-06
1538.2	1.32357e-06
1546.88	8.24174e-07
1555.56	6.20842e-07
1564.24	5.43311e-07
1572.92	4.53217e-07
1581.59	4.62566e-07
1590.27	4.0483e-07
1598.95	3.82959e-07
1607.63	4.2484e-07
1616.31	3.07449e-07
1624.98	2.89549e-07
1633.66	3.66299e-07
1642.34	3.93134e-07
1651.02	4.2081e-07
1659.7	4.25839e-07
1668.38	4.08374e-07
1677.05	4.30972e-07
1685.73	5.15214e-07
1694.41	3.97977e-07
1703.09	4.67327e-07
1711.77	4.00784e-07
1720.44	3.20919e-07
1729.12	3.22424e-07
1737.8	3.4498e-07
1746.48	4.82065e-07
1755.16	4.80767e-07
1763.84	6.36127e-07
1772.51	6.06095e-07
1781.19	4.7472e-07
1789.87	3.08338e-07
1798.55	1.74632e-07
1807.23	7.77151e-10
1815.9	-1.44093e-07
1824.58	-1.64331e-07
1833.26	-2.05945e-07
1841.94	-1.83894e-07
1850.62	-1.57436e-07
1859.29	-8.04017e-08
1867.97	4.98022e-08
1876.65	2.11894e-07
1885.33	5.5575e-07
1894.01	1.13909e-06
1902.69	2.02988e-06
1911.36	2.55866e-06
1920.04	3.24311e-06
1928.72	3.67609e-06
1937.4	3.41507e-06
1946.08	3.20569e-06
1954.75	1.97178e-06
1963.43	1.26448e-06
1972.11	7.85711e-07
1980.79	4.85574e-07
1989.47	5.5727e-07
1998.15	1.51063e-07
2006.82	-1.57746e-07
2015.5	-2.90761e-07
2024.18	-2.90225e-07
2032.86	-3.61229e-07
2041.54	-2.48204e-07
2050.21	-2.32784e-07
2058.89	-1.35945e-07
2067.57	-1.36091e-07
2076.25	1.79659e-08
2084.93	1.94462e-07
2093.6	6.46215e-07
2102.28	1.02615e-06
2110.96	1.453e-06
2119.64	2.34633e-06
2128.32	1.5014e-06
2137	9.88287e-07
2145.67	4.82234e-07
2154.35	6.46463e-07
2163.03	2.82677e-07
2171.71	2.77111e-07
2180.39	4.12863e-07
2189.06	3.45658e-07
2197.74	2.07533e-07
2206.42	3.0725e-07
2215.1	-1.31784e-08
2223.78	1.43401e-07
2232.46	4.24268e-07
2241.13	8.11074e-07
2249.81	1.17099e-06
2258.49	1.22e-06
2267.17	1.49921e-06
2275.85	1.44881e-06
2284.52	1.3791e-06
2293.2	9.76995e-07
2301.88	7.59818e-07
2310.56	9.47471e-07
2319.24	2.09166e-06
2327.92	1.38101e-06
2336.59	1.25458e-06
2345.27	1.1354e-06
2353.95	1.04496e-06
2362.63	3.33751e-06
2371.31	2.20898e-06
2379.98	1.20711e-06
2388.66	1.27605e-06
2397.34	1.3889e-06
2406.02	1.6166e-06
2414.7	1.6061e-06
2423.37	1.43281e-06
2432.05	1.23363e-06
2440.73	1.04729e-06
2449.41	8.25642e-07
2458.09	9.49561e-07
2466.77	9.5615e-07
2475.44	1.00404e-06
2484.12	1.1274e-06
2492.8	9.43831e-07
2501.48	7.88838e-07
2510.16	6.10799e-07
2518.83	5.96251e-07
2527.51	5.11203e-07
2536.19	4.50132e-07
2544.87	5.95597e-07
2553.55	6.94628e-07
2562.23	6.82101e-07
2570.9	9.26148e-07
2579.58	1.10178e-06
2588.26	1.19421e-06
2596.94	1.57259e-06
2605.62	1.62901e-06
2614.29	1.8717e-06
2622.97	2.38001e-06
2631.65	2.61935e-06
2640.33	2.76055e-06
2649.01	3.02432e-06
2657.68	3.2304e-06
2666.36	3.50514e-06
2675.04	3.68445e-06
2683.72	3.9682e-06
2692.4	4.2658e-06
2701.08	4.72333e-06
2709.75	5.66833e-06
2718.43	6.41206e-06
2727.11	7.16984e-06
2735.79	8.45908e-06
2744.47	9.80766e-06
2753.14	1.0275e-05
2761.82	1.12253e-05
2770.5	1.18569e-05
2779.18	1.32789e-05
2787.86	1.38739e-05
2796.54	1.6445e-05
2805.21	1.78155e-05
2813.89	1.95087e-05
2822.57	2.36139e-05
2831.25	2.80739e-05
2839.93	3.72731e-05
2848.6	5.02227e-05
2857.28	7.07665e-05
2865.96	0.000100677
2874.64	0.000116863
2883.32	0.000146305
2892	0.000156391
2900.67	0.000214363
2909.35	0.000162103
2918.03	0.000149632
2926.71	0.000144432
2935.39	0.000139967
2944.06	0.00014501
2952.74	0.000158503
2961.42	0.000180282
2970.1	0.000210342
2978.78	0.00021176
2987.45	0.000220768
2996.13	0.000174045
3004.81	0.000133601
3013.49	8.80905e-05
3022.17	5.34841e-05
3030.85	2.85388e-05
3039.52	1.28811e-05
3048.2	5.22199e-06
3056.88	2.00068e-06
3065.56	1.05642e-06
3074.24	7.56132e-07
3082.91	6.29937e-07
3091.59	6.34586e-07
3100.27	6.52138e-07
3108.95	5.82934e-07
3117.63	6.05214e-07
3126.31	7.24714e-07
3134.98	5.9902e-07
3143.66	5.98411e-07
3152.34	8.25605e-07
3161.02	7.26001e-07
3169.7	8.53089e-07
3178.37	1.08888e-06
3187.05	1.27182e-06
3195.73	1.49665e-06
3204.41	1.73168e-06
3213.09	2.1202e-06
3221.77	2.24304e-06
3230.44	1.93046e-06
3239.12	1.77765e-06
3247.8	1.1269e-06
3256.48	6.98824e-07
3265.16	1.35508e-07
3273.83	-1.73484e-07
3282.51	-3.15418e-07
3291.19	-2.79124e-07
3299.87	-3.21882e-07
3308.55	-2.41267e-07
3317.22	-1.71094e-07
3325.9	-2.67637e-07
3334.58	-2.93259e-07
3343.26	2.05779e-08
3351.94	-5.7591e-08
3360.62	-5.32464e-08
3369.29	2.09853e-07
3377.97	4.22156e-07
3386.65	8.62079e-07
3395.33	9.38582e-07
3404.01	1.31608e-06
3412.68	1.34531e-06
3421.36	1.26101e-06
3430.04	8.49814e-07
3438.72	1.01486e-06
3447.4	1.07656e-06
3456.08	1.23982e-06
3464.75	1.38604e-06
3473.43	1.99224e-06
3482.11	1.58365e-06
3490.79	1.43403e-06
3499.47	1.20018e-06
3508.14	1.05264e-06
3516.82	8.71199e-07
3525.5	7.01536e-07
3534.18	8.37574e-07
3542.86	6.21351e-07
3551.53	7.28837e-07
3560.21	7.91434e-07
3568.89	1.11103e-06
3577.57	8.74968e-07
3586.25	1.13525e-06
3594.93	1.67914e-06
3603.6	2.6107e-06
3612.28	4.16718e-06
3620.96	7.14544e-06
3629.64	1.1523e-05
3638.32	1.88022e-05
3646.99	3.0775e-05
3655.67	4.83262e-05
3664.35	5.11588e-05
3673.03	5.16868e-05
3681.71	4.2968e-05
3690.39	4.30489e-05
3699.06	2.64498e-05
3707.74	1.11418e-05
3716.42	4.85956e-06
3725.1	2.73182e-06
3733.78	2.03722e-06
3742.45	1.48782e-06
3751.13	1.48739e-06
3759.81	1.41069e-06
3768.49	1.08943e-06
3777.17	1.4409e-06
3785.85	1.89152e-06
3794.52	1.73863e-06
3803.2	1.64059e-06
3811.88	1.81989e-06
3820.56	1.69119e-06
3829.24	2.04963e-06
3837.91	2.17794e-06
3846.59	2.43375e-06
3855.27	2.40621e-06
3863.95	2.30223e-06
3872.63	2.03357e-06
3881.3	1.81362e-06
3889.98	1.67222e-06
3898.66	1.57944e-06
3907.34	1.41141e-06
3916.02	1.18069e-06
3924.7	1.19783e-06
3933.37	7.75908e-07
3942.05	7.9588e-07
3950.73	9.27833e-07
3959.41	1.04502e-06
3968.09	1.08843e-06
