Infrared Spectrum: Ethanol
Formula: C2 H5 O H
CAS: 64-17-5
State: gas
Melting point: -117.3 C
Boiling point: 78.5 C
Class: IUPAC A
Instrument: IFS66V (Bruker)
Instrument parameters: KBr Beam splitter; MCT Detector; Multipass cell
Sampling: 1 L/min Flow
Resolution: 0.9640
Temperature: 23 C
Pressure: 101.3 kPa
Origin: NIST, Anayltical Chemistry Division, 301-975-3108
cm-1	(micromol/mol)-1m-1 (base 10)
575.169	2.20675e-06
583.847	2.95414e-06
592.525	2.30429e-06
601.203	2.55703e-06
609.882	2.74385e-06
618.56	2.54252e-06
627.238	2.80578e-06
635.916	2.50506e-06
644.594	2.47511e-06
653.272	1.70376e-06
661.951	1.72755e-06
670.629	1.33234e-06
679.307	1.41187e-06
687.985	1.03831e-06
696.663	7.74869e-07
705.341	5.50605e-07
714.019	3.93406e-07
722.698	4.93572e-07
731.376	7.53794e-07
740.054	7.85159e-07
748.732	7.28822e-07
757.41	1.01911e-06
766.088	1.54407e-06
774.767	2.54496e-06
783.445	3.50267e-06
792.123	3.78108e-06
800.801	6.72005e-06
809.479	4.01919e-06
818.157	3.9419e-06
826.835	4.0056e-06
835.514	4.23534e-06
844.192	6.31813e-06
852.87	1.32667e-05
861.548	2.74181e-05
870.226	3.8145e-05
878.904	5.51242e-05
887.583	3.6926e-05
896.261	4.26697e-05
904.939	3.23364e-05
913.617	1.54149e-05
922.295	7.59282e-06
930.973	5.24865e-06
939.651	4.36877e-06
948.33	4.01566e-06
957.008	4.1928e-06
965.686	5.2526e-06
974.364	7.33535e-06
983.042	1.10932e-05
991.72	1.90668e-05
1000.4	3.53433e-05
1009.08	6.37023e-05
1017.75	9.15937e-05
1026.43	0.000135926
1035.11	0.000160589
1043.79	0.000234106
1052.47	0.000263819
1061.15	0.000229862
1069.82	0.000235133
1078.5	0.000248656
1087.18	0.000164015
1095.86	9.83554e-05
1104.54	8.50234e-05
1113.21	5.11196e-05
1121.89	2.91268e-05
1130.57	1.99148e-05
1139.25	1.40926e-05
1147.93	1.08109e-05
1156.61	1.0026e-05
1165.28	1.01946e-05
1173.96	1.0708e-05
1182.64	1.31007e-05
1191.32	1.62219e-05
1200	2.07826e-05
1208.67	2.87048e-05
1217.35	4.6847e-05
1226.03	6.90316e-05
1234.71	6.37648e-05
1243.39	6.23013e-05
1252.07	7.3914e-05
1260.74	6.11895e-05
1269.42	3.78757e-05
1278.1	2.55331e-05
1286.78	1.89069e-05
1295.46	1.61171e-05
1304.13	1.52059e-05
1312.81	1.49705e-05
1321.49	1.56023e-05
1330.17	1.57441e-05
1338.85	1.75634e-05
1347.52	2.00875e-05
1356.2	2.66627e-05
1364.88	4.07061e-05
1373.56	6.45007e-05
1382.24	8.5528e-05
1390.92	7.60732e-05
1399.59	7.65397e-05
1408.27	9.46645e-05
1416.95	5.72002e-05
1425.63	3.43903e-05
1434.31	2.84535e-05
1442.98	2.78307e-05
1451.66	3.23784e-05
1460.34	2.13513e-05
1469.02	1.97279e-05
1477.7	1.94017e-05
1486.38	1.41242e-05
1495.05	1.11505e-05
1503.73	8.645e-06
1512.41	5.69764e-06
1521.09	3.43402e-06
1529.77	2.09494e-06
1538.44	1.30512e-06
1547.12	8.23004e-07
1555.8	6.35382e-07
1564.48	5.0598e-07
1573.16	4.23296e-07
1581.83	4.06646e-07
1590.51	4.09749e-07
1599.19	3.75793e-07
1607.87	3.73637e-07
1616.55	3.33181e-07
1625.23	3.12797e-07
1633.9	3.47392e-07
1642.58	3.70064e-07
1651.26	4.1015e-07
1659.94	3.94545e-07
1668.62	4.36661e-07
1677.29	4.43523e-07
1685.97	5.2075e-07
1694.65	4.22297e-07
1703.33	4.5823e-07
1712.01	3.50305e-07
1720.69	3.62394e-07
1729.36	3.44498e-07
1738.04	3.99105e-07
1746.72	4.59659e-07
1755.4	5.50913e-07
1764.08	6.07164e-07
1772.75	6.22394e-07
1781.43	4.49605e-07
1790.11	2.79864e-07
1798.79	1.29536e-07
1807.47	-3.30655e-08
1816.15	-1.22078e-07
1824.82	-1.66659e-07
1833.5	-1.68625e-07
1842.18	-1.9192e-07
1850.86	-1.28597e-07
1859.54	-9.13691e-08
1868.21	3.43724e-08
1876.89	1.88936e-07
1885.57	5.58981e-07
1894.25	1.183e-06
1902.93	2.03594e-06
1911.6	2.60252e-06
1920.28	3.30085e-06
1928.96	3.67672e-06
1937.64	3.34874e-06
1946.32	3.205e-06
1955	1.92354e-06
1963.67	1.23228e-06
1972.35	7.352e-07
1981.03	4.72083e-07
1989.71	5.00167e-07
1998.39	8.27486e-08
2007.06	-2.0125e-07
2015.74	-3.12834e-07
2024.42	-3.22722e-07
2033.1	-3.36838e-07
2041.78	-2.93079e-07
2050.46	-2.28496e-07
2059.13	-1.56985e-07
2067.81	-1.32898e-07
2076.49	1.1559e-08
2085.17	2.27094e-07
2093.85	6.67743e-07
2102.52	1.21529e-06
2111.2	1.86191e-06
2119.88	1.8094e-06
2128.56	1.49792e-06
2137.24	9.91672e-07
2145.91	5.02793e-07
2154.59	6.20223e-07
2163.27	2.63214e-07
2171.95	4.59607e-07
2180.63	4.9414e-07
2189.31	5.01777e-07
2197.98	1.36083e-07
2206.66	1.13036e-07
2215.34	4.83525e-09
2224.02	1.82573e-07
2232.7	3.99998e-07
2241.37	7.62031e-07
2250.05	1.22991e-06
2258.73	1.24548e-06
2267.41	1.44554e-06
2276.09	1.47936e-06
2284.77	1.35705e-06
2293.44	8.98241e-07
2302.12	8.35756e-07
2310.8	1.0134e-06
2319.48	1.35017e-06
2328.16	1.98665e-06
2336.83	1.5364e-06
2345.51	1.44556e-06
2354.19	1.79392e-06
2362.87	2.48661e-06
2371.55	1.62964e-06
2380.23	1.17785e-06
2388.9	1.2192e-06
2397.58	1.4146e-06
2406.26	1.61159e-06
2414.94	1.6706e-06
2423.62	1.43472e-06
2432.29	1.20736e-06
2440.97	1.07081e-06
2449.65	8.48277e-07
2458.33	9.03128e-07
2467.01	9.55829e-07
2475.68	9.59088e-07
2484.36	1.13228e-06
2493.04	9.4308e-07
2501.72	7.24815e-07
2510.4	6.24829e-07
2519.08	6.19416e-07
2527.75	5.27694e-07
2536.43	4.9374e-07
2545.11	5.84834e-07
2553.79	6.67893e-07
2562.47	7.02427e-07
2571.14	8.91302e-07
2579.82	1.08421e-06
2588.5	1.23998e-06
2597.18	1.53447e-06
2605.86	1.67126e-06
2614.54	1.91338e-06
2623.21	2.30556e-06
2631.89	2.54423e-06
2640.57	2.76101e-06
2649.25	3.03552e-06
2657.93	3.27388e-06
2666.6	3.53636e-06
2675.28	3.68821e-06
2683.96	3.93374e-06
2692.64	4.22739e-06
2701.32	4.72916e-06
2709.99	5.60752e-06
2718.67	6.44839e-06
2727.35	7.13196e-06
2736.03	8.46661e-06
2744.71	9.8403e-06
2753.39	1.03435e-05
2762.06	1.11982e-05
2770.74	1.19465e-05
2779.42	1.3287e-05
2788.1	1.39082e-05
2796.78	1.64249e-05
2805.45	1.77672e-05
2814.13	1.95669e-05
2822.81	2.36199e-05
2831.49	2.83193e-05
2840.17	3.7507e-05
2848.85	5.06434e-05
2857.52	7.1361e-05
2866.2	0.000101611
2874.88	0.000117378
2883.56	0.000147746
2892.24	0.000157008
2900.91	0.00020763
2909.59	0.000162976
2918.27	0.000150374
2926.95	0.00014451
2935.63	0.000140026
2944.31	0.000145412
2952.98	0.000159236
2961.66	0.000180555
2970.34	0.000212918
2979.02	0.000208704
2987.7	0.000217913
2996.37	0.000173398
3005.05	0.000131777
3013.73	8.71138e-05
3022.41	5.27135e-05
3031.09	2.78038e-05
3039.76	1.24316e-05
3048.44	4.93697e-06
3057.12	1.92597e-06
3065.8	9.77565e-07
3074.48	7.83115e-07
3083.16	6.40911e-07
3091.83	6.47435e-07
3100.51	6.68943e-07
3109.19	5.77001e-07
3117.87	6.52222e-07
3126.55	6.40005e-07
3135.22	5.71967e-07
3143.9	5.87734e-07
3152.58	7.31575e-07
3161.26	7.16332e-07
3169.94	8.91204e-07
3178.62	1.04551e-06
3187.29	1.26222e-06
3195.97	1.46951e-06
3204.65	1.85259e-06
3213.33	1.98391e-06
3222.01	2.16869e-06
3230.68	1.92513e-06
3239.36	1.78288e-06
3248.04	1.02793e-06
3256.72	6.68375e-07
3265.4	1.76649e-07
3274.07	-1.0535e-07
3282.75	-3.54159e-07
3291.43	-3.08929e-07
3300.11	-3.56056e-07
3308.79	-2.33679e-07
3317.47	-1.65258e-07
3326.14	-3.27832e-07
3334.82	-3.52401e-07
3343.5	-9.4203e-08
3352.18	-1.25544e-07
3360.86	-7.72717e-08
3369.53	2.07252e-07
3378.21	5.17071e-07
3386.89	8.55837e-07
3395.57	8.82023e-07
3404.25	1.24671e-06
3412.93	1.37625e-06
3421.6	1.14563e-06
3430.28	8.7766e-07
3438.96	1.00566e-06
3447.64	1.12866e-06
3456.32	1.29367e-06
3464.99	1.45839e-06
3473.67	2.19199e-06
3482.35	1.60974e-06
3491.03	1.39627e-06
3499.71	1.14181e-06
3508.39	1.0973e-06
3517.06	8.61687e-07
3525.74	7.73721e-07
3534.42	8.43118e-07
3543.1	7.52235e-07
3551.78	7.95609e-07
3560.45	8.07854e-07
3569.13	1.00256e-06
3577.81	8.02412e-07
3586.49	1.01703e-06
3595.17	1.73647e-06
3603.84	2.56196e-06
3612.52	4.26164e-06
3621.2	7.27072e-06
3629.88	1.16824e-05
3638.56	1.96232e-05
3647.24	3.16821e-05
3655.91	4.80535e-05
3664.59	5.17348e-05
3673.27	5.14683e-05
3681.95	4.32757e-05
3690.63	4.29971e-05
3699.3	2.59143e-05
3707.98	1.08184e-05
3716.66	4.78322e-06
3725.34	2.68155e-06
3734.02	1.79928e-06
3742.7	1.36909e-06
3751.37	1.55715e-06
3760.05	1.35218e-06
3768.73	1.09051e-06
3777.41	1.44335e-06
3786.09	1.84895e-06
3794.76	1.74886e-06
3803.44	1.61458e-06
3812.12	1.72244e-06
3820.8	1.71784e-06
3829.48	2.00438e-06
3838.16	2.18716e-06
3846.83	2.46955e-06
3855.51	2.32114e-06
3864.19	2.36117e-06
3872.87	2.0723e-06
3881.55	1.94104e-06
3890.22	1.62247e-06
3898.9	1.61177e-06
3907.58	1.41396e-06
3916.26	1.15686e-06
3924.94	1.18138e-06
3933.61	8.91546e-07
3942.29	8.67096e-07
3950.97	8.77688e-07
3959.65	9.91583e-07
3968.33	1.17952e-06
