Infrared Spectrum: Ethanol
Formula: C2 H5 O H
CAS: 64-17-5
State: gas
Melting point: -117.3 C
Boiling point: 78.5 C
Class: IUPAC A
Instrument: IFS66V (Bruker)
Instrument parameters: KBr Beam splitter; MCT Detector; Multipass cell
Sampling: 1 L/min Flow
Resolution: 0.4820
Temperature: 23 C
Pressure: 101.3 kPa
Origin: NIST, Anayltical Chemistry Division, 301-975-3108
cm-1	(micromol/mol)-1m-1 (base 10)
574.928	2.59922e-06
583.606	4.14087e-06
592.284	1.1455e-06
600.962	2.9635e-06
609.641	2.74569e-06
618.319	2.17486e-06
626.997	2.20509e-06
635.675	3.03202e-06
644.353	2.86442e-06
653.031	1.92157e-06
661.71	1.6919e-06
670.388	1.49961e-06
679.066	1.7305e-06
687.744	1.05032e-06
696.422	1.24691e-07
705.1	4.57002e-07
713.778	4.83651e-07
722.457	5.81718e-07
731.135	9.23857e-07
739.813	7.91181e-07
748.491	7.03407e-07
757.169	1.34367e-06
765.847	1.87376e-06
774.526	2.87012e-06
783.204	3.68366e-06
791.882	3.55969e-06
800.56	6.14948e-06
809.238	4.21792e-06
817.916	3.87843e-06
826.594	4.23698e-06
835.273	4.52091e-06
843.951	6.17633e-06
852.629	1.30229e-05
861.307	2.76191e-05
869.985	3.86512e-05
878.663	4.11447e-05
887.342	3.70044e-05
896.02	4.22574e-05
904.698	3.26272e-05
913.376	1.598e-05
922.054	7.65453e-06
930.732	5.49516e-06
939.41	4.48776e-06
948.089	4.03028e-06
956.767	3.97651e-06
965.445	5.09093e-06
974.123	7.42896e-06
982.801	1.10676e-05
991.479	1.80952e-05
1000.16	3.37721e-05
1008.84	6.38561e-05
1017.51	9.35449e-05
1026.19	0.000128793
1034.87	0.000157025
1043.55	0.000234786
1052.23	0.000262562
1060.9	0.000226512
1069.58	0.000231154
1078.26	0.000246585
1086.94	0.000168595
1095.62	9.80236e-05
1104.3	8.66413e-05
1112.97	5.19065e-05
1121.65	2.95668e-05
1130.33	1.98994e-05
1139.01	1.42603e-05
1147.69	1.05471e-05
1156.36	1.00349e-05
1165.04	1.0138e-05
1173.72	1.05715e-05
1182.4	1.30732e-05
1191.08	1.59762e-05
1199.76	2.04263e-05
1208.43	2.81613e-05
1217.11	4.45843e-05
1225.79	6.47884e-05
1234.47	6.24272e-05
1243.15	6.71619e-05
1251.82	7.51947e-05
1260.5	6.18084e-05
1269.18	3.89466e-05
1277.86	2.55443e-05
1286.54	1.90093e-05
1295.21	1.61102e-05
1303.89	1.53795e-05
1312.57	1.50228e-05
1321.25	1.55899e-05
1329.93	1.55474e-05
1338.61	1.82196e-05
1347.28	2.00291e-05
1355.96	2.62229e-05
1364.64	4.03832e-05
1373.32	6.32834e-05
1382	8.60902e-05
1390.67	7.50756e-05
1399.35	7.64889e-05
1408.03	9.47323e-05
1416.71	5.84298e-05
1425.39	3.48794e-05
1434.07	2.77976e-05
1442.74	2.72365e-05
1451.42	3.26769e-05
1460.1	2.14285e-05
1468.78	1.95114e-05
1477.46	1.935e-05
1486.13	1.43998e-05
1494.81	1.11568e-05
1503.49	8.56915e-06
1512.17	5.6849e-06
1520.85	3.49464e-06
1529.52	2.08794e-06
1538.2	1.28038e-06
1546.88	7.62485e-07
1555.56	5.99707e-07
1564.24	5.50435e-07
1572.92	4.44077e-07
1581.59	4.91055e-07
1590.27	3.65701e-07
1598.95	3.61648e-07
1607.63	4.79289e-07
1616.31	3.01647e-07
1624.98	2.1775e-07
1633.66	3.79826e-07
1642.34	3.81069e-07
1651.02	3.99244e-07
1659.7	4.88532e-07
1668.38	4.38524e-07
1677.05	4.02784e-07
1685.73	4.78661e-07
1694.41	4.09347e-07
1703.09	4.44852e-07
1711.77	4.46002e-07
1720.44	3.1773e-07
1729.12	2.55131e-07
1737.8	3.59511e-07
1746.48	5.24832e-07
1755.16	4.40041e-07
1763.84	5.8577e-07
1772.51	5.93543e-07
1781.19	4.36947e-07
1789.87	2.99822e-07
1798.55	2.32069e-07
1807.23	3.63515e-08
1815.9	-2.08747e-07
1824.58	-1.87181e-07
1833.26	-2.51687e-07
1841.94	-1.81725e-07
1850.62	-1.56848e-07
1859.29	-8.19905e-08
1867.97	5.67734e-08
1876.65	2.20759e-07
1885.33	5.42118e-07
1894.01	1.11914e-06
1902.69	2.07135e-06
1911.36	2.54962e-06
1920.04	3.24437e-06
1928.72	3.67327e-06
1937.4	3.44411e-06
1946.08	3.20622e-06
1954.75	1.92453e-06
1963.43	1.24933e-06
1972.11	8.39937e-07
1980.79	4.89249e-07
1989.47	6.22151e-07
1998.15	2.32772e-07
2006.82	-1.17284e-07
2015.5	-3.30724e-07
2024.18	-2.84981e-07
2032.86	-4.23297e-07
2041.54	-2.55629e-07
2050.21	-1.84674e-07
2058.89	-1.08565e-07
2067.57	-2.21626e-07
2076.25	-1.18874e-08
2084.93	1.67815e-07
2093.6	6.81763e-07
2102.28	9.60614e-07
2110.96	1.47312e-06
2119.64	3.08807e-06
2128.32	1.56697e-06
2137	9.15998e-07
2145.67	4.93477e-07
2154.35	5.32868e-07
2163.03	4.18889e-07
2171.71	2.89713e-07
2180.39	4.33127e-07
2189.06	3.27642e-07
2197.74	3.08829e-07
2206.42	5.22979e-07
2215.1	-2.16274e-09
2223.78	1.00934e-07
2232.46	4.814e-07
2241.13	8.48326e-07
2249.81	1.07882e-06
2258.49	1.24777e-06
2267.17	1.5341e-06
2275.85	1.41311e-06
2284.52	1.40993e-06
2293.2	9.65153e-07
2301.88	6.59677e-07
2310.56	1.06873e-06
2319.24	2.88598e-06
2327.92	1.35421e-06
2336.59	1.52134e-06
2345.27	9.64029e-07
2353.95	7.83787e-07
2362.63	3.97616e-06
2371.31	2.89598e-06
2379.98	1.22586e-06
2388.66	1.24682e-06
2397.34	1.42495e-06
2406.02	1.6614e-06
2414.7	1.57066e-06
2423.37	1.42833e-06
2432.05	1.32948e-06
2440.73	1.03896e-06
2449.41	8.19937e-07
2458.09	9.65946e-07
2466.77	9.37894e-07
2475.44	1.05926e-06
2484.12	1.17991e-06
2492.8	9.30886e-07
2501.48	8.49121e-07
2510.16	5.96523e-07
2518.83	5.96829e-07
2527.51	4.75772e-07
2536.19	4.28223e-07
2544.87	6.80151e-07
2553.55	7.09548e-07
2562.23	6.09326e-07
2570.9	9.91952e-07
2579.58	1.09618e-06
2588.26	1.09131e-06
2596.94	1.56653e-06
2605.62	1.57486e-06
2614.29	1.78342e-06
2622.97	2.48389e-06
2631.65	2.65321e-06
2640.33	2.73394e-06
2649.01	2.97021e-06
2657.68	3.20282e-06
2666.36	3.50286e-06
2675.04	3.60738e-06
2683.72	4.00697e-06
2692.4	4.28104e-06
2701.08	4.67816e-06
2709.75	5.61931e-06
2718.43	6.45423e-06
2727.11	7.19757e-06
2735.79	8.40157e-06
2744.47	9.6652e-06
2753.14	1.01456e-05
2761.82	1.12903e-05
2770.5	1.17506e-05
2779.18	1.32182e-05
2787.86	1.38464e-05
2796.54	1.64921e-05
2805.21	1.7699e-05
2813.89	1.94344e-05
2822.57	2.36842e-05
2831.25	2.79706e-05
2839.93	3.72279e-05
2848.6	5.01472e-05
2857.28	7.08689e-05
2865.96	0.000100714
2874.64	0.000116725
2883.32	0.000146581
2892	0.000156639
2900.67	0.000220971
2909.35	0.000161917
2918.03	0.000149295
2926.71	0.00014451
2935.39	0.000139947
2944.06	0.000144952
2952.74	0.000158326
2961.42	0.000180516
2970.1	0.000210333
2978.78	0.000214252
2987.45	0.000222036
2996.13	0.000173893
3004.81	0.000134081
3013.49	8.81277e-05
3022.17	5.31886e-05
3030.85	2.84671e-05
3039.52	1.26388e-05
3048.2	5.07629e-06
3056.88	1.81428e-06
3065.56	8.74424e-07
3074.24	5.76428e-07
3082.91	5.21951e-07
3091.59	6.80746e-07
3100.27	5.06182e-07
3108.95	3.82181e-07
3117.63	4.77499e-07
3126.31	7.38595e-07
3134.98	6.38997e-07
3143.66	4.9714e-07
3152.34	8.88166e-07
3161.02	6.37234e-07
3169.7	7.43245e-07
3178.37	1.22005e-06
3187.05	1.20327e-06
3195.73	1.40998e-06
3204.41	1.68009e-06
3213.09	2.24844e-06
3221.77	2.26553e-06
3230.44	1.83438e-06
3239.12	1.74417e-06
3247.8	1.36612e-06
3256.48	7.99062e-07
3265.16	5.71276e-08
3273.83	-2.41589e-07
3282.51	-2.66421e-07
3291.19	-3.72769e-07
3299.87	-5.39066e-07
3308.55	-3.53885e-07
3317.22	-1.25899e-07
3325.9	-2.63582e-07
3334.58	-2.34041e-07
3343.26	2.19651e-07
3351.94	6.20729e-08
3360.62	-2.77082e-08
3369.29	1.04267e-07
3377.97	2.95232e-07
3386.65	7.99285e-07
3395.33	1.13993e-06
3404.01	1.35747e-06
3412.68	1.14489e-06
3421.36	1.32531e-06
3430.04	7.0642e-07
3438.72	9.46495e-07
3447.4	9.56697e-07
3456.08	1.14348e-06
3464.75	1.39823e-06
3473.43	2.00734e-06
3482.11	1.5018e-06
3490.79	1.64818e-06
3499.47	1.12966e-06
3508.14	9.50738e-07
3516.82	8.09311e-07
3525.5	7.38345e-07
3534.18	9.24229e-07
3542.86	4.57355e-07
3551.53	7.15022e-07
3560.21	7.65457e-07
3568.89	1.27382e-06
3577.57	8.01967e-07
3586.25	1.22818e-06
3594.93	1.60429e-06
3603.6	2.59495e-06
3612.28	4.00657e-06
3620.96	6.96339e-06
3629.64	1.156e-05
3638.32	1.85018e-05
3646.99	3.05963e-05
3655.67	4.91786e-05
3664.35	5.09892e-05
3673.03	5.15542e-05
3681.71	4.29151e-05
3690.39	4.32506e-05
3699.06	2.65229e-05
3707.74	1.11018e-05
3716.42	4.68453e-06
3725.1	2.62459e-06
3733.78	2.11478e-06
3742.45	1.46569e-06
3751.13	1.44018e-06
3759.81	1.34416e-06
3768.49	1.09142e-06
3777.17	1.46702e-06
3785.85	2.02352e-06
3794.52	1.73033e-06
3803.2	1.64977e-06
3811.88	1.95438e-06
3820.56	1.71961e-06
3829.24	2.01126e-06
3837.91	1.99934e-06
3846.59	2.33268e-06
3855.27	2.52007e-06
3863.95	2.32136e-06
3872.63	2.08806e-06
3881.3	1.734e-06
3889.98	1.59899e-06
3898.66	1.66982e-06
3907.34	1.40083e-06
3916.02	1.03784e-06
3924.7	1.23116e-06
3933.37	6.10277e-07
3942.05	7.41858e-07
3950.73	9.55712e-07
3959.41	9.78043e-07
3968.09	1.08849e-06
