Infrared Spectrum: Ethanol
Formula: C2 H5 O H
CAS: 64-17-5
State: gas
Melting point: -117.3 C
Boiling point: 78.5 C
Class: IUPAC A
Instrument: IFS66V (Bruker)
Instrument parameters: KBr Beam splitter; MCT Detector; Multipass cell
Sampling: 1 L/min Flow
Resolution: 1.9290
Temperature: 23 C
Pressure: 101.3 kPa
Origin: NIST, Anayltical Chemistry Division, 301-975-3108
cm-1	(micromol/mol)-1m-1 (base 10)
574.687	2.34029e-06
583.365	2.93169e-06
592.043	2.1242e-06
600.721	2.74944e-06
609.4	2.85614e-06
618.078	2.64881e-06
626.756	2.73527e-06
635.434	2.39203e-06
644.112	2.45063e-06
652.79	1.45442e-06
661.469	1.85471e-06
670.147	1.58694e-06
678.825	1.31912e-06
687.503	1.09803e-06
696.181	6.69638e-07
704.859	6.58282e-07
713.537	2.46868e-07
722.216	2.67058e-07
730.894	5.76996e-07
739.572	6.99564e-07
748.25	6.72663e-07
756.928	1.20893e-06
765.606	1.53533e-06
774.285	2.38145e-06
782.963	3.34123e-06
791.641	3.58191e-06
800.319	5.73358e-06
808.997	4.12765e-06
817.675	3.96888e-06
826.353	3.97294e-06
835.032	4.03092e-06
843.71	6.16758e-06
852.388	1.27225e-05
861.066	2.66321e-05
869.744	3.81853e-05
878.422	3.99663e-05
887.101	3.74974e-05
895.779	4.30815e-05
904.457	3.30199e-05
913.135	1.64043e-05
921.813	7.63346e-06
930.491	5.50452e-06
939.169	4.33345e-06
947.848	4.15646e-06
956.526	4.01598e-06
965.204	5.16505e-06
973.882	7.07607e-06
982.56	1.09212e-05
991.238	1.83631e-05
999.917	3.4283e-05
1008.59	6.16133e-05
1017.27	9.06769e-05
1025.95	0.000119044
1034.63	0.000155367
1043.31	0.000230984
1051.99	0.000263319
1060.66	0.000231322
1069.34	0.000229049
1078.02	0.000251771
1086.7	0.000169986
1095.38	9.79695e-05
1104.05	8.60945e-05
1112.73	5.25944e-05
1121.41	3.01483e-05
1130.09	2.03007e-05
1138.77	1.44423e-05
1147.45	1.08485e-05
1156.12	1.01193e-05
1164.8	9.92682e-06
1173.48	1.08156e-05
1182.16	1.28408e-05
1190.84	1.60343e-05
1199.51	2.04507e-05
1208.19	2.84326e-05
1216.87	4.58721e-05
1225.55	6.734e-05
1234.23	6.34232e-05
1242.9	5.95542e-05
1251.58	7.40858e-05
1260.26	6.2289e-05
1268.94	3.98191e-05
1277.62	2.5723e-05
1286.3	1.91242e-05
1294.97	1.60896e-05
1303.65	1.53203e-05
1312.33	1.49932e-05
1321.01	1.53909e-05
1329.69	1.5608e-05
1338.36	1.79041e-05
1347.04	1.99123e-05
1355.72	2.6002e-05
1364.4	3.95899e-05
1373.08	6.32142e-05
1381.76	8.55221e-05
1390.43	7.19502e-05
1399.11	7.50365e-05
1407.79	9.55901e-05
1416.47	5.95716e-05
1425.15	3.51981e-05
1433.82	2.81878e-05
1442.5	2.75442e-05
1451.18	3.18866e-05
1459.86	2.17415e-05
1468.54	1.98195e-05
1477.22	1.91643e-05
1485.89	1.42044e-05
1494.57	1.15003e-05
1503.25	8.68368e-06
1511.93	5.82358e-06
1520.61	3.46318e-06
1529.28	2.15442e-06
1537.96	1.20256e-06
1546.64	8.54996e-07
1555.32	6.0597e-07
1564	5.32282e-07
1572.67	3.36456e-07
1581.35	4.97382e-07
1590.03	3.67745e-07
1598.71	3.9734e-07
1607.39	4.07308e-07
1616.07	4.14393e-07
1624.74	2.86222e-07
1633.42	3.96249e-07
1642.1	3.61027e-07
1650.78	4.02864e-07
1659.46	3.27413e-07
1668.13	4.69521e-07
1676.81	4.11801e-07
1685.49	5.65733e-07
1694.17	3.77731e-07
1702.85	5.21964e-07
1711.53	3.47012e-07
1720.2	3.38857e-07
1728.88	3.05377e-07
1737.56	4.38349e-07
1746.24	4.34888e-07
1754.92	4.64258e-07
1763.59	6.16053e-07
1772.27	6.6943e-07
1780.95	5.68588e-07
1789.63	3.65609e-07
1798.31	1.46184e-07
1806.98	-3.42674e-08
1815.66	-1.34475e-07
1824.34	-1.444e-07
1833.02	-2.37104e-07
1841.7	-1.76526e-07
1850.38	-2.03794e-07
1859.05	-6.62161e-08
1867.73	3.86688e-08
1876.41	1.87386e-07
1885.09	5.14066e-07
1893.77	1.16598e-06
1902.44	1.93577e-06
1911.12	2.5345e-06
1919.8	3.21924e-06
1928.48	3.67931e-06
1937.16	3.45207e-06
1945.84	3.38862e-06
1954.51	1.94097e-06
1963.19	1.26082e-06
1971.87	7.50502e-07
1980.55	4.69825e-07
1989.23	4.84327e-07
1997.9	1.35769e-07
2006.58	-2.53377e-07
2015.26	-2.61052e-07
2023.94	-3.56729e-07
2032.62	-3.08922e-07
2041.3	-3.22513e-07
2049.97	-1.83634e-07
2058.65	-1.89467e-07
2067.33	-1.05731e-07
2076.01	-8.97684e-08
2084.69	2.1376e-07
2093.36	5.09376e-07
2102.04	8.87041e-07
2110.72	1.42475e-06
2119.4	1.95613e-06
2128.08	1.77859e-06
2136.75	9.52196e-07
2145.43	4.65557e-07
2154.11	5.3192e-07
2162.79	4.87104e-07
2171.47	2.64444e-07
2180.15	8.0121e-07
2188.82	3.2073e-07
2197.5	2.12832e-07
2206.18	1.34514e-07
2214.86	-3.67821e-08
2223.54	1.38813e-07
2232.21	3.39455e-07
2240.89	7.69418e-07
2249.57	1.15131e-06
2258.25	1.23512e-06
2266.93	1.45039e-06
2275.61	1.54588e-06
2284.28	1.37132e-06
2292.96	9.93724e-07
2301.64	7.20445e-07
2310.32	8.49882e-07
2319	1.59337e-06
2327.67	1.76259e-06
2336.35	2.14157e-06
2345.03	1.62148e-06
2353.71	1.58385e-06
2362.39	2.29795e-06
2371.06	1.59974e-06
2379.74	1.15509e-06
2388.42	1.216e-06
2397.1	1.42027e-06
2405.78	1.56396e-06
2414.46	1.68826e-06
2423.13	1.4067e-06
2431.81	1.16145e-06
2440.49	1.09228e-06
2449.17	8.58367e-07
2457.85	8.79295e-07
2466.52	1.04202e-06
2475.2	9.50148e-07
2483.88	1.11716e-06
2492.56	9.1688e-07
2501.24	7.9561e-07
2509.92	5.97782e-07
2518.59	6.30779e-07
2527.27	5.00472e-07
2535.95	5.27935e-07
2544.63	4.99933e-07
2553.31	6.85891e-07
2561.98	6.53297e-07
2570.66	9.08029e-07
2579.34	1.01157e-06
2588.02	1.29505e-06
2596.7	1.52386e-06
2605.38	1.63875e-06
2614.05	1.82057e-06
2622.73	2.41164e-06
2631.41	2.4864e-06
2640.09	2.80346e-06
2648.77	3.00663e-06
2657.44	3.26433e-06
2666.12	3.48048e-06
2674.8	3.71784e-06
2683.48	3.85567e-06
2692.16	4.285e-06
2700.83	4.61986e-06
2709.51	5.72879e-06
2718.19	6.29468e-06
2726.87	7.11186e-06
2735.55	8.32697e-06
2744.23	9.91556e-06
2752.9	1.02765e-05
2761.58	1.12505e-05
2770.26	1.17785e-05
2778.94	1.32815e-05
2787.62	1.36229e-05
2796.29	1.64523e-05
2804.97	1.76701e-05
2813.65	1.95219e-05
2822.33	2.32588e-05
2831.01	2.79572e-05
2839.69	3.67099e-05
2848.36	4.9841e-05
2857.04	6.98228e-05
2865.72	0.000100156
2874.4	0.000116478
2883.08	0.00014673
2891.75	0.000156101
2900.43	0.000210941
2909.11	0.000163204
2917.79	0.000150493
2926.47	0.000144614
2935.14	0.00013983
2943.82	0.00014472
2952.5	0.000158547
2961.18	0.00017923
2969.86	0.000211633
2978.54	0.000207507
2987.21	0.000228473
2995.89	0.000177308
3004.57	0.000132931
3013.25	8.97342e-05
3021.93	5.36975e-05
3030.6	2.92472e-05
3039.28	1.27335e-05
3047.96	5.431e-06
3056.64	1.78553e-06
3065.32	1.20996e-06
3074	5.84251e-07
3082.67	7.19495e-07
3091.35	4.12692e-07
3100.03	8.08984e-07
3108.71	5.15169e-07
3117.39	7.40589e-07
3126.06	5.6697e-07
3134.74	6.92209e-07
3143.42	4.42768e-07
3152.1	8.03874e-07
3160.78	5.48666e-07
3169.46	8.96926e-07
3178.13	1.00014e-06
3186.81	1.33884e-06
3195.49	1.41922e-06
3204.17	1.78218e-06
3212.85	1.81303e-06
3221.52	2.22767e-06
3230.2	1.90453e-06
3238.88	1.76986e-06
3247.56	1.04904e-06
3256.24	7.19772e-07
3264.91	5.64642e-08
3273.59	-1.81012e-07
3282.27	-2.6468e-07
3290.95	-2.24219e-07
3299.63	-3.84006e-07
3308.31	-1.90557e-07
3316.98	-2.90231e-07
3325.66	-3.34669e-07
3334.34	-3.87182e-07
3343.02	2.48615e-08
3351.7	-2.14045e-07
3360.37	6.164e-09
3369.05	1.51859e-07
3377.73	4.77379e-07
3386.41	8.37627e-07
3395.09	8.38831e-07
3403.77	1.24937e-06
3412.44	1.49513e-06
3421.12	1.0019e-06
3429.8	9.45177e-07
3438.48	1.06606e-06
3447.16	1.16725e-06
3455.83	1.22648e-06
3464.51	1.41184e-06
3473.19	1.81002e-06
3481.87	1.69406e-06
3490.55	1.31033e-06
3499.22	1.27096e-06
3507.9	1.08275e-06
3516.58	9.17885e-07
3525.26	6.53582e-07
3533.94	8.47854e-07
3542.62	6.42368e-07
3551.29	8.36756e-07
3559.97	8.13121e-07
3568.65	1.0193e-06
3577.33	8.1823e-07
3586.01	1.02727e-06
3594.68	1.72151e-06
3603.36	2.45054e-06
3612.04	4.11409e-06
3620.72	7.01287e-06
3629.4	1.14331e-05
3638.08	1.89119e-05
3646.75	3.13052e-05
3655.43	4.66025e-05
3664.11	5.18475e-05
3672.79	4.98455e-05
3681.47	4.19595e-05
3690.14	4.39136e-05
3698.82	2.6706e-05
3707.5	1.15057e-05
3716.18	4.85329e-06
3724.86	2.87652e-06
3733.54	1.74442e-06
3742.21	1.61332e-06
3750.89	1.42826e-06
3759.57	1.40353e-06
3768.25	1.15064e-06
3776.93	1.41307e-06
3785.6	1.63261e-06
3794.28	1.86354e-06
3802.96	1.52007e-06
3811.64	1.76115e-06
3820.32	1.65344e-06
3828.99	2.24116e-06
3837.67	2.27484e-06
3846.35	2.40951e-06
3855.03	2.43993e-06
3863.71	2.36876e-06
3872.39	1.96951e-06
3881.06	1.85081e-06
3889.74	1.56047e-06
3898.42	1.58733e-06
3907.1	1.2878e-06
3915.78	1.34256e-06
3924.45	1.12797e-06
3933.13	8.83871e-07
3941.81	8.68292e-07
3950.49	8.93311e-07
3959.17	9.93081e-07
3967.85	1.10997e-06
