Infrared Spectrum: Ethanol
Formula: C2 H5 O H
CAS: 64-17-5
State: gas
Melting point: -117.3 C
Boiling point: 78.5 C
Class: IUPAC A
Instrument: IFS66V (Bruker)
Instrument parameters: KBr Beam splitter; MCT Detector; Multipass cell
Sampling: 1 L/min Flow
Resolution: 0.2410
Temperature: 23 C
Pressure: 101.3 kPa
Origin: NIST, Anayltical Chemistry Division, 301-975-3108
cm-1	(micromol/mol)-1m-1 (base 10)
575.048	3.07516e-06
583.606	3.6613e-06
592.163	1.83824e-06
600.721	2.80218e-06
609.279	3.65537e-06
617.836	3.18659e-06
626.394	3.09564e-06
634.951	2.68797e-06
643.509	2.50357e-06
652.067	1.80797e-06
660.624	1.01893e-06
669.182	2.09394e-06
677.74	1.43041e-06
686.297	7.69749e-07
694.855	9.32055e-07
703.412	6.39059e-07
711.97	4.03882e-07
720.528	6.12526e-07
729.085	6.18922e-07
737.643	8.10021e-07
746.201	7.89188e-07
754.758	1.02535e-06
763.316	1.36747e-06
771.873	2.10053e-06
780.431	3.21293e-06
788.989	4.10688e-06
797.546	4.92249e-06
806.104	4.22333e-06
814.662	3.8692e-06
823.219	4.23216e-06
831.777	3.74108e-06
840.334	4.89701e-06
848.892	9.42608e-06
857.45	1.94082e-05
866.007	3.54209e-05
874.565	3.453e-05
883.123	4.42284e-05
891.68	6.14348e-05
900.238	4.04873e-05
908.795	2.41779e-05
917.353	1.07784e-05
925.911	6.32619e-06
934.468	4.74856e-06
943.026	4.0002e-06
951.584	3.81126e-06
960.141	4.84316e-06
968.699	5.74027e-06
977.256	8.34705e-06
985.814	1.31107e-05
994.372	2.21024e-05
1002.93	4.02908e-05
1011.49	7.5824e-05
1020.04	9.66416e-05
1028.6	0.000131818
1037.16	0.000205617
1045.72	0.00024552
1054.28	0.000258546
1062.83	0.000238623
1071.39	0.000246576
1079.95	0.000233698
1088.51	0.000155137
1097.06	9.83751e-05
1105.62	8.10846e-05
1114.18	4.8291e-05
1122.74	2.8091e-05
1131.29	2.06314e-05
1139.85	1.37146e-05
1148.41	1.07337e-05
1156.97	1.00265e-05
1165.52	1.01476e-05
1174.08	1.06889e-05
1182.64	1.32669e-05
1191.2	1.59448e-05
1199.75	2.04697e-05
1208.31	2.82038e-05
1216.87	4.51914e-05
1225.43	6.54843e-05
1233.99	6.42745e-05
1242.54	6.03367e-05
1251.1	7.09e-05
1259.66	6.5087e-05
1268.22	4.09387e-05
1276.77	2.71327e-05
1285.33	1.95297e-05
1293.89	1.6456e-05
1302.45	1.47949e-05
1311	1.50176e-05
1319.56	1.50992e-05
1328.12	1.54824e-05
1336.68	1.70239e-05
1345.23	1.87356e-05
1353.79	2.43346e-05
1362.35	3.50447e-05
1370.91	5.66602e-05
1379.46	8.19198e-05
1388.02	7.18012e-05
1396.58	7.10147e-05
1405.14	9.71226e-05
1413.7	7.32293e-05
1422.25	4.04172e-05
1430.81	2.89809e-05
1439.37	2.7817e-05
1447.93	2.92029e-05
1456.48	2.2143e-05
1465.04	1.95767e-05
1473.6	1.95008e-05
1482.16	1.70998e-05
1490.71	1.32235e-05
1499.27	1.00985e-05
1507.83	7.32762e-06
1516.39	4.48563e-06
1524.94	2.73347e-06
1533.5	1.82165e-06
1542.06	1.02335e-06
1550.62	6.92314e-07
1559.18	7.10743e-07
1567.73	4.89964e-07
1576.29	4.01568e-07
1584.85	3.37415e-07
1593.41	2.94803e-07
1601.96	4.24915e-07
1610.52	4.91139e-07
1619.08	3.48904e-07
1627.64	3.97868e-07
1636.19	3.26234e-07
1644.75	3.71466e-07
1653.31	2.3804e-07
1661.87	4.3089e-07
1670.42	5.77264e-07
1678.98	5.13831e-07
1687.54	4.45578e-07
1696.1	4.29803e-07
1704.65	4.34437e-07
1713.21	3.75688e-07
1721.77	5.43803e-07
1730.33	1.71868e-07
1738.89	3.97376e-07
1747.44	4.38999e-07
1756	7.00589e-07
1764.56	4.70954e-07
1773.12	5.50595e-07
1781.67	3.99289e-07
1790.23	1.56547e-07
1798.79	7.5706e-08
1807.35	2.37461e-08
1815.9	-1.53432e-07
1824.46	-1.50515e-07
1833.02	-2.61408e-07
1841.58	-1.56721e-07
1850.13	-1.60199e-07
1858.69	-6.29328e-08
1867.25	4.34509e-08
1875.81	1.87585e-07
1884.36	4.64058e-07
1892.92	9.11733e-07
1901.48	1.80643e-06
1910.04	2.39152e-06
1918.6	2.95594e-06
1927.15	3.81942e-06
1935.71	3.42261e-06
1944.27	3.44884e-06
1952.83	2.15729e-06
1961.38	1.3924e-06
1969.94	8.57131e-07
1978.5	7.19697e-07
1987.06	5.57008e-07
1995.61	2.19694e-07
2004.17	-9.86086e-08
2012.73	-2.04917e-07
2021.29	-2.51906e-07
2029.84	-3.94145e-07
2038.4	-3.72522e-07
2046.96	-4.14613e-07
2055.52	-3.99446e-07
2064.08	-9.45509e-08
2072.63	-1.57756e-07
2081.19	8.38986e-08
2089.75	4.69088e-07
2098.31	8.83907e-07
2106.86	1.31308e-06
2115.42	1.68621e-06
2123.98	1.8626e-06
2132.54	1.13036e-06
2141.09	6.84351e-07
2149.65	2.86242e-07
2158.21	1.41374e-06
2166.77	2.16682e-07
2175.32	4.26183e-07
2183.88	5.30707e-07
2192.44	2.88274e-07
2201	3.50454e-08
2209.55	2.8577e-07
2218.11	7.63277e-08
2226.67	3.89972e-07
2235.23	3.77952e-07
2243.79	8.80137e-07
2252.34	1.2091e-06
2260.9	1.65069e-06
2269.46	1.35151e-06
2278.02	1.44709e-06
2286.57	1.29045e-06
2295.13	7.7961e-07
2303.69	7.37364e-07
2312.25	7.64543e-07
2320.8	1.1957e-06
2329.36	9.72266e-07
2337.92	1.91693e-06
2346.48	8.42549e-07
2355.03	8.58646e-07
2363.59	9.01578e-07
2372.15	9.3475e-07
2380.71	1.34325e-06
2389.26	1.10491e-06
2397.82	1.50279e-06
2406.38	1.57772e-06
2414.94	1.7647e-06
2423.5	1.4474e-06
2432.05	1.31402e-06
2440.61	1.00787e-06
2449.17	7.50489e-07
2457.73	8.55435e-07
2466.28	9.90652e-07
2474.84	1.00029e-06
2483.4	9.65233e-07
2491.96	1.04783e-06
2500.51	6.81895e-07
2509.07	6.65818e-07
2517.63	6.89956e-07
2526.19	5.63815e-07
2534.74	5.78601e-07
2543.3	6.25103e-07
2551.86	5.37318e-07
2560.42	7.61621e-07
2568.98	7.76669e-07
2577.53	1.03309e-06
2586.09	1.24144e-06
2594.65	1.56048e-06
2603.21	1.59348e-06
2611.76	1.80608e-06
2620.32	2.29664e-06
2628.88	2.38204e-06
2637.44	2.59737e-06
2645.99	2.9898e-06
2654.55	3.30367e-06
2663.11	3.46561e-06
2671.67	3.61761e-06
2680.22	3.75579e-06
2688.78	3.88978e-06
2697.34	4.39648e-06
2705.9	5.18246e-06
2714.45	5.86342e-06
2723.01	6.95685e-06
2731.57	7.87194e-06
2740.13	9.26809e-06
2748.69	1.01436e-05
2757.24	1.07441e-05
2765.8	1.1338e-05
2774.36	1.23839e-05
2782.92	1.37643e-05
2791.47	1.52001e-05
2800.03	1.71473e-05
2808.59	1.81018e-05
2817.15	2.08e-05
2825.7	2.47642e-05
2834.26	3.06471e-05
2842.82	4.03952e-05
2851.38	5.56968e-05
2859.93	7.87606e-05
2868.49	0.000107499
2877.05	0.000124068
2885.61	0.000151225
2894.16	0.000157989
2902.72	0.000172062
2911.28	0.000168212
2919.84	0.000150088
2928.4	0.000143244
2936.95	0.000139427
2945.51	0.000145237
2954.07	0.000161667
2962.63	0.000184327
2971.18	0.000216698
2979.74	0.000203807
2988.3	0.000212019
2996.86	0.000171304
3005.41	0.000129054
3013.97	8.65126e-05
3022.53	5.24981e-05
3031.09	2.78526e-05
3039.64	1.26362e-05
3048.2	5.09898e-06
3056.76	1.77179e-06
3065.32	1.09636e-06
3073.88	7.50757e-07
3082.43	5.5726e-07
3090.99	7.53584e-07
3099.55	5.19264e-07
3108.11	7.84392e-07
3116.66	5.70962e-07
3125.22	7.07132e-07
3133.78	8.01349e-07
3142.34	5.47571e-07
3150.89	6.96848e-07
3159.45	9.68409e-07
3168.01	1.2309e-06
3176.57	1.00555e-06
3185.12	1.39638e-06
3193.68	1.25216e-06
3202.24	1.62883e-06
3210.8	1.94523e-06
3219.35	1.92817e-06
3227.91	2.12429e-06
3236.47	1.66745e-06
3245.03	9.98471e-07
3253.59	1.02302e-06
3262.14	2.56615e-07
3270.7	1.76138e-07
3279.26	-6.23417e-08
3287.82	-2.38729e-07
3296.37	-3.21618e-07
3304.93	-1.4972e-07
3313.49	-4.9656e-07
3322.05	-3.35791e-07
3330.6	-1.79435e-07
3339.16	-2.05408e-07
3347.72	-2.0891e-07
3356.28	-1.18726e-07
3364.83	-3.88698e-08
3373.39	3.3043e-07
3381.95	4.92804e-07
3390.51	9.19825e-07
3399.06	9.13038e-07
3407.62	7.89492e-07
3416.18	1.56472e-06
3424.74	1.18733e-06
3433.3	8.2841e-07
3441.85	9.76077e-07
3450.41	1.11241e-06
3458.97	1.07046e-06
3467.53	1.35165e-06
3476.08	1.41578e-06
3484.64	1.45946e-06
3493.2	1.30274e-06
3501.76	1.22731e-06
3510.31	9.12221e-07
3518.87	1.00468e-06
3527.43	6.22992e-07
3535.99	5.87335e-07
3544.54	7.24802e-07
3553.1	7.69624e-07
3561.66	1.02514e-06
3570.22	1.0201e-06
3578.78	6.30542e-07
3587.33	7.86765e-07
3595.89	1.83233e-06
3604.45	2.85241e-06
3613.01	4.44503e-06
3621.56	7.3033e-06
3630.12	1.20975e-05
3638.68	2.01343e-05
3647.24	3.1143e-05
3655.79	5.03582e-05
3664.35	5.10441e-05
3672.91	5.17842e-05
3681.47	4.27906e-05
3690.02	4.3471e-05
3698.58	2.74329e-05
3707.14	1.16136e-05
3715.7	5.19961e-06
3724.25	2.97011e-06
3732.81	1.96e-06
3741.37	1.43848e-06
3749.93	1.50328e-06
3758.49	1.57033e-06
3767.04	1.02128e-06
3775.6	1.54231e-06
3784.16	1.86483e-06
3792.72	1.9122e-06
3801.27	1.79048e-06
3809.83	1.72865e-06
3818.39	1.70313e-06
3826.95	1.98534e-06
3835.5	2.38185e-06
3844.06	2.36826e-06
3852.62	2.31473e-06
3861.18	2.4622e-06
3869.73	2.04427e-06
3878.29	1.67599e-06
3886.85	2.70477e-06
3895.41	1.61543e-06
3903.96	1.46867e-06
3912.52	1.27336e-06
3921.08	1.04909e-06
3929.64	9.88599e-07
3938.2	7.10813e-07
3946.75	9.03497e-07
3955.31	1.05687e-06
3963.87	1.06825e-06
3972.43	1.10886e-06
