Infrared Spectrum: Ethanol
Formula: C2 H5 O H
CAS: 64-17-5
State: gas
Melting point: -117.3 C
Boiling point: 78.5 C
Class: IUPAC A
Instrument: IFS66V (Bruker)
Instrument parameters: KBr Beam splitter; MCT Detector; Multipass cell
Sampling: 1 L/min Flow
Resolution: 0.2410
Temperature: 23 C
Pressure: 101.3 kPa
Origin: NIST, Anayltical Chemistry Division, 301-975-3108
cm-1	(micromol/mol)-1m-1 (base 10)
575.048	2.75766e-06
583.606	3.64318e-06
592.163	1.92082e-06
600.721	2.83066e-06
609.279	3.51325e-06
617.836	3.13697e-06
626.394	3.03396e-06
634.951	2.54825e-06
643.509	2.48709e-06
652.067	1.86253e-06
660.624	1.18484e-06
669.182	2.06269e-06
677.74	1.39265e-06
686.297	8.72388e-07
694.855	9.17552e-07
703.412	6.75892e-07
711.97	4.36167e-07
720.528	6.6231e-07
729.085	6.1482e-07
737.643	7.50668e-07
746.201	8.13686e-07
754.758	9.71075e-07
763.316	1.43384e-06
771.873	2.08152e-06
780.431	3.20293e-06
788.989	4.08394e-06
797.546	4.99832e-06
806.104	4.24991e-06
814.662	3.89946e-06
823.219	4.1866e-06
831.777	3.76145e-06
840.334	4.8904e-06
848.892	9.37441e-06
857.45	1.94802e-05
866.007	3.54754e-05
874.565	3.44837e-05
883.123	4.42934e-05
891.68	6.11141e-05
900.238	4.04808e-05
908.795	2.42123e-05
917.353	1.07498e-05
925.911	6.29315e-06
934.468	4.79567e-06
943.026	4.04691e-06
951.584	3.83323e-06
960.141	4.84113e-06
968.699	5.75091e-06
977.256	8.34807e-06
985.814	1.30799e-05
994.372	2.21987e-05
1002.93	4.06576e-05
1011.49	7.54714e-05
1020.04	9.61901e-05
1028.6	0.000132888
1037.16	0.000206221
1045.72	0.00024558
1054.28	0.00025854
1062.83	0.00023882
1071.39	0.000246612
1079.95	0.000234137
1088.51	0.000154931
1097.06	9.85655e-05
1105.62	8.11506e-05
1114.18	4.83397e-05
1122.74	2.8075e-05
1131.29	2.05452e-05
1139.85	1.3725e-05
1148.41	1.07387e-05
1156.97	9.99819e-06
1165.52	1.0135e-05
1174.08	1.06855e-05
1182.64	1.32283e-05
1191.2	1.59934e-05
1199.75	2.0515e-05
1208.31	2.81466e-05
1216.87	4.5164e-05
1225.43	6.51012e-05
1233.99	6.44125e-05
1242.54	6.06669e-05
1251.1	7.11457e-05
1259.66	6.51075e-05
1268.22	4.08971e-05
1276.77	2.71394e-05
1285.33	1.9509e-05
1293.89	1.64201e-05
1302.45	1.4758e-05
1311	1.50006e-05
1319.56	1.50914e-05
1328.12	1.54739e-05
1336.68	1.70589e-05
1345.23	1.87345e-05
1353.79	2.43098e-05
1362.35	3.50537e-05
1370.91	5.66346e-05
1379.46	8.19352e-05
1388.02	7.18217e-05
1396.58	7.10641e-05
1405.14	9.72301e-05
1413.7	7.31838e-05
1422.25	4.04216e-05
1430.81	2.89473e-05
1439.37	2.77953e-05
1447.93	2.92327e-05
1456.48	2.21532e-05
1465.04	1.95935e-05
1473.6	1.95167e-05
1482.16	1.70789e-05
1490.71	1.32209e-05
1499.27	1.0081e-05
1507.83	7.31281e-06
1516.39	4.49582e-06
1524.94	2.7436e-06
1533.5	1.82043e-06
1542.06	1.02741e-06
1550.62	7.09988e-07
1559.18	6.84004e-07
1567.73	4.86112e-07
1576.29	4.01369e-07
1584.85	3.39537e-07
1593.41	3.29687e-07
1601.96	4.1432e-07
1610.52	4.86426e-07
1619.08	3.61913e-07
1627.64	3.85303e-07
1636.19	3.23988e-07
1644.75	3.83199e-07
1653.31	2.65037e-07
1661.87	4.30314e-07
1670.42	5.61254e-07
1678.98	4.98938e-07
1687.54	4.51324e-07
1696.1	4.35744e-07
1704.65	4.38191e-07
1713.21	3.91499e-07
1721.77	5.04196e-07
1730.33	2.13656e-07
1738.89	3.91796e-07
1747.44	4.32318e-07
1756	7.11059e-07
1764.56	4.92454e-07
1773.12	5.66948e-07
1781.67	3.92251e-07
1790.23	1.77821e-07
1798.79	8.08905e-08
1807.35	8.84378e-09
1815.9	-1.53824e-07
1824.46	-1.61872e-07
1833.02	-2.6452e-07
1841.58	-1.65074e-07
1850.13	-1.73808e-07
1858.69	-8.13835e-08
1867.25	4.45882e-08
1875.81	1.83234e-07
1884.36	4.59852e-07
1892.92	9.2218e-07
1901.48	1.80316e-06
1910.04	2.39799e-06
1918.6	2.96499e-06
1927.15	3.8176e-06
1935.71	3.43792e-06
1944.27	3.4425e-06
1952.83	2.17981e-06
1961.38	1.37591e-06
1969.94	8.62338e-07
1978.5	7.07601e-07
1987.06	5.42286e-07
1995.61	2.09732e-07
2004.17	-9.3997e-08
2012.73	-2.19132e-07
2021.29	-2.62039e-07
2029.84	-3.78828e-07
2038.4	-3.68584e-07
2046.96	-4.0931e-07
2055.52	-3.88904e-07
2064.08	-9.79819e-08
2072.63	-1.57383e-07
2081.19	6.48218e-08
2089.75	4.64451e-07
2098.31	8.9431e-07
2106.86	1.31247e-06
2115.42	1.81177e-06
2123.98	1.90583e-06
2132.54	1.13976e-06
2141.09	6.908e-07
2149.65	2.95009e-07
2158.21	1.33948e-06
2166.77	2.30519e-07
2175.32	4.33183e-07
2183.88	5.21785e-07
2192.44	2.76386e-07
2201	3.43015e-08
2209.55	2.50137e-07
2218.11	6.82628e-08
2226.67	3.80271e-07
2235.23	3.87484e-07
2243.79	9.04235e-07
2252.34	1.19525e-06
2260.9	1.61303e-06
2269.46	1.3696e-06
2278.02	1.44973e-06
2286.57	1.27176e-06
2295.13	7.86761e-07
2303.69	7.21077e-07
2312.25	7.82292e-07
2320.8	1.23141e-06
2329.36	9.62492e-07
2337.92	2.11657e-06
2346.48	8.99919e-07
2355.03	8.65721e-07
2363.59	9.11966e-07
2372.15	9.60937e-07
2380.71	1.29783e-06
2389.26	1.10714e-06
2397.82	1.48216e-06
2406.38	1.60564e-06
2414.94	1.74529e-06
2423.5	1.43358e-06
2432.05	1.28316e-06
2440.61	1.01154e-06
2449.17	7.70597e-07
2457.73	8.82105e-07
2466.28	1.00408e-06
2474.84	9.80936e-07
2483.4	9.80365e-07
2491.96	1.02945e-06
2500.51	7.00255e-07
2509.07	6.64217e-07
2517.63	6.75382e-07
2526.19	5.62717e-07
2534.74	5.69706e-07
2543.3	6.21576e-07
2551.86	5.61021e-07
2560.42	7.7754e-07
2568.98	7.80648e-07
2577.53	1.05588e-06
2586.09	1.24872e-06
2594.65	1.54601e-06
2603.21	1.59769e-06
2611.76	1.79784e-06
2620.32	2.2754e-06
2628.88	2.37083e-06
2637.44	2.60258e-06
2645.99	2.97757e-06
2654.55	3.31088e-06
2663.11	3.43533e-06
2671.67	3.64345e-06
2680.22	3.77013e-06
2688.78	3.92535e-06
2697.34	4.42874e-06
2705.9	5.1337e-06
2714.45	5.89456e-06
2723.01	6.95723e-06
2731.57	7.86371e-06
2740.13	9.24709e-06
2748.69	1.01228e-05
2757.24	1.07596e-05
2765.8	1.13512e-05
2774.36	1.24154e-05
2782.92	1.37524e-05
2791.47	1.52144e-05
2800.03	1.71339e-05
2808.59	1.81044e-05
2817.15	2.0774e-05
2825.7	2.47761e-05
2834.26	3.06495e-05
2842.82	4.03857e-05
2851.38	5.5734e-05
2859.93	7.87185e-05
2868.49	0.000107556
2877.05	0.000124022
2885.61	0.000151197
2894.16	0.000158019
2902.72	0.000172106
2911.28	0.000168135
2919.84	0.000150053
2928.4	0.000143276
2936.95	0.000139375
2945.51	0.000145317
2954.07	0.000161623
2962.63	0.000184326
2971.18	0.000216657
2979.74	0.000203923
2988.3	0.000212145
2996.86	0.000171291
3005.41	0.000129084
3013.97	8.64576e-05
3022.53	5.24902e-05
3031.09	2.78314e-05
3039.64	1.25959e-05
3048.2	5.09841e-06
3056.76	1.82981e-06
3065.32	1.08108e-06
3073.88	7.36827e-07
3082.43	5.50873e-07
3090.99	7.60246e-07
3099.55	5.30626e-07
3108.11	7.37589e-07
3116.66	5.83338e-07
3125.22	6.88793e-07
3133.78	7.87995e-07
3142.34	5.23153e-07
3150.89	6.63854e-07
3159.45	9.41866e-07
3168.01	1.22798e-06
3176.57	9.791e-07
3185.12	1.38862e-06
3193.68	1.30209e-06
3202.24	1.66091e-06
3210.8	1.93323e-06
3219.35	1.93913e-06
3227.91	2.10591e-06
3236.47	1.66944e-06
3245.03	1.05461e-06
3253.59	1.02238e-06
3262.14	2.63473e-07
3270.7	1.41874e-07
3279.26	-1.31778e-07
3287.82	-2.72022e-07
3296.37	-2.86401e-07
3304.93	-1.44907e-07
3313.49	-4.66533e-07
3322.05	-3.56934e-07
3330.6	-2.30686e-07
3339.16	-2.23833e-07
3347.72	-1.61271e-07
3356.28	-1.3537e-07
3364.83	-3.498e-08
3373.39	3.20341e-07
3381.95	5.10507e-07
3390.51	9.20749e-07
3399.06	9.11495e-07
3407.62	8.42339e-07
3416.18	1.5503e-06
3424.74	1.16232e-06
3433.3	8.31521e-07
3441.85	9.30864e-07
3450.41	1.07429e-06
3458.97	1.06499e-06
3467.53	1.3831e-06
3476.08	1.41344e-06
3484.64	1.50178e-06
3493.2	1.29907e-06
3501.76	1.21667e-06
3510.31	8.94429e-07
3518.87	9.78445e-07
3527.43	5.94369e-07
3535.99	5.98704e-07
3544.54	7.64286e-07
3553.1	7.88045e-07
3561.66	1.00919e-06
3570.22	9.78944e-07
3578.78	6.30599e-07
3587.33	7.93654e-07
3595.89	1.79623e-06
3604.45	2.80226e-06
3613.01	4.41606e-06
3621.56	7.34754e-06
3630.12	1.20709e-05
3638.68	2.00977e-05
3647.24	3.11544e-05
3655.79	5.02704e-05
3664.35	5.10775e-05
3672.91	5.17764e-05
3681.47	4.27794e-05
3690.02	4.34489e-05
3698.58	2.74372e-05
3707.14	1.16509e-05
3715.7	5.19072e-06
3724.25	2.96611e-06
3732.81	1.93236e-06
3741.37	1.42421e-06
3749.93	1.49338e-06
3758.49	1.50977e-06
3767.04	1.0353e-06
3775.6	1.49416e-06
3784.16	1.89966e-06
3792.72	1.8977e-06
3801.27	1.72204e-06
3809.83	1.71388e-06
3818.39	1.70528e-06
3826.95	1.98235e-06
3835.5	2.40841e-06
3844.06	2.38652e-06
3852.62	2.36449e-06
3861.18	2.39684e-06
3869.73	2.03408e-06
3878.29	1.75633e-06
3886.85	2.65052e-06
3895.41	1.65193e-06
3903.96	1.4567e-06
3912.52	1.2832e-06
3921.08	1.06614e-06
3929.64	1.00349e-06
3938.2	7.15916e-07
3946.75	8.61796e-07
3955.31	1.00872e-06
3963.87	1.06572e-06
3972.43	1.09634e-06
