Infrared Spectrum: Ethanol
Formula: C2 H5 O H
CAS: 64-17-5
State: gas
Melting point: -117.3 C
Boiling point: 78.5 C
Class: IUPAC A
Instrument: IFS66V (Bruker)
Instrument parameters: KBr Beam splitter; MCT Detector; Multipass cell
Sampling: 1 L/min Flow
Resolution: 0.1250
Temperature: 23 C
Pressure: 101.3 kPa
Origin: NIST, Anayltical Chemistry Division, 301-975-3108
cm-1	(micromol/mol)-1m-1 (base 10)
574.988	4.28071e-06
583.546	4.21252e-06
592.103	2.60543e-06
600.661	2.33284e-06
609.219	3.80492e-06
617.776	2.93542e-06
626.334	3.15991e-06
634.891	2.81682e-06
643.449	2.42081e-06
652.007	1.89899e-06
660.564	8.15734e-07
669.122	2.25811e-06
677.68	1.56628e-06
686.237	9.36957e-07
694.795	7.93013e-07
703.352	7.73471e-07
711.91	5.81599e-07
720.468	6.99038e-07
729.025	9.83135e-07
737.583	9.81685e-07
746.141	1.00189e-06
754.698	8.93152e-07
763.256	1.09218e-06
771.813	2.05161e-06
780.371	3.36925e-06
788.929	4.11968e-06
797.486	4.96424e-06
806.044	4.19587e-06
814.602	4.03717e-06
823.159	4.18642e-06
831.717	3.54993e-06
840.274	4.90742e-06
848.832	9.09171e-06
857.39	1.92906e-05
865.947	3.48656e-05
874.505	3.44128e-05
883.063	4.47222e-05
891.62	6.43016e-05
900.178	4.08015e-05
908.735	2.3995e-05
917.293	1.08655e-05
925.851	6.55048e-06
934.408	4.8394e-06
942.966	3.89725e-06
951.524	4.10347e-06
960.081	4.6389e-06
968.639	6.0108e-06
977.196	8.29407e-06
985.754	1.31738e-05
994.312	2.20536e-05
1002.87	3.9988e-05
1011.43	7.63046e-05
1019.98	9.82299e-05
1028.54	0.000139661
1037.1	0.000206223
1045.66	0.000244646
1054.22	0.000259192
1062.77	0.000237227
1071.33	0.000245556
1079.89	0.00023604
1088.45	0.000155689
1097	9.92801e-05
1105.56	8.11285e-05
1114.12	4.87352e-05
1122.68	2.85127e-05
1131.23	2.03266e-05
1139.79	1.37701e-05
1148.35	1.08469e-05
1156.91	1.01224e-05
1165.46	9.95988e-06
1174.02	1.06204e-05
1182.58	1.31103e-05
1191.14	1.59389e-05
1199.69	2.02251e-05
1208.25	2.82706e-05
1216.81	4.5387e-05
1225.37	6.65008e-05
1233.93	6.41197e-05
1242.48	6.11106e-05
1251.04	7.08775e-05
1259.6	6.62386e-05
1268.16	4.06232e-05
1276.71	2.71547e-05
1285.27	1.96906e-05
1293.83	1.6375e-05
1302.39	1.47999e-05
1310.94	1.5045e-05
1319.5	1.5062e-05
1328.06	1.55015e-05
1336.62	1.70866e-05
1345.17	1.8778e-05
1353.73	2.42422e-05
1362.29	3.49291e-05
1370.85	5.6501e-05
1379.4	8.13625e-05
1387.96	7.23192e-05
1396.52	7.12671e-05
1405.08	9.67345e-05
1413.64	7.35652e-05
1422.19	4.04937e-05
1430.75	2.905e-05
1439.31	2.76807e-05
1447.87	2.917e-05
1456.42	2.22894e-05
1464.98	1.95079e-05
1473.54	1.93763e-05
1482.1	1.727e-05
1490.65	1.3405e-05
1499.21	1.00825e-05
1507.77	7.37541e-06
1516.33	4.56141e-06
1524.88	2.6805e-06
1533.44	1.74366e-06
1542	9.43901e-07
1550.56	7.13886e-07
1559.11	6.97668e-07
1567.67	4.43204e-07
1576.23	3.9665e-07
1584.79	2.55784e-07
1593.35	2.40422e-07
1601.9	5.19747e-07
1610.46	4.60593e-07
1619.02	2.68314e-07
1627.58	3.23884e-07
1636.13	2.98037e-07
1644.69	4.63653e-07
1653.25	1.35173e-07
1661.81	4.98119e-07
1670.36	6.10789e-07
1678.92	5.43651e-07
1687.48	5.16254e-07
1696.04	4.1278e-07
1704.59	3.45176e-07
1713.15	3.67479e-07
1721.71	5.53481e-07
1730.27	9.85844e-08
1738.83	3.90216e-07
1747.38	3.81496e-07
1755.94	5.19698e-07
1764.5	4.09876e-07
1773.06	6.11108e-07
1781.61	4.33462e-07
1790.17	1.44878e-07
1798.73	1.25063e-07
1807.29	8.9059e-08
1815.84	-1.08912e-07
1824.4	-1.55656e-07
1832.96	-2.40121e-07
1841.52	-2.15942e-07
1850.07	-6.75957e-08
1858.63	-3.70504e-08
1867.19	7.07926e-08
1875.75	1.11164e-07
1884.3	4.82059e-07
1892.86	8.99306e-07
1901.42	1.783e-06
1909.98	2.43196e-06
1918.54	2.9004e-06
1927.09	3.91441e-06
1935.65	3.38588e-06
1944.21	3.4068e-06
1952.77	2.12776e-06
1961.32	1.52499e-06
1969.88	8.29552e-07
1978.44	6.02373e-07
1987	6.46505e-07
1995.55	2.23927e-07
2004.11	-2.22973e-07
2012.67	-1.95505e-07
2021.23	-3.05471e-07
2029.78	-4.17011e-07
2038.34	-3.82533e-07
2046.9	-4.77789e-07
2055.46	-3.30535e-07
2064.01	-1.18785e-07
2072.57	-1.82323e-07
2081.13	6.55062e-08
2089.69	4.48258e-07
2098.25	8.90448e-07
2106.8	1.25163e-06
2115.36	1.4742e-06
2123.92	1.92756e-06
2132.48	1.15261e-06
2141.03	7.1329e-07
2149.59	3.90242e-07
2158.15	7.91774e-07
2166.71	1.98341e-07
2175.26	4.35474e-07
2183.82	5.31503e-07
2192.38	2.62052e-07
2200.94	4.68141e-08
2209.49	4.44509e-07
2218.05	2.5826e-08
2226.61	3.98518e-07
2235.17	3.87494e-07
2243.72	9.15199e-07
2252.28	1.04828e-06
2260.84	1.58463e-06
2269.4	1.44243e-06
2277.96	1.46596e-06
2286.51	1.25591e-06
2295.07	6.50588e-07
2303.63	7.50953e-07
2312.19	8.06447e-07
2320.74	1.1656e-06
2329.3	1.03013e-06
2337.86	2.23002e-06
2346.42	9.09156e-07
2354.97	9.36503e-07
2363.53	9.63941e-07
2372.09	9.85592e-07
2380.65	1.43794e-06
2389.2	1.13304e-06
2397.76	1.51617e-06
2406.32	1.54601e-06
2414.88	1.76476e-06
2423.44	1.37819e-06
2431.99	1.30174e-06
2440.55	1.02298e-06
2449.11	7.46528e-07
2457.67	8.26711e-07
2466.22	9.37666e-07
2474.78	9.73337e-07
2483.34	8.82247e-07
2491.9	1.07858e-06
2500.45	5.89741e-07
2509.01	6.7402e-07
2517.57	6.69423e-07
2526.13	5.27597e-07
2534.68	5.94425e-07
2543.24	6.42505e-07
2551.8	5.15767e-07
2560.36	6.72744e-07
2568.91	7.17622e-07
2577.47	9.86192e-07
2586.03	1.22077e-06
2594.59	1.48705e-06
2603.15	1.62616e-06
2611.7	1.88125e-06
2620.26	2.33777e-06
2628.82	2.46704e-06
2637.38	2.6397e-06
2645.93	2.89962e-06
2654.49	3.40759e-06
2663.05	3.46142e-06
2671.61	3.72447e-06
2680.16	3.91519e-06
2688.72	3.89763e-06
2697.28	4.38302e-06
2705.84	5.24811e-06
2714.39	5.75572e-06
2722.95	6.82519e-06
2731.51	8.0164e-06
2740.07	9.23687e-06
2748.62	1.01069e-05
2757.18	1.07788e-05
2765.74	1.12986e-05
2774.3	1.23865e-05
2782.86	1.38327e-05
2791.41	1.49759e-05
2799.97	1.70196e-05
2808.53	1.81507e-05
2817.09	2.09118e-05
2825.64	2.48974e-05
2834.2	3.06545e-05
2842.76	4.03327e-05
2851.32	5.54465e-05
2859.87	7.86607e-05
2868.43	0.000107307
2876.99	0.000123918
2885.55	0.000150881
2894.1	0.000157907
2902.66	0.000172266
2911.22	0.000168078
2919.78	0.000150402
2928.34	0.000143084
2936.89	0.000139792
2945.45	0.000145383
2954.01	0.000161477
2962.57	0.000183917
2971.12	0.000216849
2979.68	0.000203737
2988.24	0.000211694
2996.8	0.000171059
3005.35	0.000129541
3013.91	8.65337e-05
3022.47	5.27666e-05
3031.03	2.81382e-05
3039.58	1.26881e-05
3048.14	5.25945e-06
3056.7	1.91525e-06
3065.26	1.09031e-06
3073.81	6.96653e-07
3082.37	4.59578e-07
3090.93	6.8632e-07
3099.49	4.34864e-07
3108.05	6.7217e-07
3116.6	6.18399e-07
3125.16	6.78938e-07
3133.72	9.10059e-07
3142.28	3.80127e-07
3150.83	5.78738e-07
3159.39	8.12962e-07
3167.95	1.17657e-06
3176.51	1.0799e-06
3185.06	1.26755e-06
3193.62	1.34203e-06
3202.18	1.65623e-06
3210.74	1.93441e-06
3219.29	2.18388e-06
3227.85	1.95333e-06
3236.41	1.65893e-06
3244.97	9.8541e-07
3253.52	1.03931e-06
3262.08	2.78225e-07
3270.64	4.43885e-07
3279.2	4.83279e-08
3287.76	9.93893e-08
3296.31	-4.40431e-07
3304.87	-7.30258e-08
3313.43	-3.16686e-07
3321.99	-2.63482e-07
3330.54	-2.40667e-07
3339.1	-1.78418e-07
3347.66	-2.20181e-07
3356.22	-1.83372e-07
3364.77	1.20054e-07
3373.33	4.51056e-07
3381.89	6.7357e-07
3390.45	8.59118e-07
3399	1.16028e-06
3407.56	6.81077e-07
3416.12	1.42113e-06
3424.68	1.34266e-06
3433.23	1.13709e-06
3441.79	8.5842e-07
3450.35	1.36489e-06
3458.91	1.06909e-06
3467.47	1.54709e-06
3476.02	1.65223e-06
3484.58	1.39191e-06
3493.14	1.13625e-06
3501.7	1.19446e-06
3510.25	1.02465e-06
3518.81	9.87852e-07
3527.37	6.03399e-07
3535.93	7.05756e-07
3544.48	6.99621e-07
3553.04	6.2551e-07
3561.6	1.12421e-06
3570.16	1.17455e-06
3578.71	5.17628e-07
3587.27	8.39877e-07
3595.83	1.75595e-06
3604.39	3.06005e-06
3612.95	4.52236e-06
3621.5	7.28241e-06
3630.06	1.19374e-05
3638.62	1.99029e-05
3647.18	3.11192e-05
3655.73	4.96278e-05
3664.29	5.0728e-05
3672.85	5.19905e-05
3681.41	4.25421e-05
3689.96	4.38934e-05
3698.52	2.73932e-05
3707.08	1.1916e-05
3715.64	5.25245e-06
3724.19	2.73592e-06
3732.75	2.08604e-06
3741.31	1.43932e-06
3749.87	1.36724e-06
3758.42	1.75216e-06
3766.98	8.18897e-07
3775.54	1.59525e-06
3784.1	1.90277e-06
3792.66	1.81185e-06
3801.21	1.83943e-06
3809.77	1.61451e-06
3818.33	1.47238e-06
3826.89	1.98312e-06
3835.44	2.50466e-06
3844	2.34295e-06
3852.56	2.27129e-06
3861.12	2.67521e-06
3869.67	2.25862e-06
3878.23	1.79218e-06
3886.79	2.68303e-06
3895.35	1.42625e-06
3903.9	1.52122e-06
3912.46	1.24806e-06
3921.02	1.16959e-06
3929.58	1.32618e-06
3938.13	5.95314e-07
3946.69	6.05807e-07
3955.25	9.45851e-07
3963.81	1.05137e-06
3972.37	9.7207e-07
