Infrared Spectrum: trans-2-Pentene
Formula: C 5 H 10
CAS: 646-04-8
State: liquid
Instrument: Bruker Tensor 27 FTIR
Resolution: 0.48212986
Origin: Pacific Northwest National Laboratory Under IARPA Contract
1/cm	dispersion index
7797.49	1.3587
7778.93	1.3587
7760.37	1.3587
7741.81	1.3587
7723.24	1.35869
7704.68	1.35869
7686.12	1.35868
7667.56	1.35868
7649	1.35867
7630.44	1.35867
7611.88	1.35866
7593.31	1.35866
7574.75	1.35865
7556.19	1.35865
7537.63	1.35864
7519.07	1.35864
7500.51	1.35864
7481.95	1.35864
7463.38	1.35863
7444.82	1.35863
7426.26	1.35862
7407.7	1.35862
7389.14	1.35861
7370.58	1.35861
7352.02	1.3586
7333.46	1.35859
7314.89	1.35859
7296.33	1.35858
7277.77	1.35857
7259.21	1.35856
7240.65	1.35856
7222.09	1.35855
7203.53	1.35854
7184.96	1.35853
7166.4	1.35853
7147.84	1.35852
7129.28	1.35851
7110.72	1.3585
7092.16	1.35849
7073.6	1.35848
7055.03	1.35847
7036.47	1.35846
7017.91	1.35844
6999.35	1.35843
6980.79	1.35842
6962.23	1.3584
6943.67	1.35839
6925.1	1.35837
6906.54	1.35835
6887.98	1.35832
6869.42	1.35828
6850.86	1.35828
6832.3	1.3583
6813.74	1.35834
6795.17	1.35835
6776.61	1.35836
6758.05	1.35836
6739.49	1.35834
6720.93	1.35834
6702.37	1.35836
6683.81	1.35832
6665.25	1.35829
6646.68	1.35827
6628.12	1.35825
6609.56	1.35823
6591	1.35821
6572.44	1.35818
6553.88	1.35817
6535.32	1.35815
6516.75	1.35813
6498.19	1.3581
6479.63	1.35808
6461.07	1.35805
6442.51	1.35803
6423.95	1.358
6405.39	1.35797
6386.82	1.35795
6368.26	1.35792
6349.7	1.35789
6331.14	1.35786
6312.58	1.35782
6294.02	1.35778
6275.46	1.35774
6256.89	1.35769
6238.33	1.35766
6219.77	1.35761
6201.21	1.35756
6182.65	1.35749
6164.09	1.35742
6145.53	1.35733
6126.96	1.35719
6108.4	1.35697
6089.84	1.35707
6071.28	1.35689
6052.72	1.35728
6034.16	1.35755
6015.6	1.35765
5997.03	1.35747
5978.47	1.35745
5959.91	1.35737
5941.35	1.35722
5922.79	1.35731
5904.23	1.35719
5885.67	1.35706
5867.11	1.35702
5848.54	1.35693
5829.98	1.35685
5811.42	1.3567
5792.86	1.35658
5774.3	1.35644
5755.74	1.35628
5737.18	1.35615
5718.61	1.35597
5700.05	1.35576
5681.49	1.35553
5662.93	1.35527
5644.37	1.35499
5625.81	1.35466
5607.25	1.35432
5588.68	1.3539
5570.12	1.35345
5551.56	1.35286
5533	1.35204
5514.44	1.3511
5495.88	1.34976
5477.32	1.34848
5458.75	1.34647
5440.19	1.34248
5421.63	1.33422
5403.07	1.3335
5384.51	1.30761
5365.95	1.3672
5347.39	1.37309
5328.82	1.3798
5310.26	1.38197
5291.7	1.37416
5273.14	1.36992
5254.58	1.36902
5236.02	1.36704
5217.46	1.36571
5198.89	1.36489
5180.33	1.3643
5161.77	1.36362
5143.21	1.36304
5124.65	1.36261
5106.09	1.36212
5087.53	1.36212
5068.97	1.36163
5050.4	1.36153
5031.84	1.36103
5013.28	1.3609
4994.72	1.36056
4976.16	1.3603
4957.6	1.3601
4939.04	1.35979
4920.47	1.35946
4901.91	1.3591
4883.35	1.35909
4864.79	1.35874
4846.23	1.35825
4827.67	1.35792
4809.11	1.35763
4790.54	1.35683
4771.98	1.3573
4753.42	1.35727
4734.86	1.35651
4716.3	1.35579
4697.74	1.35442
4679.18	1.35245
4660.61	1.34905
4642.05	1.34013
4623.49	1.36403
4604.93	1.36882
4586.37	1.37166
4567.81	1.36518
4549.25	1.36141
4530.68	1.36287
4512.12	1.36125
4493.56	1.35857
4475	1.35611
4456.44	1.35362
4437.88	1.35027
4419.32	1.3493
4400.75	1.33742
4382.19	1.30623
4363.63	1.41064
4345.07	1.38284
4326.51	1.3785
4307.95	1.37202
4289.39	1.37463
4270.83	1.37378
4252.26	1.37136
4233.7	1.37013
4215.14	1.36907
4196.58	1.36832
4178.02	1.36809
4159.46	1.36753
4140.9	1.36733
4122.33	1.36665
4103.77	1.36752
4085.21	7.72034e-05
4066.65	8.46957e-05
4048.09	8.63241e-05
4029.53	8.55106e-05
4010.97	8.46957e-05
3992.4	8.7139e-05
3973.84	8.79525e-05
3955.28	9.03958e-05
3936.72	9.20255e-05
3918.16	9.28391e-05
3899.6	9.77256e-05
3881.04	0.000125415
3862.47	0.000141702
3843.91	0.000155547
3825.35	0.00017835
3806.79	0.000192194
3788.23	0.000201966
3769.67	0.000188936
3751.11	0.000187308
3732.54	0.000174278
3713.98	0.000151475
3695.42	0.000149032
3676.86	0.000138445
3658.3	0.000131115
3639.74	0.000120529
3621.18	0.0001189
3602.61	0.000119714
3584.05	0.000114827
3565.49	0.00011157
3546.93	0.000108312
3528.37	0.000101797
3509.81	0.000100169
3491.25	9.77256e-05
3472.69	9.44688e-05
3454.12	9.03958e-05
3435.56	8.95822e-05
3417	8.87674e-05
3398.44	9.03958e-05
3379.88	9.44688e-05
3361.32	8.87674e-05
3342.76	9.03958e-05
3324.19	9.28391e-05
3305.63	9.85405e-05
3287.07	9.85405e-05
3268.51	0.000108312
3249.95	0.000120529
3231.39	0.0001303
3212.83	0.000142517
3194.26	0.000186493
3175.7	0.000312722
3157.14	0.000745973
3138.58	0.00100983
3120.02	0.00110756
3101.46	0.00109127
3082.9	0.000985401
3064.33	0.000895818
3045.77	0.000754117
3027.21	0.000810309
3008.65	0.000560294
2990.09	0.000314351
2971.53	0.000234542
2952.97	0.000208481
2934.4	0.000255716
2915.84	0.000204409
2897.28	0.000188121
2878.72	0.000153918
2860.16	0.000201153
2841.6	0.00015799
2823.04	0.00015066
2804.47	0.000140073
2785.91	0.000129487
2767.35	0.00011727
2748.79	0.000132744
2730.23	0.000134373
2711.67	0.000166133
2693.11	0.000200338
2674.55	0.000181606
2655.98	0.000204409
2637.42	0.000149032
2618.86	0.000156361
2600.3	0.000129487
2581.74	0.000148217
2563.18	0.000195451
2544.62	0.000258974
2526.05	0.000277704
2507.49	0.000307022
2488.93	0.000299692
2470.37	0.000349369
2451.81	0.000404747
2433.25	0.000566809
2414.69	0.00141702
2396.12	0.0035507
2377.56	0.00399047
2359	0.00664535
2340.44	0.00588797
2321.88	0.00455239
2303.32	0.00311093
2284.76	0.00343669
2266.19	0.00268746
2247.63	0.00223955
2229.07	0.00274446
2210.51	0.00191379
2191.95	0.00175906
2173.39	0.00201152
2154.83	0.00166948
2136.26	0.00125415
2117.7	0.000936538
2099.14	0.000863244
2080.58	0.000871387
2062.02	0.000695481
2043.46	0.0007419
2024.9	0.000563552
2006.33	0.000318423
1987.77	0.000252457
1969.21	0.000250829
1950.65	0.000383574
1932.09	0.000501658
1913.53	0.000684894
1894.97	0.000879532
1876.41	0.000928395
1857.84	0.00100983
1839.28	0.000985401
1820.72	0.00163691
1802.16	0.00289105
1783.6	0.00745158
1765.04	0.008551
1746.48	0.00977257
1727.91	0.0272003
1709.35	0.122157
1690.79	0.248386
1672.23	0.298878
1653.67	0.219068
1635.11	0.199523
1616.55	0.0529347
1597.98	0.0168577
1579.42	0.00895819
1560.86	0.0110756
1542.3	0.00447909
1523.74	0.00297249
1505.18	0.00461754
1486.62	0.00370543
1468.05	0.00281776
1449.49	0.00177535
1430.93	0.00247572
1412.37	0.00241057
1393.81	0.00495958
1375.25	0.0021011
1356.69	0.00275261
1338.12	0.000977257
1319.56	0.00211739
1301	0.00118085
1282.44	0.00135187
1263.88	0.00173463
1245.32	0.00130301
1226.76	0.00153104
1208.19	0.00238614
1189.63	0.0013763
1171.07	0.00154732
1152.51	0.00129487
1133.95	0.00333082
1115.39	0.00435694
1096.83	0.0051306
1078.27	0.014496
1059.7	0.0133558
1041.14	0.00863243
1022.58	0.00798093
1004.02	0.00653948
985.458	0.00863243
966.897	0.0127043
948.335	0.031598
929.774	0.315165
911.213	0.092025
892.651	0.0985401
874.09	0.0337968
855.528	0.0296435
836.967	0.0229655
818.406	0.0199523
799.844	0.0107498
781.283	0.015066
762.721	0.0232098
744.16	0.0495143
725.599	0.0438137
707.037	0.0895819
688.476	0.30865
669.915	0.344483
651.353	0.0285033
632.792	0.0288291
614.23	0.0156361
595.669	0.0309465
577.108	0.0257344
558.546	0.00475598
539.985	0.00146589
521.423	0.00103426
502.862	0.000742715
484.301	0.00289105
465.739	0.00169391
447.178	0.00223955
428.616	0.00104241
410.055	0.00802979
