Infrared Spectrum: DIBENZONITRILE, 4,4'-OXY-
Formula: C14 H8 N2 O
CAS: 6508-04-9
State: SOLID (SPLIT MULL), FLUOROLUBE FOR 3800-1330 CM^-^1, NUJOL FOR 1330-400 CM^-^1
Class: COBLENTZ III
Instrument: BECKMAN IR-9 (GRATING)
Instrument parameters: ORDER CHANGES: 670, 1200, 2000 CM^-^1
Sampling: TRANSMISSION
Resolution: 2
Origin: DOW CHEMICAL COMPANY
1/CM	TRANSMITTANCE
402	0.7487
411	0.7003
420	0.6855
429	0.6886
438	0.7107
447	0.7374
456	0.7662
465	0.7932
474	0.8062
483	0.8227
492	0.841
501	0.8587
510	0.8618
519	0.8449
528	0.8562
537	0.8553
546	0.5351
555	0.8244
564	0.8088
573	0.8934
582	0.9027
591	0.903
600	0.9028
609	0.9031
618	0.9028
627	0.8998
636	0.8967
645	0.895
654	0.9016
663	0.8995
672	0.9028
681	0.898
690	0.8728
699	0.8781
708	0.8518
717	0.8033
726	0.7521
735	0.7855
744	0.8256
753	0.854
762	0.8612
771	0.8623
780	0.8616
789	0.8618
798	0.8575
807	0.8356
816	0.7957
825	0.5978
834	0.5366
843	0.4173
852	0.6062
861	0.794
870	0.8012
879	0.4906
888	0.8365
897	0.8378
906	0.8387
915	0.8366
924	0.8307
933	0.8244
942	0.8168
951	0.7868
960	0.8025
969	0.8001
978	0.794
987	0.8
996	0.7969
1005	0.7642
1014	0.7407
1023	0.7736
1032	0.7938
1041	0.7869
1050	0.7799
1059	0.7648
1068	0.7172
1077	0.7547
1086	0.7633
1095	0.7558
1104	0.7201
1113	0.6821
1122	0.7157
1131	0.7356
1140	0.7228
1149	0.6895
1158	0.4469
1167	0.5885
1176	0.4722
1185	0.7099
1194	0.6531
1203	0.5987
1212	0.57
1221	0.5037
1230	0.3759
1239	0.2488
1248	0.0502
1257	0.2024
1266	0.559
1275	0.6098
1284	0.6078
1293	0.6205
1302	0.639
1311	0.7342
1320	0.7715
1329	0.6781
1338	0.6818
1347	0.6784
1356	0.7239
1365	0.7406
1374	0.7426
1383	0.7411
1392	0.7368
1401	0.7207
1410	0.6968
1419	0.6304
1428	0.695
1437	0.708
1446	0.6951
1455	0.6636
1464	0.6268
1473	0.452
1482	0.242
1491	0.0531
1500	0.0565
1509	0.2697
1518	0.6136
1527	0.7024
1536	0.7536
1545	0.7946
1554	0.764
1563	0.7124
1572	0.6127
1581	0.4549
1590	0.1248
1599	0.3988
1608	0.5765
1617	0.7975
1626	0.8481
1635	0.839
1644	0.8242
1653	0.8095
1662	0.7975
1671	0.7898
1680	0.7855
1689	0.7887
1698	0.7978
1707	0.8044
1716	0.8067
1725	0.8031
1734	0.7985
1743	0.7933
1752	0.7875
1761	0.7815
1770	0.7756
1779	0.7699
1788	0.763
1797	0.7569
1806	0.7612
1815	0.7621
1824	0.7615
1833	0.7649
1842	0.7636
1851	0.761
1860	0.755
1869	0.7478
1878	0.7401
1887	0.7325
1896	0.7261
1905	0.7224
1914	0.7148
1923	0.7062
1932	0.7103
1941	0.7143
1950	0.7211
1959	0.7306
1968	0.7274
1977	0.7222
1986	0.7171
1995	0.6994
2004	0.7138
2013	0.7153
2022	0.7136
2031	0.7062
2040	0.696
2049	0.6908
2058	0.6898
2067	0.6884
2076	0.6868
2085	0.6851
2094	0.6834
2103	0.6817
2112	0.68
2121	0.6761
2130	0.6722
2139	0.6676
2148	0.6617
2157	0.6528
2166	0.6421
2175	0.628
2184	0.6252
2193	0.6116
2202	0.5736
2211	0.5262
2220	0.315
2229	0.1459
2238	0.665
2247	0.6771
2256	0.674
2265	0.6603
2274	0.6496
2283	0.6415
2292	0.6357
2301	0.6305
2310	0.6252
2319	0.6205
2328	0.617
2337	0.6136
2346	0.6105
2355	0.6081
2364	0.6065
2373	0.6053
2382	0.6034
2391	0.5973
2400	0.5912
2409	0.5857
2418	0.5823
2427	0.5808
2436	0.5824
2445	0.5776
2454	0.5726
2463	0.576
2472	0.5847
2481	0.5812
2490	0.5755
2499	0.574
2508	0.5736
2517	0.5741
2526	0.5747
2535	0.5746
2544	0.5744
2553	0.5734
2562	0.5698
2571	0.5658
2580	0.5622
2589	0.559
2598	0.5562
2607	0.5587
2616	0.5602
2625	0.5587
2634	0.5568
2643	0.5545
2652	0.5506
2661	0.5473
2670	0.5442
2679	0.5442
2688	0.5439
2697	0.5422
2706	0.5407
2715	0.5392
2724	0.5374
2733	0.535
2742	0.5324
2751	0.5292
2760	0.5264
2769	0.5237
2778	0.5209
2787	0.5178
2796	0.5151
2805	0.5135
2814	0.5119
2823	0.5102
2832	0.5086
2841	0.5043
2850	0.4989
2859	0.4937
2868	0.492
2877	0.4925
2886	0.4927
2895	0.4921
2904	0.4896
2913	0.4868
2922	0.4802
2931	0.4746
2940	0.471
2949	0.471
2958	0.4715
2967	0.4725
2976	0.4723
2985	0.4715
2994	0.4708
3003	0.4701
3012	0.4695
3021	0.4665
3030	0.4608
3039	0.4501
3048	0.439
3057	0.4317
3066	0.4349
3075	0.4243
3084	0.4245
3093	0.4245
3102	0.4093
3111	0.4024
3120	0.4393
3129	0.444
3138	0.4447
3147	0.4445
3156	0.4442
3165	0.4437
3174	0.4431
3183	0.4424
3192	0.4418
3201	0.441
3210	0.4399
3219	0.4384
3228	0.437
3237	0.4351
3246	0.4332
3255	0.4312
3264	0.4293
3273	0.4274
3282	0.4252
3291	0.4225
3300	0.4197
3309	0.417
3318	0.4143
3327	0.4116
3336	0.4089
3345	0.4062
3354	0.4037
3363	0.4014
3372	0.3992
3381	0.3968
3390	0.3947
3399	0.3925
3408	0.3905
3417	0.3888
3426	0.3872
3435	0.3866
3444	0.3872
3453	0.387
3462	0.3862
3471	0.3847
3480	0.383
3489	0.3809
3498	0.3788
3507	0.377
3516	0.3752
3525	0.3734
3534	0.3714
3543	0.3696
3552	0.3677
3561	0.3658
3570	0.3639
3579	0.3626
3588	0.3616
3597	0.3608
3606	0.3598
3615	0.3589
3624	0.358
3633	0.3571
3642	0.356
3651	0.3544
3660	0.3528
3669	0.3512
3678	0.3496
3687	0.348
3696	0.3462
3705	0.3445
3714	0.3426
3723	0.3408
3732	0.3389
3741	0.3371
3750	0.3352
3759	0.3332
3768	0.3314
3777	0.3298
3786	0.3282
3795	0.3266
