Infrared Spectrum: Benzoic acid
Formula: C7 H6 O2
CAS: 65-85-0
State: SOLUTION (2% CCl4 FOR 3800-1330, 2% CS2 FOR 1330-460 CM^-^1)
Class: COBLENTZ III
Instrument: DOW KBr FOREPRISM-GRATING
Instrument parameters: BLAZED AT 3.5, 12.0, 20.0 MICRON AND CHANGED AT 5.0, 7.5, 14.9 MICRON
Sampling: TRANSMISSION
Path length: 0.011 CM, 0.011 CM
Resolution: 2
Origin: DOW CHEMICAL COMPANY
1/CM	TRANSMITTANCE
3800	0.9418
3791	0.9442
3782	0.9427
3773	0.9451
3764	0.9454
3755	0.9457
3746	0.9458
3737	0.9478
3728	0.9479
3719	0.9455
3710	0.9479
3701	0.9489
3692	0.9466
3683	0.9443
3674	0.9439
3665	0.9432
3656	0.9428
3647	0.9424
3638	0.9426
3629	0.9421
3620	0.9353
3611	0.938
3602	0.9361
3593	0.9258
3584	0.9309
3575	0.9341
3566	0.9295
3557	0.9228
3548	0.9203
3539	0.9217
3530	0.9273
3521	0.9298
3512	0.9325
3503	0.931
3494	0.9286
3485	0.9262
3476	0.9243
3467	0.9234
3458	0.9235
3449	0.9233
3440	0.9233
3431	0.9235
3422	0.9226
3413	0.9197
3404	0.9168
3395	0.9132
3386	0.9084
3377	0.9036
3368	0.8951
3359	0.8835
3350	0.8755
3341	0.8734
3332	0.87
3323	0.8651
3314	0.8586
3305	0.8509
3296	0.8395
3287	0.8314
3278	0.8234
3269	0.8127
3260	0.8004
3251	0.787
3242	0.7749
3233	0.7632
3224	0.7518
3215	0.7404
3206	0.7255
3197	0.7139
3188	0.7025
3179	0.6884
3170	0.6754
3161	0.6621
3152	0.6498
3143	0.6355
3134	0.6215
3125	0.6077
3116	0.5907
3107	0.572
3098	0.5427
3089	0.5405
3080	0.523
3071	0.5279
3062	0.5405
3053	0.5381
3044	0.5172
3035	0.5158
3026	0.5129
3017	0.5163
3008	0.5163
2999	0.522
2990	0.5353
2981	0.5438
2972	0.5479
2963	0.5576
2954	0.5702
2945	0.5834
2936	0.5956
2927	0.5784
2918	0.5462
2909	0.5322
2900	0.5203
2891	0.5136
2882	0.5158
2873	0.5274
2864	0.543
2855	0.5598
2846	0.5672
2837	0.5708
2828	0.5814
2819	0.596
2810	0.6106
2801	0.629
2792	0.6435
2783	0.6555
2774	0.6661
2765	0.6744
2756	0.6844
2747	0.6937
2738	0.7042
2729	0.7123
2720	0.7143
2711	0.7109
2702	0.6882
2693	0.6554
2684	0.6135
2675	0.6009
2666	0.6148
2657	0.6322
2648	0.649
2639	0.6657
2630	0.6853
2621	0.7067
2612	0.7143
2603	0.6943
2594	0.6997
2585	0.7255
2576	0.7296
2567	0.6756
2558	0.6298
2549	0.63
2540	0.6572
2531	0.6807
2522	0.7053
2513	0.7273
2504	0.7482
2495	0.7666
2486	0.7823
2477	0.7985
2468	0.8091
2459	0.8194
2450	0.8279
2441	0.8383
2432	0.844
2423	0.8482
2414	0.853
2405	0.8605
2396	0.8665
2387	0.8715
2378	0.8805
2369	0.8849
2360	0.8877
2351	0.8944
2342	0.8973
2333	0.8991
2324	0.9042
2315	0.8981
2306	0.8945
2297	0.8992
2288	0.901
2279	0.9038
2270	0.9037
2261	0.9043
2252	0.9056
2243	0.9067
2234	0.9096
2225	0.9132
2216	0.9125
2207	0.913
2198	0.9136
2189	0.9129
2180	0.915
2171	0.9191
2162	0.9199
2153	0.9227
2144	0.9248
2135	0.9253
2126	0.9253
2117	0.9231
2108	0.9199
2099	0.914
2090	0.9059
2081	0.9013
2072	0.9068
2063	0.9151
2054	0.9233
2045	0.9206
2036	0.92
2027	0.9209
2018	0.9217
2009	0.921
2000	0.9203
1991	0.9137
1982	0.9108
1973	0.9061
1964	0.8929
1955	0.9042
1946	0.9047
1937	0.8963
1928	0.8798
1919	0.8818
1910	0.8798
1901	0.8926
1892	0.9029
1883	0.9058
1874	0.9092
1865	0.907
1856	0.9063
1847	0.9057
1838	0.9066
1829	0.8966
1820	0.87
1811	0.8795
1802	0.8862
1793	0.8845
1784	0.8757
1775	0.887
1766	0.8981
1757	0.8961
1748	0.8465
1739	0.7808
1730	0.8262
1721	0.7714
1712	0.4769
1703	0.0696
1694	0.02
1685	0.3061
1676	0.5996
1667	0.7378
1658	0.7889
1649	0.8278
1640	0.8712
1631	0.8956
1622	0.8818
1613	0.8995
1604	0.5803
1595	0.8925
1586	0.7122
1577	0.8463
1568	0.9311
1559	0.9515
1550	0.9787
1541	0.9473
1532	0.8907
1523	0.9045
1514	0.9284
1505	0.9259
1496	0.8352
1487	0.9183
1478	0.9596
1469	0.9461
1460	0.9126
1451	0.4779
1442	0.8819
1433	0.8812
1424	0.5739
1415	0.334
1406	0.5649
1397	0.7419
1388	0.8461
1379	0.8862
1370	0.9049
1361	0.9138
1352	0.8944
1343	0.8856
1334	0.8837
1325	0.8188
1316	0.3122
1307	0.7543
1298	0.7527
1289	0.3081
1280	0.2106
1271	0.4862
1262	0.7247
1253	0.8292
1244	0.8133
1235	0.889
1226	0.9324
1217	0.946
1208	0.9473
1199	0.9487
1190	0.9474
1181	0.898
1172	0.6691
1163	0.8854
1154	0.9108
1145	0.9359
1136	0.9238
1127	0.8613
1118	0.8364
1109	0.9365
1100	0.935
1091	0.9023
1082	0.9164
1073	0.9031
1064	0.8118
1055	0.9163
1046	0.9265
1037	0.9251
1028	0.9121
1019	0.7958
1010	0.9233
1001	0.9163
992	0.9135
983	0.9125
974	0.9026
965	0.8748
956	0.8425
947	0.7711
938	0.6938
929	0.6715
920	0.7186
911	0.7584
902	0.7928
893	0.8322
884	0.8708
875	0.8858
866	0.896
857	0.9133
848	0.9089
839	0.8893
830	0.9078
821	0.9212
812	0.9218
803	0.8212
794	0.8282
785	0.8909
776	0.9187
767	0.9295
758	0.9332
749	0.9339
740	0.9307
731	0.923
722	0.8818
713	0.3044
704	0.7023
695	0.8925
686	0.8519
677	0.8834
668	0.9711
659	0.5651
650	0.9276
641	0.9458
632	0.9526
623	0.9439
614	0.9616
605	0.9614
596	0.9612
587	0.9578
578	0.952
569	0.9396
560	0.9073
551	0.7962
542	0.791
533	0.8676
524	0.8879
515	0.895
506	0.8995
497	0.9003
488	0.8987
479	0.8938
470	0.8827
461	0.8695
