Infrared Spectrum: Benzoic acid
Formula: C7 H6 O2
CAS: 65-85-0
State: SOLID (SPLIT MULL)
Class: COBLENTZ III
Instrument: DOW KBr FOREPRISM-GRATING
Instrument parameters: BLAZED AT 3.5, 12.0, 20.0 MICRON AND CHANGED AT 5.0, 7.5, 14.9 MICRON
Sampling: TRANSMISSION
Resolution: 2
Origin: DOW CHEMICAL COMPANY
1/CM	TRANSMITTANCE
3816	0.7781
3807	0.7783
3798	0.7786
3789	0.7787
3780	0.7804
3771	0.7825
3762	0.7843
3753	0.7853
3744	0.7864
3735	0.7868
3726	0.7867
3717	0.7858
3708	0.7856
3699	0.7862
3690	0.7887
3681	0.7908
3672	0.7924
3663	0.7937
3654	0.7947
3645	0.7955
3636	0.7958
3627	0.7965
3618	0.7978
3609	0.7989
3600	0.8001
3591	0.7965
3582	0.7961
3573	0.7982
3564	0.8
3555	0.8008
3546	0.8012
3537	0.8015
3528	0.8018
3519	0.8021
3510	0.8028
3501	0.8036
3492	0.805
3483	0.8068
3474	0.8088
3465	0.8099
3456	0.8105
3447	0.8108
3438	0.8112
3429	0.8119
3420	0.8128
3411	0.8128
3402	0.8128
3393	0.8124
3384	0.8115
3375	0.8108
3366	0.81
3357	0.8094
3348	0.8087
3339	0.8053
3330	0.8019
3321	0.7992
3312	0.7978
3303	0.7947
3294	0.7914
3285	0.7871
3276	0.7832
3267	0.779
3258	0.7749
3249	0.7706
3240	0.766
3231	0.7608
3222	0.7554
3213	0.7495
3204	0.7418
3195	0.734
3186	0.7254
3177	0.7161
3168	0.7064
3159	0.6948
3150	0.6837
3141	0.6725
3132	0.661
3123	0.6491
3114	0.6362
3105	0.621
3096	0.606
3087	0.5942
3078	0.5009
3069	0.5344
3060	0.5593
3051	0.5652
3042	0.558
3033	0.5428
3024	0.53
3015	0.5223
3006	0.5202
2997	0.5217
2988	0.5243
2979	0.5254
2970	0.5255
2961	0.5253
2952	0.5249
2943	0.529
2934	0.5345
2925	0.5367
2916	0.5343
2907	0.5275
2898	0.517
2889	0.5077
2880	0.5043
2871	0.5085
2862	0.5134
2853	0.5081
2844	0.4948
2835	0.4927
2826	0.503
2817	0.5274
2808	0.5466
2799	0.5622
2790	0.5765
2781	0.5897
2772	0.6012
2763	0.6119
2754	0.6218
2745	0.6326
2736	0.6339
2727	0.6224
2718	0.626
2709	0.6346
2700	0.6108
2691	0.5719
2682	0.5428
2673	0.5353
2664	0.5388
2655	0.5481
2646	0.5618
2637	0.5802
2628	0.5983
2619	0.6034
2610	0.5946
2601	0.5848
2592	0.6035
2583	0.6072
2574	0.581
2565	0.5358
2556	0.5339
2547	0.55
2538	0.572
2529	0.5906
2520	0.6087
2511	0.626
2502	0.6394
2493	0.6514
2484	0.6593
2475	0.6697
2466	0.6797
2457	0.688
2448	0.6951
2439	0.7015
2430	0.7076
2421	0.714
2412	0.7207
2403	0.7275
2394	0.7346
2385	0.7411
2376	0.7467
2367	0.7518
2358	0.7538
2349	0.7546
2340	0.7586
2331	0.7625
2322	0.765
2313	0.7678
2304	0.7726
2295	0.775
2286	0.7789
2277	0.7838
2268	0.7865
2259	0.7898
2250	0.7949
2241	0.8003
2232	0.8058
2223	0.8115
2214	0.8171
2205	0.821
2196	0.8225
2187	0.8237
2178	0.8254
2169	0.8294
2160	0.8341
2151	0.8383
2142	0.8418
2133	0.8437
2124	0.8443
2115	0.8448
2106	0.8442
2097	0.842
2088	0.8327
2079	0.8439
2070	0.8523
2061	0.8583
2052	0.8613
2043	0.8631
2034	0.8643
2025	0.8646
2016	0.8651
2007	0.8645
1998	0.8583
1989	0.8499
1980	0.8544
1971	0.8547
1962	0.857
1953	0.8599
1944	0.8571
1935	0.8501
1926	0.8405
1917	0.8325
1908	0.8268
1899	0.8418
1890	0.8471
1881	0.8491
1872	0.8507
1863	0.852
1854	0.8552
1845	0.8568
1836	0.8536
1827	0.848
1818	0.8386
1809	0.8425
1800	0.8371
1791	0.8228
1782	0.8167
1773	0.8321
1764	0.8441
1755	0.8498
1746	0.8355
1737	0.842
1728	0.8299
1719	0.7193
1710	0.494
1701	0.181
1692	0.1087
1683	0.0762
1674	0.2459
1665	0.5054
1656	0.6818
1647	0.7432
1638	0.7985
1629	0.8243
1620	0.8204
1611	0.8156
1602	0.6753
1593	0.743
1584	0.7255
1575	0.7348
1566	0.7925
1557	0.8214
1548	0.8258
1539	0.8459
1530	0.8507
1521	0.8515
1512	0.8718
1503	0.8773
1494	0.7908
1485	0.8787
1476	0.8887
1467	0.876
1458	0.7865
1449	0.4309
1440	0.81
1431	0.6971
1422	0.3748
1413	0.4966
1404	0.6856
1395	0.7461
1386	0.7926
1377	0.8069
1368	0.8191
1359	0.8118
1350	0.7694
1341	0.7128
1332	0.6008
1323	0.1901
1314	0.5543
1305	0.5647
1296	0.2209
1287	0.1733
1278	0.4056
1269	0.5469
1260	0.6784
1251	0.7175
1242	0.7695
1233	0.8182
1224	0.8386
1215	0.8413
1206	0.8268
1197	0.8408
1188	0.8248
1179	0.6684
1170	0.7003
1161	0.8184
1152	0.8393
1143	0.8404
1134	0.8339
1125	0.6571
1116	0.8168
1107	0.8514
1098	0.8242
1089	0.8456
1080	0.8499
1071	0.6742
1062	0.7878
1053	0.8251
1044	0.8268
1035	0.8313
1026	0.7861
1017	0.8189
1008	0.8388
999	0.838
990	0.8144
981	0.8313
972	0.8147
963	0.7886
954	0.7297
945	0.5527
936	0.4725
927	0.4642
918	0.5665
909	0.6555
900	0.7371
891	0.7888
882	0.8142
873	0.832
864	0.8423
855	0.8458
846	0.841
837	0.8462
828	0.8423
819	0.8353
810	0.7904
801	0.7071
792	0.8167
783	0.8432
774	0.8575
765	0.8631
756	0.8643
747	0.8614
738	0.8535
729	0.8432
720	0.8146
711	0.3491
702	0.234
693	0.798
684	0.6808
675	0.8245
666	0.4271
657	0.8041
648	0.8487
639	0.8706
630	0.8768
621	0.8794
612	0.8721
603	0.8734
594	0.8731
585	0.8718
576	0.8661
567	0.8543
558	0.7068
549	0.6801
540	0.7403
531	0.7774
522	0.7968
513	0.8128
504	0.8207
495	0.8242
486	0.8259
477	0.8265
468	0.8233
459	0.8139
