Infrared Spectrum: BENZOIC ACID
Formula: C7 H6 O2
CAS: 65-85-0
State: VAPOR AT 160 C
Class: COBLENTZ
Instrument: DOW KBr FOREPRISM-GRATING
Instrument parameters: BLAZED AT 3.5, 12.0, 20.0 MICRON, CHANGED AT 5.0, 7.5, 14.9 MICRON
Sampling: TRANSMISSION
Path length: 100 CM
Resolution: 2
Origin: DOW CHEMICAL COMPANY
1/CM	TRANSMITTANCE
454.353	0.91
463.229	0.918
472.105	0.946
480.98	0.962
489.856	0.966
498.732	0.962
507.608	0.956
516.484	0.948
525.359	0.946
534.235	0.934
543.111	0.914
551.987	0.878
560.862	0.836
569.738	0.796
578.614	0.7539
587.49	0.84
596.366	0.942
605.241	0.98
614.117	0.97
622.993	0.7861
631.869	0.668
640.745	0.7
649.62	0.956
658.496	0.944
667.372	0.972
676.248	0.978
685.124	0.932
693.999	0.8181
702.875	0.6541
711.751	0.5181
720.627	0.56
729.502	0.6759
738.378	0.872
747.254	0.934
756.13	0.8721
765.006	0.83
773.881	0.812
782.757	0.9338
791.633	0.924
800.509	0.894
809.385	0.872
818.26	0.84
827.136	0.894
836.012	0.934
844.888	0.946
853.764	0.956
862.639	0.97
871.515	0.978
880.391	0.98
889.267	0.984
898.142	0.984
907.018	0.982
915.894	0.984
924.77	0.98
933.646	0.978
942.521	0.984
951.397	0.982
960.273	0.98
969.149	0.988
978.025	0.986
986.9	0.978
995.776	0.956
1004.65	0.906
1013.53	0.74
1022.4	0.624
1031.28	0.63
1040.16	0.742
1049.03	0.83
1057.91	0.66
1066.78	0.562
1075.66	0.397
1084.53	0.333
1093.41	0.413
1102.29	0.6261
1111.16	0.764
1120.04	0.832
1128.91	0.852
1137.79	0.872
1146.66	0.874
1155.54	0.852
1164.42	0.6858
1173.29	0.371
1182.17	0.301
1191.04	0.4511
1199.92	0.5779
1208.8	0.892
1217.67	0.95
1226.55	0.946
1235.42	0.926
1244.3	0.89
1253.17	0.812
1262.05	0.74
1270.93	0.708
1279.8	0.738
1288.68	0.748
1297.55	0.832
1306.43	0.89
1315.3	0.872
1324.18	0.818
1333.06	0.796
1341.93	0.6299
1350.81	0.514
1359.68	0.514
1368.56	0.758
1377.44	0.832
1386.31	0.836
1395.19	0.844
1404.06	0.87
1412.94	0.904
1421.81	0.928
1430.69	0.932
1439.57	0.916
1448.44	0.876
1457.32	0.876
1466.19	0.894
1475.07	0.95
1483.94	0.912
1492.82	0.912
1501.7	0.944
1510.57	0.95
1519.45	0.958
1528.32	0.954
1537.2	0.954
1546.08	0.944
1554.95	0.934
1563.83	0.928
1572.7	0.922
1581.58	0.9
1590.45	0.834
1599.33	0.768
1608.21	0.848
1617.08	0.89
1625.96	0.94
1634.83	0.946
1643.71	0.946
1652.58	0.946
1661.46	0.954
1670.34	0.952
1679.21	0.948
1688.09	0.936
1696.96	0.916
1705.84	0.88
1714.72	0.84
1723.59	0.838
1732.47	0.846
1741.34	0.7439
1750.22	0.3789
1759.09	0.081
1767.97	0.079
1776.85	0.2833
1785.72	0.7442
1794.6	0.902
1803.47	0.912
1812.35	0.892
1821.22	0.884
1830.1	0.898
1838.98	0.934
1847.85	0.952
1856.73	0.958
1865.6	0.96
1874.48	0.962
1883.36	0.96
1892.23	0.958
1901.11	0.956
1909.98	0.952
1918.86	0.944
1927.73	0.948
1936.61	0.952
1945.49	0.95
1954.36	0.946
1963.24	0.948
1972.11	0.952
1980.99	0.96
1989.86	0.968
1998.74	0.974
2007.62	0.93
2016.49	0.932
2025.37	0.93
2034.24	0.935
2043.12	0.9341
2052	0.935
2060.87	0.936
2069.75	0.94
2078.62	0.94
2087.5	0.94
2096.37	0.94
2105.25	0.9429
2114.13	0.944
2123	0.944
2131.88	0.944
2140.75	0.9411
2149.63	0.9419
2158.5	0.942
2167.38	0.944
2176.26	0.9477
2185.13	0.9538
2194.01	0.954
2202.88	0.954
2211.76	0.958
2220.64	0.958
2229.51	0.958
2238.39	0.958
2247.26	0.958
2256.14	0.96
2265.01	0.96
2273.89	0.9577
2282.77	0.962
2291.64	0.9623
2300.52	0.9618
2309.39	0.9632
2318.27	0.968
2327.14	0.9677
2336.02	0.9733
2344.9	0.968
2353.77	0.968
2362.65	0.968
2371.52	0.9707
2380.4	0.9663
2389.28	0.966
2398.15	0.966
2407.03	0.9666
2415.9	0.968
2424.78	0.968
2433.65	0.966
2442.53	0.9686
2451.41	0.9664
2460.28	0.9666
2469.16	0.968
2478.03	0.9694
2486.91	0.97
2495.78	0.97
2504.66	0.97
2513.54	0.968
2522.41	0.968
2531.29	0.968
2540.16	0.968
2549.04	0.968
2557.92	0.968
2566.79	0.974
2575.67	0.97
2584.54	0.97
2593.42	0.97
2602.29	0.97
2611.17	0.97
2620.05	0.9691
2628.92	0.968
2637.8	0.972
2646.67	0.972
2655.55	0.968
2664.42	0.9694
2673.3	0.9696
2682.18	0.968
2691.05	0.968
2699.93	0.97
2708.8	0.972
2717.68	0.972
2726.56	0.9707
2735.43	0.974
2744.31	0.9743
2753.18	0.9727
2762.06	0.9703
2770.93	0.9687
2779.81	0.9663
2788.69	0.968
2797.56	0.972
2806.44	0.972
2815.31	0.972
2824.19	0.972
2833.06	0.97
2841.94	0.9647
2850.82	0.964
2859.69	0.964
2868.57	0.966
2877.44	0.964
2886.32	0.9638
2895.2	0.962
2904.07	0.9598
2912.95	0.958
2921.82	0.954
2930.7	0.954
2939.57	0.954
2948.45	0.954
2957.33	0.9459
2966.2	0.9165
2975.08	0.9264
2983.95	0.9487
2992.83	0.96
3001.7	0.964
3010.58	0.958
3019.46	0.9569
3028.33	0.9459
3037.21	0.9348
3046.08	0.9117
3054.96	0.8959
3063.84	0.8759
3072.71	0.8465
3081.59	0.8401
3090.46	0.8561
3099.34	0.9061
3108.21	0.915
3117.09	0.9461
3125.97	0.96
3134.84	0.972
3143.72	0.976
3152.59	0.974
3161.47	0.974
3170.34	0.974
3179.22	0.976
3188.1	0.978
3196.97	0.98
3205.85	0.98
3214.72	0.98
3223.6	0.98
3232.48	0.982
3241.35	0.982
3250.23	0.984
3259.1	0.9879
3267.98	0.9871
3276.85	0.986
3285.73	0.988
3294.61	0.99
3303.48	0.994
3312.36	0.992
3321.23	0.992
3330.11	0.9918
3338.98	0.9928
3347.86	0.9942
3356.74	0.99
3365.61	0.992
3374.49	0.994
3383.36	0.996
3392.24	0.998
3401.12	0.998
3409.99	0.998
3418.87	0.998
3427.74	0.998
3436.62	0.998
3445.49	0.998
3454.37	0.998
3463.25	0.996
3472.12	0.996
3481	0.9913
3489.87	0.979
3498.75	0.976
3507.62	0.978
3516.5	0.9893
3525.38	0.9997
3534.25	0.998
3543.13	0.9944
3552	0.9787
3560.88	0.8888
3569.76	0.5034
3578.63	0.4175
3587.51	0.6238
3596.38	0.9636
3605.26	0.994
3614.13	0.996
3623.01	0.9966
3631.89	0.998
3640.76	0.998
3649.64	0.998
3658.51	0.996
3667.39	0.9995
3676.26	0.9995
3685.14	0.9925
3694.02	0.9985
3702.89	1.001
3711.77	1.0002
3720.64	1.003
3729.52	1.0015
3738.4	1.0065
3747.27	1.007
3756.15	1.005
3765.02	1.0074
3773.9	1.009
3782.77	1.009
3791.65	1.007
