Infrared Spectrum: Uracil
Formula: C4 H4 N2 O2
CAS: 66-22-8
State: SOLID (1.2 mg / 400 mg KBr DISC)
Class: COBLENTZ III
Instrument: PERKIN-ELMER 180 (GRATING)
Instrument parameters: GRATINGS: 2000, 1000, 500, 250 CM^-^1; FILTER CHANGE: 2970, 2000, 1485, 1000, 743, 500, 372, 250, 186 CM^-^1.
Sampling: TRANSMISSION
Resolution: 2
Origin: K. K. DEB-NCI FREDERICK CANCER RESEARCH CENTER
1/CM	TRANSMITTANCE
406	0.6718
415	0.6433
424	0.4836
433	0.4423
442	0.5952
451	0.7874
460	0.8523
469	0.8589
478	0.8586
487	0.8526
496	0.8431
505	0.8219
514	0.7929
523	0.7438
532	0.6376
541	0.3623
550	0.4708
559	0.5776
568	0.6179
577	0.8208
586	0.7358
595	0.8761
604	0.8816
613	0.8792
622	0.8735
631	0.8672
640	0.8607
649	0.8532
658	0.847
667	0.8421
676	0.8383
685	0.8346
694	0.8297
703	0.8204
712	0.8059
721	0.7888
730	0.7699
739	0.7559
748	0.7066
757	0.5603
766	0.6673
775	0.6358
784	0.5942
793	0.5708
802	0.529
811	0.5177
820	0.4347
829	0.4916
838	0.481
847	0.4532
856	0.4408
865	0.4997
874	0.5833
883	0.668
892	0.7242
901	0.7552
910	0.7728
919	0.7862
928	0.7973
937	0.8042
946	0.806
955	0.8049
964	0.7997
973	0.782
982	0.7253
991	0.6268
1000	0.668
1009	0.7674
1018	0.8231
1027	0.8235
1036	0.822
1045	0.8204
1054	0.8178
1063	0.8147
1072	0.8105
1081	0.8028
1090	0.7853
1099	0.7777
1108	0.7936
1117	0.7854
1126	0.782
1135	0.7779
1144	0.7709
1153	0.762
1162	0.752
1171	0.7381
1180	0.722
1189	0.6978
1198	0.6615
1207	0.5885
1216	0.5075
1225	0.3393
1234	0.2825
1243	0.5248
1252	0.7746
1261	0.8434
1270	0.8479
1279	0.839
1288	0.8182
1297	0.7991
1306	0.7838
1315	0.7706
1324	0.757
1333	0.7419
1342	0.7222
1351	0.7027
1360	0.6844
1369	0.6581
1378	0.5959
1387	0.4806
1396	0.5945
1405	0.4462
1414	0.276
1423	0.5054
1432	0.658
1441	0.5278
1450	0.3976
1459	0.5853
1468	0.6727
1477	0.6767
1486	0.6351
1495	0.5714
1504	0.5087
1513	0.53
1522	0.5407
1531	0.5425
1540	0.538
1549	0.5161
1558	0.4925
1567	0.4632
1576	0.4346
1585	0.4081
1594	0.369
1603	0.3278
1612	0.2877
1621	0.2512
1630	0.2232
1639	0.1959
1648	0.1888
1657	0.1984
1666	0.1996
1675	0.2205
1684	0.2834
1693	0.2955
1702	0.2203
1711	0.1429
1720	0.1729
1729	0.174
1738	0.1721
1747	0.2763
1756	0.349
1765	0.3398
1774	0.3629
1783	0.4204
1792	0.4422
1801	0.4852
1810	0.5529
1819	0.6218
1828	0.67
1837	0.7111
1846	0.7377
1855	0.76
1864	0.7822
1873	0.8085
1882	0.8271
1891	0.8399
1900	0.8514
1909	0.859
1918	0.8636
1927	0.8673
1936	0.8736
1945	0.8745
1954	0.8799
1963	0.8759
1972	0.865
1981	0.8496
1990	0.8467
1999	0.8723
2008	0.8742
2017	0.8862
2026	0.9098
2035	0.918
2044	0.9206
2053	0.9208
2062	0.9191
2071	0.9158
2080	0.9121
2089	0.9084
2098	0.9047
2107	0.9044
2116	0.9064
2125	0.9099
2134	0.9071
2143	0.9039
2152	0.9008
2161	0.8976
2170	0.8932
2179	0.8886
2188	0.8845
2197	0.8831
2206	0.8815
2215	0.8785
2224	0.8732
2233	0.869
2242	0.8747
2251	0.8797
2260	0.8757
2269	0.8716
2278	0.8677
2287	0.8637
2296	0.8599
2305	0.856
2314	0.853
2323	0.8521
2332	0.8528
2341	0.8534
2350	0.8503
2359	0.8453
2368	0.8367
2377	0.8244
2386	0.8108
2395	0.8052
2404	0.8156
2413	0.8111
2422	0.8071
2431	0.8039
2440	0.7869
2449	0.7748
2458	0.773
2467	0.781
2476	0.7875
2485	0.7921
2494	0.7957
2503	0.795
2512	0.7912
2521	0.7855
2530	0.7788
2539	0.7711
2548	0.7689
2557	0.7699
2566	0.7677
2575	0.7596
2584	0.7484
2593	0.7394
2602	0.7321
2611	0.7272
2620	0.7224
2629	0.7176
2638	0.7118
2647	0.7049
2656	0.6965
2665	0.6853
2674	0.6733
2683	0.6617
2692	0.6552
2701	0.6341
2710	0.6121
2719	0.594
2728	0.5885
2737	0.5945
2746	0.5998
2755	0.5969
2764	0.5854
2773	0.5591
2782	0.53
2791	0.5007
2800	0.4749
2809	0.4704
2818	0.4704
2827	0.4966
2836	0.4743
2845	0.4407
2854	0.4309
2863	0.4639
2872	0.4569
2881	0.4322
2890	0.4025
2899	0.3953
2908	0.3669
2917	0.3423
2926	0.3209
2935	0.3236
2944	0.3791
2953	0.4057
2962	0.3917
2971	0.3675
2980	0.3573
2989	0.3667
2998	0.3854
3007	0.39
3016	0.3875
3025	0.3705
3034	0.363
3043	0.3669
3052	0.3668
3061	0.3527
3070	0.3253
3079	0.3013
3088	0.2953
3097	0.2937
3106	0.2931
3115	0.3029
3124	0.3212
3133	0.3374
3142	0.3581
3151	0.3745
3160	0.3817
3169	0.3852
3178	0.4037
3187	0.4453
3196	0.4729
3205	0.4824
3214	0.4856
3223	0.4902
3232	0.5024
3241	0.5155
3250	0.541
3259	0.5935
3268	0.6406
3277	0.6806
3286	0.7072
3295	0.7337
3304	0.7619
3313	0.7832
3322	0.7974
3331	0.8029
3340	0.8085
3349	0.813
3358	0.8164
3367	0.8186
3376	0.8198
3385	0.8174
3394	0.8139
3403	0.815
3412	0.8185
3421	0.8219
3430	0.8248
3439	0.8277
3448	0.8298
3457	0.8317
3466	0.8333
3475	0.8346
3484	0.836
3493	0.8374
3502	0.8389
3511	0.8407
3520	0.8425
3529	0.8444
3538	0.8462
3547	0.8477
3556	0.8483
3565	0.8488
3574	0.8493
3583	0.8498
3592	0.8497
3601	0.8495
3610	0.8493
3619	0.8491
3628	0.849
3637	0.8487
3646	0.8485
3655	0.8483
3664	0.8481
3673	0.8479
3682	0.8477
3691	0.8472
3700	0.8467
3709	0.8462
3718	0.8457
3727	0.8451
3736	0.8442
3745	0.8434
3754	0.8425
3763	0.8411
3772	0.8396
