Infrared Spectrum: ETHYLENE, TETRACYANO-
Formula: C6 N4
CAS: 670-54-2
State: SOLID (SPLIT MULL)
Class: COBLENTZ III
Instrument: BECKMAN IR-9 (GRATING)
Instrument parameters: ORDER CHANGES: 670, 1200, 2000 CM^-^1
Sampling: TRANSMISSION
Resolution: 2
Origin: DOW CHEMICAL COMPANY
1/CM	TRANSMITTANCE
3800	0.2089
3791	0.2098
3782	0.2109
3773	0.212
3764	0.2125
3755	0.2128
3746	0.2131
3737	0.2141
3728	0.2155
3719	0.2168
3710	0.2182
3701	0.219
3692	0.2198
3683	0.2206
3674	0.2215
3665	0.2226
3656	0.2238
3647	0.2249
3638	0.226
3629	0.2269
3620	0.2278
3611	0.2287
3602	0.2296
3593	0.2305
3584	0.2314
3575	0.2322
3566	0.233
3557	0.2338
3548	0.2346
3539	0.2354
3530	0.2364
3521	0.2374
3512	0.2384
3503	0.2394
3494	0.2405
3485	0.2415
3476	0.2426
3467	0.2439
3458	0.2453
3449	0.2466
3440	0.248
3431	0.2494
3422	0.2508
3413	0.2521
3404	0.2534
3395	0.2548
3386	0.2563
3377	0.2576
3368	0.259
3359	0.2603
3350	0.2619
3341	0.2633
3332	0.2649
3323	0.2663
3314	0.2679
3305	0.2694
3296	0.271
3287	0.2726
3278	0.2742
3269	0.276
3260	0.2781
3251	0.2801
3242	0.2822
3233	0.2841
3224	0.2859
3215	0.2876
3206	0.2894
3197	0.2912
3188	0.2938
3179	0.2963
3170	0.2988
3161	0.301
3152	0.3032
3143	0.3053
3134	0.308
3125	0.3106
3116	0.3133
3107	0.3158
3098	0.318
3089	0.3202
3080	0.3224
3071	0.3254
3062	0.3286
3053	0.3372
3044	0.3418
3035	0.343
3026	0.3437
3017	0.3443
3008	0.345
2999	0.3464
2990	0.3477
2981	0.349
2972	0.3506
2963	0.3523
2954	0.3532
2945	0.3543
2936	0.3552
2927	0.3558
2918	0.3568
2909	0.3625
2900	0.3688
2891	0.3712
2882	0.3734
2873	0.3755
2864	0.3777
2855	0.3804
2846	0.3854
2837	0.3916
2828	0.395
2819	0.3972
2810	0.3994
2801	0.4014
2792	0.4036
2783	0.4064
2774	0.4094
2765	0.4122
2756	0.415
2747	0.4177
2738	0.4205
2729	0.4237
2720	0.427
2711	0.4315
2702	0.4347
2693	0.436
2684	0.4379
2675	0.4415
2666	0.4455
2657	0.4498
2648	0.4541
2639	0.4578
2630	0.4616
2621	0.4664
2612	0.47
2603	0.4727
2594	0.4756
2585	0.4786
2576	0.4817
2567	0.4853
2558	0.4891
2549	0.492
2540	0.4943
2531	0.4957
2522	0.4966
2513	0.4959
2504	0.4956
2495	0.4981
2486	0.5015
2477	0.5046
2468	0.5078
2459	0.511
2450	0.5144
2441	0.5165
2432	0.5171
2423	0.5178
2414	0.5187
2405	0.5194
2396	0.5207
2387	0.5266
2378	0.5483
2369	0.5624
2360	0.5619
2351	0.561
2342	0.561
2333	0.5618
2324	0.5635
2315	0.5653
2306	0.5671
2297	0.5719
2288	0.5791
2279	0.593
2270	0.602
2261	0.5697
2252	0.1529
2243	0.4899
2234	0.5397
2225	0.372
2216	0.473
2207	0.481
2198	0.5673
2189	0.585
2180	0.5947
2171	0.604
2162	0.6144
2153	0.6244
2144	0.6304
2135	0.6371
2126	0.6449
2117	0.6535
2108	0.6615
2099	0.6685
2090	0.6745
2081	0.6796
2072	0.6833
2063	0.6858
2054	0.6901
2045	0.6983
2036	0.7068
2027	0.7155
2018	0.72
2009	0.7221
2000	0.7126
1991	0.7264
1982	0.7368
1973	0.7419
1964	0.7495
1955	0.7514
1946	0.7571
1937	0.7587
1928	0.7605
1919	0.7628
1910	0.766
1901	0.7695
1892	0.7726
1883	0.7758
1874	0.7785
1865	0.7807
1856	0.783
1847	0.7851
1838	0.7872
1829	0.7908
1820	0.7957
1811	0.7996
1802	0.8019
1793	0.8041
1784	0.8071
1775	0.8094
1766	0.8088
1757	0.8028
1748	0.793
1739	0.7911
1730	0.7918
1721	0.7924
1712	0.783
1703	0.7839
1694	0.7851
1685	0.7872
1676	0.8003
1667	0.815
1658	0.8259
1649	0.8357
1640	0.8421
1631	0.8436
1622	0.8487
1613	0.8548
1604	0.8618
1595	0.8692
1586	0.8771
1577	0.8844
1568	0.8871
1559	0.8864
1550	0.8859
1541	0.886
1532	0.8864
1523	0.8847
1514	0.883
1505	0.8833
1496	0.8806
1487	0.8771
1478	0.8706
1469	0.8611
1460	0.8504
1451	0.8437
1442	0.8354
1433	0.8293
1424	0.8168
1415	0.8055
1406	0.798
1397	0.7921
1388	0.7822
1379	0.7695
1370	0.7565
1361	0.7225
1352	0.658
1343	0.571
1334	0.5774
1325	0.7003
1316	0.6932
1307	0.6885
1298	0.6919
1289	0.7028
1280	0.715
1271	0.7246
1262	0.731
1253	0.7375
1244	0.7404
1235	0.7171
1226	0.7441
1217	0.7501
1208	0.7461
1199	0.7549
1190	0.7542
1181	0.7403
1172	0.7286
1163	0.6846
1154	0.1475
1145	0.3246
1136	0.6493
1127	0.7575
1118	0.738
1109	0.5319
1100	0.7584
1091	0.7533
1082	0.5791
1073	0.7411
1064	0.7636
1055	0.7708
1046	0.7768
1037	0.781
1028	0.7658
1019	0.7468
1010	0.7755
1001	0.7928
992	0.7912
983	0.7895
974	0.7853
965	0.7701
956	0.2918
947	0.716
938	0.7098
929	0.6519
920	0.7486
911	0.628
902	0.7878
893	0.8043
884	0.814
875	0.8178
866	0.8167
857	0.8141
848	0.8125
839	0.815
830	0.8085
821	0.7985
812	0.8006
803	0.569
794	0.7808
785	0.8262
776	0.8312
767	0.8311
758	0.8292
749	0.8249
740	0.8078
731	0.7826
722	0.7268
713	0.8012
704	0.8308
695	0.8217
686	0.8541
677	0.8504
668	0.8621
659	0.8741
650	0.8803
641	0.8815
632	0.8823
623	0.8844
614	0.8892
605	0.8861
596	0.8799
587	0.8575
578	0.8162
569	0.7615
560	0.8465
551	0.3093
542	0.8602
533	0.8575
524	0.8578
515	0.8549
506	0.852
497	0.8483
488	0.8421
479	0.8325
470	0.8212
461	0.8067
452	0.7874
443	0.7614
434	0.7276
425	0.6568
416	0.6312
407	0.612
