Infrared Spectrum: Methanol
Formula: C H3 O H
CAS: 67-56-1
State: gas
Melting point: -93.9 C
Boiling point: 64.96 C
Class: IUPAC A
Instrument: IFS66V (Bruker)
Instrument parameters: KBr Beam splitter; MCT Detector; Multipass cell
Sampling: 1 L/min Flow
Resolution: 1.9290
Temperature: 23 C
Pressure: 101.3 kPa
Origin: NIST, Anayltical Chemistry Division, 301-975-3108
cm-1	(micromol/mol)-1m-1 (base 10)
574.687	4.34408e-06
583.365	3.09711e-06
592.043	2.33155e-06
600.721	2.24792e-06
609.4	1.91415e-06
618.078	2.51575e-06
626.756	1.29485e-06
635.434	1.4635e-06
644.112	2.12387e-06
652.79	1.95569e-06
661.469	1.50667e-06
670.147	1.38407e-06
678.825	1.41748e-06
687.503	1.37092e-06
696.181	1.64567e-06
704.859	1.25248e-06
713.537	1.48012e-06
722.216	1.38662e-06
730.894	1.23062e-06
739.572	1.0438e-06
748.25	1.28183e-06
756.928	1.19797e-06
765.606	1.15811e-06
774.285	1.0131e-06
782.963	8.09517e-07
791.641	8.62216e-07
800.319	9.19469e-07
808.997	9.2092e-07
817.675	1.03363e-06
826.353	9.30226e-07
835.032	8.91989e-07
843.71	1.07572e-06
852.388	1.09501e-06
861.066	1.28767e-06
869.744	1.28978e-06
878.422	1.3363e-06
887.101	1.34786e-06
895.779	1.56264e-06
904.457	1.62122e-06
913.135	2.13316e-06
921.813	2.56528e-06
930.491	3.25535e-06
939.169	4.21115e-06
947.848	4.82712e-06
956.526	7.18576e-06
965.204	1.32125e-05
973.882	2.77352e-05
982.56	5.49703e-05
991.238	0.000101536
999.917	0.000169288
1008.59	0.000226437
1017.27	0.000225716
1025.95	0.000127294
1034.63	0.000354308
1043.31	0.000172984
1051.99	0.000325292
1060.66	0.000291503
1069.34	0.000146634
1078.02	4.2335e-05
1086.7	1.30351e-05
1095.38	1.04267e-05
1104.05	9.1205e-06
1112.73	8.79815e-06
1121.41	7.55721e-06
1130.09	6.43491e-06
1138.77	5.6419e-06
1147.45	5.44987e-06
1156.12	4.85806e-06
1164.8	5.60658e-06
1173.48	4.65774e-06
1182.16	5.83737e-06
1190.84	6.56795e-06
1199.51	8.18344e-06
1208.19	1.05143e-05
1216.87	9.9369e-06
1225.55	1.23134e-05
1234.23	1.11002e-05
1242.9	1.18204e-05
1251.58	1.28814e-05
1260.26	1.41222e-05
1268.94	1.48618e-05
1277.62	1.42764e-05
1286.3	1.58087e-05
1294.97	2.03812e-05
1303.65	2.37109e-05
1312.33	2.63999e-05
1321.01	3.47704e-05
1329.69	2.91892e-05
1338.36	2.87579e-05
1347.04	4.04591e-05
1355.72	3.08954e-05
1364.4	2.86185e-05
1373.08	2.88837e-05
1381.76	2.36783e-05
1390.43	2.26612e-05
1399.11	2.21078e-05
1407.79	1.72219e-05
1416.47	1.71448e-05
1425.15	1.73456e-05
1433.82	1.6575e-05
1442.5	1.21133e-05
1451.18	1.25027e-05
1459.86	1.53122e-05
1468.54	1.56219e-05
1477.22	1.97953e-05
1485.89	1.23008e-05
1494.57	1.01235e-05
1503.25	9.27594e-06
1511.93	1.03525e-05
1520.61	9.84162e-06
1529.28	8.43156e-06
1537.96	8.2586e-06
1546.64	6.70361e-06
1555.32	6.01816e-06
1564	4.81648e-06
1572.67	3.73519e-06
1581.35	2.84478e-06
1590.03	2.3781e-06
1598.71	1.99317e-06
1607.39	1.56135e-06
1616.07	2.00359e-06
1624.74	1.19298e-06
1633.42	9.61085e-07
1642.1	8.20948e-07
1650.78	9.41054e-07
1659.46	7.18396e-07
1668.13	8.83533e-07
1676.81	7.3614e-07
1685.49	1.64336e-06
1694.17	7.30396e-07
1702.85	6.89508e-07
1711.53	5.71347e-07
1720.2	6.21279e-07
1728.88	6.09708e-07
1737.56	5.86274e-07
1746.24	6.03507e-07
1754.92	5.10502e-07
1763.59	5.21928e-07
1772.27	1.10752e-06
1780.95	5.7905e-07
1789.63	5.43166e-07
1798.31	5.35778e-07
1806.98	4.88464e-07
1815.66	5.04407e-07
1824.34	6.14738e-07
1833.02	5.40992e-07
1841.7	5.56322e-07
1850.38	5.20187e-07
1859.05	5.28394e-07
1867.73	6.43413e-07
1876.41	5.29346e-07
1885.09	5.3447e-07
1893.77	5.29641e-07
1902.44	5.0196e-07
1911.12	5.17191e-07
1919.8	4.94988e-07
1928.48	4.90897e-07
1937.16	4.87811e-07
1945.84	4.70601e-07
1954.51	4.32148e-07
1963.19	4.07993e-07
1971.87	4.33246e-07
1980.55	5.3044e-07
1989.23	7.35687e-07
1997.9	1.18082e-06
2006.58	1.80171e-06
2015.26	2.53438e-06
2023.94	3.38186e-06
2032.62	3.99507e-06
2041.3	3.69208e-06
2049.97	4.7943e-06
2058.65	2.6192e-06
2067.33	6.12653e-06
2076.01	9.04479e-06
2084.69	5.28e-06
2093.36	2.07603e-06
2102.04	1.11611e-06
2110.72	1.77807e-06
2119.4	2.11688e-06
2128.08	1.5475e-06
2136.75	9.54279e-07
2145.43	8.83371e-07
2154.11	1.18027e-06
2162.79	1.24307e-06
2171.47	1.3047e-06
2180.15	1.46201e-06
2188.82	1.21108e-06
2197.5	1.12077e-06
2206.18	1.07192e-06
2214.86	1.05579e-06
2223.54	1.02212e-06
2232.21	9.97656e-07
2240.89	8.93653e-07
2249.57	9.35585e-07
2258.25	9.1332e-07
2266.93	9.55764e-07
2275.61	9.73495e-07
2284.28	1.02396e-06
2292.96	1.10882e-06
2301.64	1.17077e-06
2310.32	1.20434e-06
2319	1.24815e-06
2327.67	1.40404e-06
2336.35	1.38839e-06
2345.03	1.6611e-06
2353.71	1.55574e-06
2362.39	1.74969e-06
2371.06	1.78387e-06
2379.74	1.72767e-06
2388.42	1.6791e-06
2397.1	1.62757e-06
2405.78	1.97971e-06
2414.46	1.85412e-06
2423.13	1.60493e-06
2431.81	1.45108e-06
2440.49	1.41543e-06
2449.17	1.31302e-06
2457.85	1.22841e-06
2466.52	1.19218e-06
2475.2	1.12568e-06
2483.88	1.17048e-06
2492.56	1.15815e-06
2501.24	1.15046e-06
2509.92	1.15677e-06
2518.59	1.22412e-06
2527.27	1.38202e-06
2535.95	1.35178e-06
2544.63	1.37129e-06
2553.31	1.51875e-06
2561.98	1.52222e-06
2570.66	1.62634e-06
2579.34	1.75823e-06
2588.02	2.00599e-06
2596.7	2.26844e-06
2605.38	2.20048e-06
2614.05	2.40553e-06
2622.73	2.57922e-06
2631.41	2.81688e-06
2640.09	2.425e-06
2648.77	2.47062e-06
2657.44	2.30716e-06
2666.12	2.44595e-06
2674.8	2.30898e-06
2683.48	2.31563e-06
2692.16	2.24918e-06
2700.83	2.41927e-06
2709.51	2.51694e-06
2718.19	2.4233e-06
2726.87	3.03353e-06
2735.55	3.40801e-06
2744.23	4.09938e-06
2752.9	4.95522e-06
2761.58	5.58815e-06
2770.26	7.13587e-06
2778.94	8.95131e-06
2787.62	1.20394e-05
2796.29	1.76386e-05
2804.97	2.82192e-05
2813.65	4.43829e-05
2822.33	5.99392e-05
2831.01	5.91172e-05
2839.69	5.79027e-05
2848.36	5.8688e-05
2857.04	7.37251e-05
2865.72	9.48663e-05
2874.4	8.43094e-05
2883.08	6.76323e-05
2891.75	6.84607e-05
2900.43	7.79725e-05
2909.11	0.000102593
2917.79	0.000118212
2926.47	0.00012446
2935.14	0.000138908
2943.82	0.000139231
2952.5	0.000140669
2961.18	0.000129362
2969.86	0.000140246
2978.54	0.000137896
2987.21	0.00012265
2995.89	9.81233e-05
3004.57	8.56405e-05
3013.25	7.37913e-05
3021.93	5.94548e-05
3030.6	4.95873e-05
3039.28	3.66157e-05
3047.96	2.81307e-05
3056.64	2.12249e-05
3065.32	1.69216e-05
3074	1.12327e-05
3082.67	7.86334e-06
3091.35	5.37958e-06
3100.03	3.69484e-06
3108.71	2.63168e-06
3117.39	1.99086e-06
3126.06	1.52828e-06
3134.74	1.33873e-06
3143.42	1.28482e-06
3152.1	1.04588e-06
3160.78	1.15647e-06
3169.46	1.00592e-06
3178.13	1.04726e-06
3186.81	1.02009e-06
3195.49	9.32132e-07
3204.17	9.39633e-07
3212.85	9.17978e-07
3221.52	8.94453e-07
3230.2	7.85167e-07
3238.88	8.03921e-07
3247.56	7.78301e-07
3256.24	7.30656e-07
3264.91	6.92292e-07
3273.59	6.24936e-07
3282.27	6.58076e-07
3290.95	6.03276e-07
3299.63	6.30331e-07
3308.31	6.27655e-07
3316.98	6.62348e-07
3325.66	6.31597e-07
3334.34	6.41246e-07
3343.02	7.43855e-07
3351.7	7.56617e-07
3360.37	7.36745e-07
3369.05	7.14154e-07
3377.73	1.03067e-06
3386.41	9.14919e-07
3395.09	9.91443e-07
3403.77	1.11842e-06
3412.44	1.02943e-06
3421.12	1.13859e-06
3429.8	1.30095e-06
3438.48	1.28919e-06
3447.16	1.2429e-06
3455.83	1.2472e-06
3464.51	1.49994e-06
3473.19	1.39e-06
3481.87	2.36103e-06
3490.55	1.80273e-06
3499.22	1.89666e-06
3507.9	1.55828e-06
3516.58	1.55911e-06
3525.26	1.90473e-06
3533.94	2.37513e-06
3542.62	1.6954e-06
3551.29	1.90982e-06
3559.97	2.11803e-06
3568.65	3.5427e-06
3577.33	3.54645e-06
3586.01	3.70207e-06
3594.68	4.49389e-06
3603.36	4.27371e-06
3612.04	6.35575e-06
3620.72	9.32996e-06
3629.4	1.27702e-05
3638.08	1.76441e-05
3646.75	2.43312e-05
3655.43	3.49691e-05
3664.11	4.37818e-05
3672.79	4.09244e-05
3681.47	6.37967e-05
3690.14	2.94704e-05
3698.82	4.36436e-05
3707.5	4.45884e-05
3716.18	3.71812e-05
3724.86	2.50934e-05
3733.54	1.75307e-05
3742.21	9.58601e-06
3750.89	7.52712e-06
3759.57	7.11832e-06
3768.25	4.60702e-06
3776.93	3.63733e-06
3785.6	2.79529e-06
3794.28	2.72623e-06
3802.96	2.72503e-06
3811.64	3.96925e-06
3820.32	2.60896e-06
3828.99	2.43002e-06
3837.67	3.60973e-06
3846.35	2.48001e-06
3855.03	4.13364e-06
3863.71	3.10163e-06
3872.39	3.44866e-06
3881.06	2.57974e-06
3889.74	3.90172e-06
3898.42	3.52707e-06
3907.1	2.40687e-06
3915.78	2.3722e-06
3924.45	2.55399e-06
3933.13	2.69693e-06
3941.81	2.69618e-06
3950.49	2.46903e-06
3959.17	2.46844e-06
3967.85	2.64538e-06
