Infrared Spectrum: Methanol
Formula: C H3 O H
CAS: 67-56-1
State: gas
Melting point: -93.9 C
Boiling point: 64.96 C
Class: IUPAC A
Instrument: IFS66V (Bruker)
Instrument parameters: KBr Beam splitter; MCT Detector; Multipass cell
Sampling: 1 L/min Flow
Resolution: 0.2410
Temperature: 23 C
Pressure: 101.3 kPa
Origin: NIST, Anayltical Chemistry Division, 301-975-3108
cm-1	(micromol/mol)-1m-1 (base 10)
575.048	1.93035e-06
583.606	1.93158e-06
592.163	2.88746e-06
600.721	1.50183e-06
609.279	1.82374e-06
617.836	3.64699e-06
626.394	1.42796e-06
634.951	1.28016e-06
643.509	2.24313e-06
652.067	1.27545e-06
660.624	1.58965e-06
669.182	1.52593e-06
677.74	1.15731e-06
686.297	1.38066e-06
694.855	2.98741e-06
703.412	1.36387e-06
711.97	1.74642e-06
720.528	1.64165e-06
729.085	8.93479e-07
737.643	1.36628e-06
746.201	1.26577e-06
754.758	1.5717e-06
763.316	1.12677e-06
771.873	5.01216e-07
780.431	2.53774e-06
788.989	8.60114e-07
797.546	7.40147e-07
806.104	1.23568e-06
814.662	8.81092e-07
823.219	9.32724e-07
831.777	6.77701e-07
840.334	1.06394e-06
848.892	1.04988e-06
857.45	9.27172e-07
866.007	1.18395e-06
874.565	1.43936e-06
883.123	1.1706e-06
891.68	1.29684e-06
900.238	2.01055e-06
908.795	1.93362e-06
917.353	1.76457e-06
925.911	2.76156e-06
934.468	3.44513e-06
943.026	3.43105e-06
951.584	5.01124e-06
960.141	9.96932e-06
968.699	1.9765e-05
977.256	3.08816e-05
985.814	6.89628e-05
994.372	0.000155348
1002.93	0.000145931
1011.49	0.000262446
1020.04	0.000193743
1028.6	0.000115197
1037.16	8.50618e-05
1045.72	0.000221748
1054.28	0.000303758
1062.83	0.000265809
1071.39	0.000112559
1079.95	3.1612e-05
1088.51	1.11898e-05
1097.06	1.15493e-05
1105.62	9.51079e-06
1114.18	1.10016e-05
1122.74	7.99477e-06
1131.29	5.47992e-06
1139.85	5.93261e-06
1148.41	4.72077e-06
1156.97	5.88211e-06
1165.52	4.5346e-06
1174.08	4.1981e-06
1182.64	6.30833e-06
1191.2	5.95582e-06
1199.75	7.3018e-06
1208.31	1.03994e-05
1216.87	8.44657e-06
1225.43	1.36897e-05
1233.99	1.1941e-05
1242.54	1.19707e-05
1251.1	1.28527e-05
1259.66	1.41978e-05
1268.22	1.30827e-05
1276.77	1.68279e-05
1285.33	1.56947e-05
1293.89	2.20143e-05
1302.45	2.76751e-05
1311	2.41077e-05
1319.56	2.72868e-05
1328.12	2.99798e-05
1336.68	2.53689e-05
1345.23	5.50512e-05
1353.79	3.37501e-05
1362.35	2.53823e-05
1370.91	3.21292e-05
1379.46	2.93195e-05
1388.02	2.52888e-05
1396.58	2.29905e-05
1405.14	1.98876e-05
1413.7	2.09395e-05
1422.25	1.50048e-05
1430.81	1.68917e-05
1439.37	1.44842e-05
1447.93	1.03217e-05
1456.48	1.72379e-05
1465.04	1.63571e-05
1473.6	1.95101e-05
1482.16	1.26855e-05
1490.71	1.36471e-05
1499.27	1.32498e-05
1507.83	9.94486e-06
1516.39	9.41206e-06
1524.94	8.41835e-06
1533.5	7.70603e-06
1542.06	9.78185e-06
1550.62	6.64881e-06
1559.18	5.96451e-06
1567.73	4.46132e-06
1576.29	6.31254e-06
1584.85	2.5263e-06
1593.41	2.35377e-06
1601.96	1.81007e-06
1610.52	1.29574e-06
1619.08	1.1331e-06
1627.64	1.38858e-06
1636.19	1.1118e-06
1644.75	7.45516e-07
1653.31	5.64657e-06
1661.87	6.71973e-07
1670.42	6.62911e-07
1678.98	6.00222e-07
1687.54	5.90767e-07
1696.1	3.66847e-06
1704.65	1.04602e-06
1713.21	5.36352e-07
1721.77	5.39437e-07
1730.33	6.25826e-07
1738.89	5.31246e-07
1747.44	5.67082e-07
1756	4.88041e-07
1764.56	4.45006e-07
1773.12	8.03558e-07
1781.67	4.6778e-07
1790.23	4.90133e-07
1798.79	4.9151e-07
1807.35	4.84142e-07
1815.9	5.23804e-07
1824.46	5.4762e-07
1833.02	5.07728e-07
1841.58	5.47702e-07
1850.13	4.98491e-07
1858.69	5.37983e-07
1867.25	5.77019e-07
1875.81	5.57528e-07
1884.36	5.38464e-07
1892.92	5.51466e-07
1901.48	4.69595e-07
1910.04	6.00849e-07
1918.6	5.26797e-07
1927.15	4.55471e-07
1935.71	4.70577e-07
1944.27	5.47922e-07
1952.83	4.62552e-07
1961.38	5.47184e-07
1969.94	4.43682e-07
1978.5	4.69662e-07
1987.06	5.63622e-07
1995.61	1.11819e-06
2004.17	1.53477e-06
2012.73	2.23632e-06
2021.29	2.15261e-06
2029.84	2.55488e-06
2038.4	3.4571e-06
2046.96	3.43087e-06
2055.52	2.68491e-06
2064.08	4.20561e-06
2072.63	8.19712e-06
2081.19	8.34137e-06
2089.75	1.72399e-06
2098.31	1.53245e-06
2106.86	1.40203e-06
2115.42	2.46513e-06
2123.98	1.96578e-06
2132.54	1.27765e-06
2141.09	8.31036e-07
2149.65	1.77636e-06
2158.21	1.66287e-06
2166.77	1.3361e-06
2175.32	1.47464e-06
2183.88	1.27269e-06
2192.44	1.16047e-06
2201	1.04392e-06
2209.55	1.26307e-06
2218.11	1.03699e-06
2226.67	9.85332e-07
2235.23	9.66009e-07
2243.79	9.50926e-07
2252.34	1.02529e-06
2260.9	9.62319e-07
2269.46	9.39801e-07
2278.02	1.04112e-06
2286.57	1.05224e-06
2295.13	1.1116e-06
2303.69	1.0579e-06
2312.25	1.2367e-06
2320.8	1.27442e-06
2329.36	1.51278e-06
2337.92	1.45303e-06
2346.48	1.72956e-06
2355.03	1.68465e-06
2363.59	1.6529e-06
2372.15	1.94555e-06
2380.71	1.50436e-06
2389.26	1.61525e-06
2397.82	1.65129e-06
2406.38	1.97073e-06
2414.94	1.83377e-06
2423.5	1.58922e-06
2432.05	1.44318e-06
2440.61	1.33027e-06
2449.17	1.27517e-06
2457.73	1.25944e-06
2466.28	1.23138e-06
2474.84	1.08531e-06
2483.4	1.12203e-06
2491.96	1.08205e-06
2500.51	1.23405e-06
2509.07	1.20165e-06
2517.63	1.12848e-06
2526.19	1.3996e-06
2534.74	1.38906e-06
2543.3	1.32264e-06
2551.86	1.29367e-06
2560.42	1.5162e-06
2568.98	1.46434e-06
2577.53	1.60522e-06
2586.09	2.03017e-06
2594.65	2.63293e-06
2603.21	2.19929e-06
2611.76	2.34736e-06
2620.32	2.5083e-06
2628.88	2.54079e-06
2637.44	2.24496e-06
2645.99	2.40689e-06
2654.55	2.2338e-06
2663.11	2.01457e-06
2671.67	2.78533e-06
2680.22	2.59628e-06
2688.78	2.21776e-06
2697.34	2.51668e-06
2705.9	2.43727e-06
2714.45	2.36128e-06
2723.01	2.45738e-06
2731.57	2.61209e-06
2740.13	3.69283e-06
2748.69	4.75969e-06
2757.24	5.24932e-06
2765.8	6.09891e-06
2774.36	7.71896e-06
2782.92	1.00044e-05
2791.47	1.42938e-05
2800.03	2.20644e-05
2808.59	3.29121e-05
2817.15	5.56413e-05
2825.7	5.43039e-05
2834.26	5.43683e-05
2842.82	9.12669e-05
2851.38	4.52751e-05
2859.93	8.23955e-05
2868.49	9.93984e-05
2877.05	7.48897e-05
2885.61	5.97158e-05
2894.16	6.68881e-05
2902.72	8.96525e-05
2911.28	0.000102063
2919.84	0.000138837
2928.4	0.000118529
2936.95	0.000159538
2945.51	0.000137542
2954.07	0.000131921
2962.63	0.000146046
2971.18	0.000150122
2979.74	0.000161828
2988.3	0.000130576
2996.86	9.89561e-05
3005.41	0.000119321
3013.97	7.34925e-05
3022.53	6.28268e-05
3031.09	5.08644e-05
3039.64	3.62721e-05
3048.2	2.98782e-05
3056.76	2.22427e-05
3065.32	1.40619e-05
3073.88	1.14868e-05
3082.43	7.96705e-06
3090.99	4.70818e-06
3099.55	3.66211e-06
3108.11	2.40608e-06
3116.66	1.76617e-06
3125.22	1.32186e-06
3133.78	1.3337e-06
3142.34	1.13019e-06
3150.89	9.8546e-07
3159.45	9.9693e-07
3168.01	9.58752e-07
3176.57	6.9719e-07
3185.12	9.98324e-07
3193.68	1.01433e-06
3202.24	8.623e-07
3210.8	8.81849e-07
3219.35	6.89262e-07
3227.91	7.9397e-07
3236.47	8.92199e-07
3245.03	7.86483e-07
3253.59	6.48763e-07
3262.14	9.06643e-07
3270.7	5.16114e-07
3279.26	6.17284e-07
3287.82	6.62882e-07
3296.37	5.61732e-07
3304.93	5.20825e-07
3313.49	7.00535e-07
3322.05	8.21139e-07
3330.6	6.86647e-07
3339.16	7.27503e-07
3347.72	7.14524e-07
3356.28	5.46773e-07
3364.83	9.08053e-07
3373.39	8.62486e-07
3381.95	8.89558e-07
3390.51	8.84366e-07
3399.06	8.08697e-07
3407.62	1.02812e-06
3416.18	1.0813e-06
3424.74	1.05181e-06
3433.3	1.37629e-06
3441.85	1.40164e-06
3450.41	1.3946e-06
3458.97	2.22149e-06
3467.53	1.26658e-06
3476.08	1.65354e-06
3484.64	2.03391e-06
3493.2	1.96036e-06
3501.76	1.53538e-06
3510.31	1.50972e-06
3518.87	1.57507e-06
3527.43	1.85539e-06
3535.99	1.8785e-06
3544.54	1.66133e-06
3553.1	1.63375e-06
3561.66	2.23543e-06
3570.22	2.29328e-06
3578.78	2.26057e-06
3587.33	3.20414e-06
3595.89	5.70177e-06
3604.45	4.55707e-06
3613.01	8.62822e-06
3621.56	9.55586e-06
3630.12	1.07198e-05
3638.68	1.96555e-05
3647.24	2.51364e-05
3655.79	3.16507e-05
3664.35	3.71174e-05
3672.91	4.52622e-05
3681.47	7.98674e-05
3690.02	2.98639e-05
3698.58	4.55525e-05
3707.14	4.73489e-05
3715.7	3.59745e-05
3724.25	2.51172e-05
3732.81	1.86301e-05
3741.37	9.19718e-06
3749.93	9.09737e-06
3758.49	1.21013e-05
3767.04	4.79823e-06
3775.6	2.92745e-06
3784.16	3.17758e-06
3792.72	3.07832e-06
3801.27	5.54848e-06
3809.83	3.20679e-06
3818.39	2.18445e-06
3826.95	3.09523e-06
3835.5	2.58352e-06
3844.06	2.59786e-06
3852.62	3.70416e-06
3861.18	2.23962e-06
3869.73	3.89796e-06
3878.29	2.08865e-06
3886.85	3.11219e-06
3895.41	3.2454e-06
3903.96	3.48429e-06
3912.52	2.04837e-06
3921.08	3.16723e-06
3929.64	2.36833e-06
3938.2	2.59323e-06
3946.75	3.02909e-06
3955.31	2.52304e-06
3963.87	2.84025e-06
3972.43	2.43427e-06
