Infrared Spectrum: Methanol
Formula: C H3 O H
CAS: 67-56-1
State: gas
Melting point: -93.9 C
Boiling point: 64.96 C
Class: IUPAC A
Instrument: IFS66V (Bruker)
Instrument parameters: KBr Beam splitter; MCT Detector; Multipass cell
Sampling: 1 L/min Flow
Resolution: 1.9290
Temperature: 23 C
Pressure: 101.3 kPa
Origin: NIST, Anayltical Chemistry Division, 301-975-3108
cm-1	(micromol/mol)-1m-1 (base 10)
574.687	4.42755e-06
583.365	3.20852e-06
592.043	2.30138e-06
600.721	2.2965e-06
609.4	1.89338e-06
618.078	2.60526e-06
626.756	1.1902e-06
635.434	1.4684e-06
644.112	2.08617e-06
652.79	1.93213e-06
661.469	1.41292e-06
670.147	1.39933e-06
678.825	1.35134e-06
687.503	1.33884e-06
696.181	1.61655e-06
704.859	1.26348e-06
713.537	1.41256e-06
722.216	1.40905e-06
730.894	1.11336e-06
739.572	9.51296e-07
748.25	1.21511e-06
756.928	1.21807e-06
765.606	1.06992e-06
774.285	1.00167e-06
782.963	6.38448e-07
791.641	8.85143e-07
800.319	8.02058e-07
808.997	9.39099e-07
817.675	8.88876e-07
826.353	9.51162e-07
835.032	7.39458e-07
843.71	1.10126e-06
852.388	9.26109e-07
861.066	1.32835e-06
869.744	1.08202e-06
878.422	1.34955e-06
887.101	1.10933e-06
895.779	1.56893e-06
904.457	1.30256e-06
913.135	2.12952e-06
921.813	2.17265e-06
930.491	3.22166e-06
939.169	3.70423e-06
947.848	4.67882e-06
956.526	6.30443e-06
965.204	1.28772e-05
973.882	2.65811e-05
982.56	5.53437e-05
991.238	9.87442e-05
999.917	0.000171998
1008.59	0.000228753
1017.27	0.000228104
1025.95	0.000122186
1034.63	0.000377626
1043.31	0.000171116
1051.99	0.000330806
1060.66	0.000296363
1069.34	0.000146169
1078.02	4.02363e-05
1086.7	1.12251e-05
1095.38	9.80939e-06
1104.05	8.403e-06
1112.73	8.63278e-06
1121.41	7.10416e-06
1130.09	6.30123e-06
1138.77	5.17747e-06
1147.45	5.37745e-06
1156.12	4.56138e-06
1164.8	5.61822e-06
1173.48	4.38258e-06
1182.16	5.81898e-06
1190.84	6.34166e-06
1199.51	8.13783e-06
1208.19	1.04137e-05
1216.87	9.89599e-06
1225.55	1.22332e-05
1234.23	1.11776e-05
1242.9	1.16523e-05
1251.58	1.28671e-05
1260.26	1.40084e-05
1268.94	1.49224e-05
1277.62	1.41083e-05
1286.3	1.57182e-05
1294.97	2.04235e-05
1303.65	2.38022e-05
1312.33	2.6222e-05
1321.01	3.51635e-05
1329.69	2.91974e-05
1338.36	2.87908e-05
1347.04	4.14772e-05
1355.72	3.10656e-05
1364.4	2.85945e-05
1373.08	2.90543e-05
1381.76	2.3556e-05
1390.43	2.27476e-05
1399.11	2.21223e-05
1407.79	1.7036e-05
1416.47	1.69803e-05
1425.15	1.73984e-05
1433.82	1.6568e-05
1442.5	1.20129e-05
1451.18	1.19864e-05
1459.86	1.50489e-05
1468.54	1.55277e-05
1477.22	2.00354e-05
1485.89	1.22272e-05
1494.57	9.96622e-06
1503.25	9.05787e-06
1511.93	1.04215e-05
1520.61	9.81321e-06
1529.28	8.44529e-06
1537.96	8.24748e-06
1546.64	6.7223e-06
1555.32	5.9385e-06
1564	4.80631e-06
1572.67	3.63657e-06
1581.35	2.80439e-06
1590.03	2.32029e-06
1598.71	1.99019e-06
1607.39	1.50177e-06
1616.07	2.05848e-06
1624.74	1.15155e-06
1633.42	9.4667e-07
1642.1	7.5797e-07
1650.78	9.06913e-07
1659.46	6.51092e-07
1668.13	8.86118e-07
1676.81	7.06959e-07
1685.49	1.72278e-06
1694.17	7.08047e-07
1702.85	6.44339e-07
1711.53	5.13141e-07
1720.2	5.8876e-07
1728.88	5.65821e-07
1737.56	5.52229e-07
1746.24	5.52287e-07
1754.92	5.06933e-07
1763.59	4.84995e-07
1772.27	1.1637e-06
1780.95	5.503e-07
1789.63	5.36194e-07
1798.31	5.02695e-07
1806.98	4.91247e-07
1815.66	4.68196e-07
1824.34	6.31598e-07
1833.02	4.98092e-07
1841.7	5.4885e-07
1850.38	4.88768e-07
1859.05	5.34842e-07
1867.73	6.27998e-07
1876.41	5.3507e-07
1885.09	5.07519e-07
1893.77	5.36875e-07
1902.44	4.70733e-07
1911.12	5.23911e-07
1919.8	4.68096e-07
1928.48	4.95677e-07
1937.16	4.57774e-07
1945.84	4.73258e-07
1954.51	3.99446e-07
1963.19	4.09535e-07
1971.87	3.93597e-07
1980.55	5.26024e-07
1989.23	7.02056e-07
1997.9	1.185e-06
2006.58	1.75588e-06
2015.26	2.54325e-06
2023.94	3.35334e-06
2032.62	4.04879e-06
2041.3	3.68612e-06
2049.97	4.75174e-06
2058.65	2.42922e-06
2067.33	6.15853e-06
2076.01	9.23071e-06
2084.69	5.31026e-06
2093.36	2.02065e-06
2102.04	1.03838e-06
2110.72	1.75065e-06
2119.4	2.13912e-06
2128.08	1.52315e-06
2136.75	9.28997e-07
2145.43	8.37838e-07
2154.11	1.16599e-06
2162.79	1.21401e-06
2171.47	1.29789e-06
2180.15	1.45168e-06
2188.82	1.21189e-06
2197.5	1.10213e-06
2206.18	1.06274e-06
2214.86	1.03308e-06
2223.54	1.01776e-06
2232.21	9.78581e-07
2240.89	8.84474e-07
2249.57	9.14005e-07
2258.25	9.03744e-07
2266.93	9.37644e-07
2275.61	9.65648e-07
2284.28	1.00302e-06
2292.96	1.103e-06
2301.64	1.15543e-06
2310.32	1.19712e-06
2319	1.22874e-06
2327.67	1.402e-06
2336.35	1.36493e-06
2345.03	1.67067e-06
2353.71	1.5382e-06
2362.39	1.75021e-06
2371.06	1.77477e-06
2379.74	1.72488e-06
2388.42	1.66028e-06
2397.1	1.60501e-06
2405.78	1.98583e-06
2414.46	1.85812e-06
2423.13	1.5844e-06
2431.81	1.43582e-06
2440.49	1.39849e-06
2449.17	1.30585e-06
2457.85	1.20732e-06
2466.52	1.17912e-06
2475.2	1.0981e-06
2483.88	1.16126e-06
2492.56	1.13725e-06
2501.24	1.13698e-06
2509.92	1.13468e-06
2518.59	1.20575e-06
2527.27	1.37056e-06
2535.95	1.33206e-06
2544.63	1.34591e-06
2553.31	1.50402e-06
2561.98	1.50308e-06
2570.66	1.60373e-06
2579.34	1.7292e-06
2588.02	1.98413e-06
2596.7	2.24807e-06
2605.38	2.16751e-06
2614.05	2.38667e-06
2622.73	2.55116e-06
2631.41	2.80842e-06
2640.09	2.39173e-06
2648.77	2.45028e-06
2657.44	2.26209e-06
2666.12	2.41477e-06
2674.8	2.24806e-06
2683.48	2.26962e-06
2692.16	2.18147e-06
2700.83	2.36946e-06
2709.51	2.44689e-06
2718.19	2.33388e-06
2726.87	2.95041e-06
2735.55	3.32172e-06
2744.23	3.97162e-06
2752.9	4.86505e-06
2761.58	5.40303e-06
2770.26	7.00408e-06
2778.94	8.68423e-06
2787.62	1.18129e-05
2796.29	1.72676e-05
2804.97	2.80266e-05
2813.65	4.44936e-05
2822.33	6.04207e-05
2831.01	5.94048e-05
2839.69	5.68634e-05
2848.36	5.76925e-05
2857.04	7.37491e-05
2865.72	9.59154e-05
2874.4	8.46413e-05
2883.08	6.72635e-05
2891.75	6.83837e-05
2900.43	7.79006e-05
2909.11	0.000103053
2917.79	0.000118481
2926.47	0.000124028
2935.14	0.000139791
2943.82	0.00013991
2952.5	0.00014081
2961.18	0.000128385
2969.86	0.000140265
2978.54	0.000137406
2987.21	0.000123349
2995.89	9.79585e-05
3004.57	8.62255e-05
3013.25	7.30314e-05
3021.93	5.99018e-05
3030.6	4.97547e-05
3039.28	3.60928e-05
3047.96	2.79297e-05
3056.64	2.10478e-05
3065.32	1.67985e-05
3074	1.10458e-05
3082.67	7.66894e-06
3091.35	5.21532e-06
3100.03	3.52769e-06
3108.71	2.50658e-06
3117.39	1.86754e-06
3126.06	1.43306e-06
3134.74	1.2301e-06
3143.42	1.22435e-06
3152.1	9.55358e-07
3160.78	1.10516e-06
3169.46	9.29499e-07
3178.13	1.00541e-06
3186.81	9.65846e-07
3195.49	8.92381e-07
3204.17	8.92545e-07
3212.85	8.90533e-07
3221.52	8.50983e-07
3230.2	7.57004e-07
3238.88	7.62572e-07
3247.56	7.59539e-07
3256.24	6.95343e-07
3264.91	6.67067e-07
3273.59	5.85195e-07
3282.27	6.40734e-07
3290.95	5.68515e-07
3299.63	6.11876e-07
3308.31	5.97671e-07
3316.98	6.42009e-07
3325.66	6.02654e-07
3334.34	6.21723e-07
3343.02	7.1653e-07
3351.7	7.37547e-07
3360.37	7.07304e-07
3369.05	6.87968e-07
3377.73	1.02046e-06
3386.41	9.03585e-07
3395.09	9.6174e-07
3403.77	1.12095e-06
3412.44	1.00393e-06
3421.12	1.12252e-06
3429.8	1.27719e-06
3438.48	1.25805e-06
3447.16	1.21533e-06
3455.83	1.19948e-06
3464.51	1.47712e-06
3473.19	1.36117e-06
3481.87	2.38654e-06
3490.55	1.75322e-06
3499.22	1.88073e-06
3507.9	1.52135e-06
3516.58	1.49509e-06
3525.26	1.93075e-06
3533.94	2.37645e-06
3542.62	1.58082e-06
3551.29	1.85643e-06
3559.97	2.0543e-06
3568.65	3.61656e-06
3577.33	3.50906e-06
3586.01	3.68011e-06
3594.68	4.47838e-06
3603.36	4.14961e-06
3612.04	6.26015e-06
3620.72	9.24703e-06
3629.4	1.27705e-05
3638.08	1.75977e-05
3646.75	2.42492e-05
3655.43	3.49967e-05
3664.11	4.42624e-05
3672.79	4.13072e-05
3681.47	6.62376e-05
3690.14	2.84941e-05
3698.82	4.39115e-05
3707.5	4.51308e-05
3716.18	3.72128e-05
3724.86	2.50025e-05
3733.54	1.75005e-05
3742.21	9.29038e-06
3750.89	7.49131e-06
3759.57	7.13692e-06
3768.25	4.49529e-06
3776.93	3.55952e-06
3785.6	2.69521e-06
3794.28	2.60911e-06
3802.96	2.69736e-06
3811.64	4.01634e-06
3820.32	2.55208e-06
3828.99	2.33656e-06
3837.67	3.61432e-06
3846.35	2.39068e-06
3855.03	4.2154e-06
3863.71	3.0699e-06
3872.39	3.45918e-06
3881.06	2.53299e-06
3889.74	3.9581e-06
3898.42	3.53156e-06
3907.1	2.3451e-06
3915.78	2.35873e-06
3924.45	2.54454e-06
3933.13	2.71051e-06
3941.81	2.70125e-06
3950.49	2.45304e-06
3959.17	2.44751e-06
3967.85	2.64544e-06
