Infrared Spectrum: Methanol
Formula: C H3 O H
CAS: 67-56-1
State: gas
Melting point: -93.9 C
Boiling point: 64.96 C
Class: IUPAC A
Instrument: IFS66V (Bruker)
Instrument parameters: KBr Beam splitter; MCT Detector; Multipass cell
Sampling: 1 L/min Flow
Resolution: 0.4820
Temperature: 23 C
Pressure: 101.3 kPa
Origin: NIST, Anayltical Chemistry Division, 301-975-3108
cm-1	(micromol/mol)-1m-1 (base 10)
574.928	2.44429e-06
583.606	2.09577e-06
592.284	3.0127e-06
600.962	1.5238e-06
609.641	2.21954e-06
618.319	1.55061e-06
626.997	1.09506e-06
635.675	1.41908e-06
644.353	2.32089e-06
653.031	2.10312e-06
661.71	1.24068e-06
670.388	1.27485e-06
679.066	1.01299e-06
687.744	1.09132e-06
696.422	1.57171e-06
705.1	1.16101e-06
713.778	1.50863e-06
722.457	1.09846e-06
731.135	1.24155e-06
739.813	8.36354e-07
748.491	1.636e-06
757.169	1.07106e-06
765.847	9.16877e-07
774.526	8.44687e-07
783.204	6.79182e-07
791.882	6.9089e-07
800.56	7.62491e-07
809.238	7.33307e-07
817.916	8.57835e-07
826.594	8.50644e-07
835.273	7.2375e-07
843.951	1.06515e-06
852.629	1.06454e-06
861.307	9.2806e-07
869.985	1.10447e-06
878.663	1.21637e-06
887.342	1.29263e-06
896.02	1.31254e-06
904.698	1.44028e-06
913.376	2.00358e-06
922.054	2.56626e-06
930.732	3.27528e-06
939.41	4.36142e-06
948.089	4.39295e-06
956.767	5.67899e-06
965.445	1.25746e-05
974.123	2.72551e-05
982.801	3.6511e-05
991.479	8.35837e-05
1000.16	0.000200492
1008.84	0.000140034
1017.51	0.000265477
1026.19	0.000124371
1034.87	0.000118546
1043.55	0.000204969
1052.23	0.000396449
1060.9	0.000279459
1069.58	0.000140192
1078.26	3.98398e-05
1086.94	1.16194e-05
1095.62	9.14387e-06
1104.3	8.44316e-06
1112.97	7.65606e-06
1121.65	6.72015e-06
1130.33	5.67753e-06
1139.01	4.83413e-06
1147.69	5.76056e-06
1156.36	4.05345e-06
1165.04	5.7478e-06
1173.72	4.26023e-06
1182.4	5.9827e-06
1191.08	5.86017e-06
1199.76	7.36671e-06
1208.43	9.80637e-06
1217.11	8.699e-06
1225.79	1.28925e-05
1234.47	8.46906e-06
1243.15	1.23734e-05
1251.82	1.28888e-05
1260.5	1.46993e-05
1269.18	1.61862e-05
1277.86	1.30185e-05
1286.54	1.57707e-05
1295.21	1.92138e-05
1303.89	2.65129e-05
1312.57	2.80745e-05
1321.25	3.10986e-05
1329.93	2.70205e-05
1338.61	2.68074e-05
1347.28	5.16426e-05
1355.96	2.71538e-05
1364.64	3.14044e-05
1373.32	2.69974e-05
1382	2.26947e-05
1390.67	2.19437e-05
1399.35	2.18304e-05
1408.03	1.76596e-05
1416.71	1.74709e-05
1425.39	1.60486e-05
1434.07	1.51014e-05
1442.74	1.1975e-05
1451.42	1.16905e-05
1460.1	1.44804e-05
1468.78	1.68671e-05
1477.46	2.32206e-05
1486.13	1.28751e-05
1494.81	1.08537e-05
1503.49	8.76641e-06
1512.17	9.34188e-06
1520.85	9.86637e-06
1529.52	7.76033e-06
1538.2	8.35232e-06
1546.88	6.35914e-06
1555.56	5.46353e-06
1564.24	5.82783e-06
1572.92	3.35284e-06
1581.59	2.17879e-06
1590.27	2.29084e-06
1598.95	2.24009e-06
1607.63	1.39379e-06
1616.31	1.94975e-06
1624.98	1.02928e-06
1633.66	9.12997e-07
1642.34	8.29338e-07
1651.02	7.75262e-07
1659.7	6.88971e-07
1668.38	8.97799e-07
1677.05	6.54778e-07
1685.73	7.76728e-07
1694.41	6.68408e-07
1703.09	5.77972e-07
1711.77	4.60502e-07
1720.44	4.90644e-07
1729.12	5.35169e-07
1737.8	5.33645e-07
1746.48	5.46867e-07
1755.16	4.84596e-07
1763.84	5.33107e-07
1772.51	1.8262e-06
1781.19	4.83134e-07
1789.87	4.96822e-07
1798.55	5.06711e-07
1807.23	4.69068e-07
1815.9	5.17154e-07
1824.58	5.59451e-07
1833.26	5.58842e-07
1841.94	5.47729e-07
1850.62	4.761e-07
1859.29	5.13778e-07
1867.97	7.4674e-07
1876.65	5.08158e-07
1885.33	5.31884e-07
1894.01	4.99668e-07
1902.69	4.68569e-07
1911.36	4.92536e-07
1920.04	4.69786e-07
1928.72	5.02049e-07
1937.4	4.48837e-07
1946.08	4.5894e-07
1954.75	3.88121e-07
1963.43	3.48591e-07
1972.11	3.6492e-07
1980.79	4.39515e-07
1989.47	6.47922e-07
1998.15	1.30232e-06
2006.82	1.67872e-06
2015.5	3.04907e-06
2024.18	3.72445e-06
2032.86	4.74945e-06
2041.54	3.66829e-06
2050.21	4.8778e-06
2058.89	2.28521e-06
2067.57	6.65619e-06
2076.25	9.48199e-06
2084.93	5.12978e-06
2093.6	2.30153e-06
2102.28	9.8166e-07
2110.96	1.65379e-06
2119.64	2.28098e-06
2128.32	1.49724e-06
2137	8.17817e-07
2145.67	7.50957e-07
2154.35	1.18437e-06
2163.03	1.15645e-06
2171.71	1.26473e-06
2180.39	1.35122e-06
2189.06	1.18436e-06
2197.74	1.06467e-06
2206.42	1.1631e-06
2215.1	1.05659e-06
2223.78	9.92486e-07
2232.46	9.68045e-07
2241.13	8.39019e-07
2249.81	8.84916e-07
2258.49	8.93938e-07
2267.17	9.25839e-07
2275.85	9.46275e-07
2284.52	1.01584e-06
2293.2	1.05328e-06
2301.88	1.12162e-06
2310.56	1.1955e-06
2319.24	1.28903e-06
2327.92	1.37095e-06
2336.59	1.31544e-06
2345.27	1.72239e-06
2353.95	1.47246e-06
2362.63	1.86548e-06
2371.31	1.84855e-06
2379.98	1.78743e-06
2388.66	1.7103e-06
2397.34	1.5759e-06
2406.02	1.97256e-06
2414.7	1.87663e-06
2423.37	1.59599e-06
2432.05	1.43463e-06
2440.73	1.44384e-06
2449.41	1.25829e-06
2458.09	1.20486e-06
2466.77	1.13147e-06
2475.44	1.10771e-06
2484.12	1.13496e-06
2492.8	1.10783e-06
2501.48	1.11249e-06
2510.16	1.11602e-06
2518.83	1.23788e-06
2527.51	1.43847e-06
2536.19	1.31713e-06
2544.87	1.33565e-06
2553.55	1.5302e-06
2562.23	1.51469e-06
2570.9	1.5507e-06
2579.58	1.71008e-06
2588.26	1.99775e-06
2596.94	2.29769e-06
2605.62	2.34663e-06
2614.29	2.37167e-06
2622.97	2.60615e-06
2631.65	3.13051e-06
2640.33	2.43778e-06
2649.01	2.50853e-06
2657.68	2.26454e-06
2666.36	2.34274e-06
2675.04	2.2371e-06
2683.72	2.13166e-06
2692.4	2.18947e-06
2701.08	2.28881e-06
2709.75	2.43063e-06
2718.43	2.28225e-06
2727.11	2.98669e-06
2735.79	3.24174e-06
2744.47	4.13588e-06
2753.14	4.87563e-06
2761.82	5.22931e-06
2770.5	6.92891e-06
2779.18	9.1162e-06
2787.86	1.19198e-05
2796.54	1.78053e-05
2805.21	2.77571e-05
2813.89	4.51036e-05
2822.57	6.21619e-05
2831.25	5.7284e-05
2839.93	5.87916e-05
2848.6	5.81273e-05
2857.28	7.94184e-05
2865.96	9.25627e-05
2874.64	8.34702e-05
2883.32	6.95815e-05
2892	7.08251e-05
2900.67	7.88345e-05
2909.35	0.000106698
2918.03	0.000117124
2926.71	0.000117889
2935.39	0.000143153
2944.06	0.000141321
2952.74	0.00013537
2961.42	0.000124834
2970.1	0.000138499
2978.78	0.000131536
2987.45	0.000111643
2996.13	9.87773e-05
3004.81	7.67781e-05
3013.49	6.79003e-05
3022.17	6.21153e-05
3030.85	4.51354e-05
3039.52	3.73529e-05
3048.2	2.84676e-05
3056.88	2.10835e-05
3065.56	1.57104e-05
3074.24	1.12879e-05
3082.91	7.77486e-06
3091.59	5.76319e-06
3100.27	3.43515e-06
3108.95	2.38314e-06
3117.63	1.85576e-06
3126.31	1.35995e-06
3134.98	1.18996e-06
3143.66	1.32747e-06
3152.34	8.49733e-07
3161.02	1.21023e-06
3169.7	9.88179e-07
3178.37	9.82648e-07
3187.05	1.04199e-06
3195.73	8.62806e-07
3204.41	8.72519e-07
3213.09	7.92952e-07
3221.77	8.56798e-07
3230.44	7.85001e-07
3239.12	8.80754e-07
3247.8	7.90474e-07
3256.48	7.40823e-07
3265.16	7.0949e-07
3273.83	5.55564e-07
3282.51	6.33523e-07
3291.19	6.65023e-07
3299.87	5.99328e-07
3308.55	5.96744e-07
3317.22	7.35019e-07
3325.9	7.16503e-07
3334.58	5.9352e-07
3343.26	7.69663e-07
3351.94	7.57993e-07
3360.62	8.23389e-07
3369.29	6.66523e-07
3377.97	1.24624e-06
3386.65	8.4142e-07
3395.33	9.45022e-07
3404.01	1.23126e-06
3412.68	9.9788e-07
3421.36	1.09436e-06
3430.04	1.19609e-06
3438.72	1.15593e-06
3447.4	1.10253e-06
3456.08	1.24784e-06
3464.75	1.58739e-06
3473.43	1.29734e-06
3482.11	2.02318e-06
3490.79	1.89148e-06
3499.47	1.84492e-06
3508.14	1.48241e-06
3516.82	1.67305e-06
3525.5	1.36019e-06
3534.18	2.12153e-06
3542.86	1.64515e-06
3551.53	1.73471e-06
3560.21	2.05848e-06
3568.89	2.30076e-06
3577.57	3.69274e-06
3586.25	4.41439e-06
3594.93	4.11787e-06
3603.6	3.7652e-06
3612.28	5.79951e-06
3620.96	9.62758e-06
3629.64	1.33851e-05
3638.32	1.82165e-05
3646.99	2.3408e-05
3655.67	3.15754e-05
3664.35	3.74126e-05
3673.03	4.28315e-05
3681.71	6.24973e-05
3690.39	2.8289e-05
3699.06	4.15574e-05
3707.74	3.92565e-05
3716.42	3.92675e-05
3725.1	2.51736e-05
3733.78	1.759e-05
3742.45	1.04054e-05
3751.13	5.68776e-06
3759.81	5.62485e-06
3768.49	4.45093e-06
3777.17	3.28679e-06
3785.85	3.05516e-06
3794.52	2.73261e-06
3803.2	2.75923e-06
3811.88	3.26982e-06
3820.56	3.05607e-06
3829.24	2.16724e-06
3837.91	5.66807e-06
3846.59	2.37384e-06
3855.27	2.61646e-06
3863.95	2.74019e-06
3872.63	3.71445e-06
3881.3	2.39412e-06
3889.98	5.11782e-06
3898.66	3.42409e-06
3907.34	2.22564e-06
3916.02	2.36613e-06
3924.7	2.33406e-06
3933.37	2.87469e-06
3942.05	2.66717e-06
3950.73	2.3365e-06
3959.41	2.34415e-06
3968.09	2.59247e-06
