Infrared Spectrum: Methanol
Formula: C H3 O H
CAS: 67-56-1
State: gas
Melting point: -93.9 C
Boiling point: 64.96 C
Class: IUPAC A
Instrument: IFS66V (Bruker)
Instrument parameters: KBr Beam splitter; MCT Detector; Multipass cell
Sampling: 1 L/min Flow
Resolution: 0.4820
Temperature: 23 C
Pressure: 101.3 kPa
Origin: NIST, Anayltical Chemistry Division, 301-975-3108
cm-1	(micromol/mol)-1m-1 (base 10)
574.928	1.98512e-06
583.606	1.60723e-06
592.284	3.86426e-06
600.962	1.63563e-06
609.641	2.70551e-06
618.319	1.57106e-06
626.997	1.38505e-06
635.675	1.50747e-06
644.353	2.62852e-06
653.031	2.14346e-06
661.71	1.04486e-06
670.388	1.20084e-06
679.066	9.78697e-07
687.744	8.81927e-07
696.422	1.54192e-06
705.1	1.18949e-06
713.778	1.53996e-06
722.457	1.03978e-06
731.135	1.20944e-06
739.813	7.6549e-07
748.491	2.0955e-06
757.169	1.20527e-06
765.847	9.16571e-07
774.526	8.18468e-07
783.204	8.32684e-07
791.882	9.04484e-07
800.56	9.08104e-07
809.238	7.58533e-07
817.916	9.63315e-07
826.594	9.67936e-07
835.273	9.81156e-07
843.951	1.24475e-06
852.629	1.17426e-06
861.307	1.03147e-06
869.985	1.19795e-06
878.663	1.31169e-06
887.342	1.46219e-06
896.02	1.48215e-06
904.698	1.63229e-06
913.376	2.24191e-06
922.054	3.02894e-06
930.732	3.73471e-06
939.41	4.73525e-06
948.089	4.48513e-06
956.767	6.10569e-06
965.445	1.35132e-05
974.123	2.76952e-05
982.801	3.09709e-05
991.479	8.84381e-05
1000.16	0.000183197
1008.84	0.000108106
1017.51	0.000289175
1026.19	0.00013649
1034.87	9.89229e-05
1043.55	0.000229323
1052.23	0.000448068
1060.9	0.000282942
1069.58	0.000126395
1078.26	4.15291e-05
1086.94	1.16934e-05
1095.62	8.63899e-06
1104.3	8.77565e-06
1112.97	7.10808e-06
1121.65	6.38226e-06
1130.33	5.31002e-06
1139.01	4.70528e-06
1147.69	5.57408e-06
1156.36	3.87788e-06
1165.04	5.64411e-06
1173.72	3.93979e-06
1182.4	5.3975e-06
1191.08	5.67045e-06
1199.76	7.18527e-06
1208.43	8.52726e-06
1217.11	8.35089e-06
1225.79	1.31063e-05
1234.47	8.33091e-06
1243.15	1.21997e-05
1251.82	1.37548e-05
1260.5	1.47931e-05
1269.18	1.54135e-05
1277.86	1.24183e-05
1286.54	1.56945e-05
1295.21	1.97307e-05
1303.89	3.03123e-05
1312.57	2.98795e-05
1321.25	3.06476e-05
1329.93	2.44403e-05
1338.61	2.84036e-05
1347.28	5.41646e-05
1355.96	2.46639e-05
1364.64	3.1529e-05
1373.32	2.5664e-05
1382	2.1869e-05
1390.67	2.30106e-05
1399.35	2.23152e-05
1408.03	1.77381e-05
1416.71	1.63034e-05
1425.39	1.50638e-05
1434.07	1.43077e-05
1442.74	1.21816e-05
1451.42	1.20815e-05
1460.1	1.35273e-05
1468.78	1.69889e-05
1477.46	2.32588e-05
1486.13	1.3092e-05
1494.81	1.14599e-05
1503.49	8.55861e-06
1512.17	9.89221e-06
1520.85	9.54091e-06
1529.52	7.88847e-06
1538.2	8.21938e-06
1546.88	6.31839e-06
1555.56	5.6439e-06
1564.24	6.34411e-06
1572.92	2.95724e-06
1581.59	2.04114e-06
1590.27	2.18101e-06
1598.95	2.37033e-06
1607.63	1.28169e-06
1616.31	1.26849e-06
1624.98	9.21928e-07
1633.66	9.15187e-07
1642.34	7.96637e-07
1651.02	6.01491e-07
1659.7	6.84549e-07
1668.38	9.83808e-07
1677.05	6.67653e-07
1685.73	5.64997e-07
1694.41	7.5102e-07
1703.09	3.90959e-07
1711.77	3.95261e-07
1720.44	5.27355e-07
1729.12	4.45623e-07
1737.8	5.83722e-07
1746.48	5.90888e-07
1755.16	4.20748e-07
1763.84	4.95958e-07
1772.51	1.64849e-06
1781.19	4.28241e-07
1789.87	4.93558e-07
1798.55	5.16454e-07
1807.23	4.45597e-07
1815.9	4.78872e-07
1824.58	5.67891e-07
1833.26	5.5417e-07
1841.94	4.60786e-07
1850.62	4.35497e-07
1859.29	5.02219e-07
1867.97	7.52883e-07
1876.65	4.69011e-07
1885.33	5.62179e-07
1894.01	4.67107e-07
1902.69	4.76529e-07
1911.36	4.44162e-07
1920.04	4.4228e-07
1928.72	5.27484e-07
1937.4	4.47818e-07
1946.08	4.30045e-07
1954.75	3.11597e-07
1963.43	2.83288e-07
1972.11	2.96932e-07
1980.79	4.13883e-07
1989.47	5.99156e-07
1998.15	1.36612e-06
2006.82	1.67755e-06
2015.5	2.90298e-06
2024.18	4.2303e-06
2032.86	4.66999e-06
2041.54	3.89915e-06
2050.21	4.76755e-06
2058.89	2.2065e-06
2067.57	6.73791e-06
2076.25	9.79519e-06
2084.93	5.04036e-06
2093.6	2.33453e-06
2102.28	9.21724e-07
2110.96	1.7963e-06
2119.64	2.42299e-06
2128.32	1.64797e-06
2137	8.04922e-07
2145.67	7.01424e-07
2154.35	1.03075e-06
2163.03	1.15485e-06
2171.71	1.28001e-06
2180.39	1.37776e-06
2189.06	1.21791e-06
2197.74	1.00369e-06
2206.42	1.23888e-06
2215.1	1.08619e-06
2223.78	9.5473e-07
2232.46	9.48707e-07
2241.13	8.38533e-07
2249.81	7.9697e-07
2258.49	9.03713e-07
2267.17	8.70389e-07
2275.85	9.48274e-07
2284.52	9.98809e-07
2293.2	1.0585e-06
2301.88	1.14168e-06
2310.56	1.22291e-06
2319.24	1.31739e-06
2327.92	1.41315e-06
2336.59	1.29647e-06
2345.27	1.71567e-06
2353.95	1.41871e-06
2362.63	1.9003e-06
2371.31	1.82314e-06
2379.98	1.85953e-06
2388.66	1.73321e-06
2397.34	1.57709e-06
2406.02	2.00566e-06
2414.7	1.90218e-06
2423.37	1.55073e-06
2432.05	1.42058e-06
2440.73	1.42475e-06
2449.41	1.20486e-06
2458.09	1.18105e-06
2466.77	1.1445e-06
2475.44	1.13604e-06
2484.12	1.12568e-06
2492.8	1.07994e-06
2501.48	1.15584e-06
2510.16	1.15966e-06
2518.83	1.23916e-06
2527.51	1.52068e-06
2536.19	1.37986e-06
2544.87	1.35672e-06
2553.55	1.52549e-06
2562.23	1.5156e-06
2570.9	1.50353e-06
2579.58	1.69401e-06
2588.26	1.9696e-06
2596.94	2.37195e-06
2605.62	2.37898e-06
2614.29	2.47381e-06
2622.97	2.63527e-06
2631.65	3.21798e-06
2640.33	2.50488e-06
2649.01	2.4473e-06
2657.68	2.31965e-06
2666.36	2.22995e-06
2675.04	2.21206e-06
2683.72	2.08142e-06
2692.4	2.1621e-06
2701.08	2.23045e-06
2709.75	2.38796e-06
2718.43	2.30415e-06
2727.11	2.98643e-06
2735.79	3.31568e-06
2744.47	4.0916e-06
2753.14	5.02483e-06
2761.82	5.20067e-06
2770.5	7.02031e-06
2779.18	9.54589e-06
2787.86	1.15041e-05
2796.54	1.7811e-05
2805.21	2.88622e-05
2813.89	4.48108e-05
2822.57	6.46539e-05
2831.25	5.22704e-05
2839.93	6.12144e-05
2848.6	5.84702e-05
2857.28	8.40664e-05
2865.96	9.2328e-05
2874.64	8.04532e-05
2883.32	7.00204e-05
2892	7.25628e-05
2900.67	8.02848e-05
2909.35	0.000107734
2918.03	0.000116407
2926.71	0.000117099
2935.39	0.000145466
2944.06	0.00014579
2952.74	0.000137891
2961.42	0.000119979
2970.1	0.000140039
2978.78	0.000132018
2987.45	0.00010885
2996.13	9.71977e-05
3004.81	7.43616e-05
3013.49	6.68292e-05
3022.17	6.13559e-05
3030.85	4.15848e-05
3039.52	3.94663e-05
3048.2	3.1005e-05
3056.88	2.12633e-05
3065.56	1.65276e-05
3074.24	1.18933e-05
3082.91	7.81861e-06
3091.59	6.04904e-06
3100.27	3.54323e-06
3108.95	2.36657e-06
3117.63	1.69768e-06
3126.31	1.32813e-06
3134.98	1.14071e-06
3143.66	1.33817e-06
3152.34	8.17044e-07
3161.02	1.22221e-06
3169.7	1.00874e-06
3178.37	8.1102e-07
3187.05	1.02231e-06
3195.73	8.6206e-07
3204.41	7.65656e-07
3213.09	7.7896e-07
3221.77	7.54335e-07
3230.44	7.94229e-07
3239.12	8.8748e-07
3247.8	8.02176e-07
3256.48	7.5993e-07
3265.16	7.97335e-07
3273.83	5.04547e-07
3282.51	6.07505e-07
3291.19	7.16434e-07
3299.87	6.39575e-07
3308.55	6.02488e-07
3317.22	8.03433e-07
3325.9	6.88035e-07
3334.58	6.74627e-07
3343.26	7.625e-07
3351.94	7.53876e-07
3360.62	7.89545e-07
3369.29	7.34733e-07
3377.97	1.19302e-06
3386.65	7.65374e-07
3395.33	9.15795e-07
3404.01	1.21617e-06
3412.68	1.01699e-06
3421.36	9.73689e-07
3430.04	1.19684e-06
3438.72	1.13088e-06
3447.4	1.09494e-06
3456.08	1.32689e-06
3464.75	1.69548e-06
3473.43	1.32802e-06
3482.11	1.99531e-06
3490.79	1.97715e-06
3499.47	1.85547e-06
3508.14	1.54206e-06
3516.82	1.93819e-06
3525.5	1.28646e-06
3534.18	1.99454e-06
3542.86	1.72027e-06
3551.53	1.76324e-06
3560.21	2.2398e-06
3568.89	2.26879e-06
3577.57	3.26762e-06
3586.25	4.15325e-06
3594.93	3.74817e-06
3603.6	3.39495e-06
3612.28	5.9433e-06
3620.96	8.8982e-06
3629.64	1.47596e-05
3638.32	1.8146e-05
3646.99	2.30372e-05
3655.67	3.17899e-05
3664.35	3.74634e-05
3673.03	3.99905e-05
3681.71	5.90459e-05
3690.39	2.70341e-05
3699.06	4.02952e-05
3707.74	3.91074e-05
3716.42	4.01858e-05
3725.1	2.55956e-05
3733.78	1.78408e-05
3742.45	1.08696e-05
3751.13	5.53168e-06
3759.81	5.74098e-06
3768.49	4.11937e-06
3777.17	3.30383e-06
3785.85	3.26679e-06
3794.52	2.86849e-06
3803.2	2.46678e-06
3811.88	2.96615e-06
3820.56	3.24291e-06
3829.24	2.14259e-06
3837.91	7.24595e-06
3846.59	2.3798e-06
3855.27	2.24969e-06
3863.95	2.66729e-06
3872.63	3.66697e-06
3881.3	2.36228e-06
3889.98	5.3229e-06
3898.66	3.40647e-06
3907.34	2.13113e-06
3916.02	2.21782e-06
3924.7	2.24354e-06
3933.37	2.9486e-06
3942.05	2.82283e-06
3950.73	2.38313e-06
3959.41	2.28811e-06
3968.09	2.58487e-06
