Infrared Spectrum: Methanol
Formula: C H3 O H
CAS: 67-56-1
State: gas
Melting point: -93.9 C
Boiling point: 64.96 C
Class: IUPAC A
Instrument: IFS66V (Bruker)
Instrument parameters: KBr Beam splitter; MCT Detector; Multipass cell
Sampling: 1 L/min Flow
Resolution: 0.4820
Temperature: 23 C
Pressure: 101.3 kPa
Origin: NIST, Anayltical Chemistry Division, 301-975-3108
cm-1	(micromol/mol)-1m-1 (base 10)
574.928	2.41213e-06
583.606	2.08982e-06
592.284	3.01945e-06
600.962	1.52149e-06
609.641	2.22224e-06
618.319	1.53577e-06
626.997	1.08691e-06
635.675	1.4186e-06
644.353	2.31818e-06
653.031	2.10798e-06
661.71	1.23768e-06
670.388	1.27302e-06
679.066	1.00906e-06
687.744	1.08525e-06
696.422	1.57113e-06
705.1	1.15997e-06
713.778	1.51051e-06
722.457	1.09532e-06
731.135	1.24254e-06
739.813	8.35174e-07
748.491	1.6396e-06
757.169	1.06802e-06
765.847	9.12571e-07
774.526	8.43201e-07
783.204	6.78059e-07
791.882	6.85001e-07
800.56	7.58e-07
809.238	7.28269e-07
817.916	8.54108e-07
826.594	8.49966e-07
835.273	7.19072e-07
843.951	1.06398e-06
852.629	1.06243e-06
861.307	9.25111e-07
869.985	1.1025e-06
878.663	1.21269e-06
887.342	1.29048e-06
896.02	1.30897e-06
904.698	1.43729e-06
913.376	2.00054e-06
922.054	2.5637e-06
930.732	3.27315e-06
939.41	4.36409e-06
948.089	4.38827e-06
956.767	5.667e-06
965.445	1.25742e-05
974.123	2.72467e-05
982.801	3.6184e-05
991.479	8.35222e-05
1000.16	0.000200649
1008.84	0.000138738
1017.51	0.000266143
1026.19	0.000124508
1034.87	0.000117473
1043.55	0.000205621
1052.23	0.00039757
1060.9	0.000279086
1069.58	0.000140343
1078.26	3.9888e-05
1086.94	1.16375e-05
1095.62	9.14479e-06
1104.3	8.43689e-06
1112.97	7.65665e-06
1121.65	6.71048e-06
1130.33	5.67335e-06
1139.01	4.83391e-06
1147.69	5.76884e-06
1156.36	4.0416e-06
1165.04	5.75521e-06
1173.72	4.25859e-06
1182.4	5.98829e-06
1191.08	5.85914e-06
1199.76	7.35427e-06
1208.43	9.79656e-06
1217.11	8.69314e-06
1225.79	1.28926e-05
1234.47	8.43445e-06
1243.15	1.23852e-05
1251.82	1.28882e-05
1260.5	1.47185e-05
1269.18	1.62133e-05
1277.86	1.29945e-05
1286.54	1.57715e-05
1295.21	1.9197e-05
1303.89	2.65542e-05
1312.57	2.81179e-05
1321.25	3.09881e-05
1329.93	2.70142e-05
1338.61	2.67585e-05
1347.28	5.18274e-05
1355.96	2.71384e-05
1364.64	3.14531e-05
1373.32	2.69939e-05
1382	2.26813e-05
1390.67	2.19369e-05
1399.35	2.18186e-05
1408.03	1.76632e-05
1416.71	1.74962e-05
1425.39	1.60018e-05
1434.07	1.50991e-05
1442.74	1.19735e-05
1451.42	1.1686e-05
1460.1	1.44806e-05
1468.78	1.68834e-05
1477.46	2.3259e-05
1486.13	1.28864e-05
1494.81	1.08726e-05
1503.49	8.77085e-06
1512.17	9.33749e-06
1520.85	9.8618e-06
1529.52	7.76023e-06
1538.2	8.3629e-06
1546.88	6.35105e-06
1555.56	5.46377e-06
1564.24	5.84332e-06
1572.92	3.34796e-06
1581.59	2.17046e-06
1590.27	2.29046e-06
1598.95	2.24466e-06
1607.63	1.39151e-06
1616.31	1.93465e-06
1624.98	1.02995e-06
1633.66	9.13785e-07
1642.34	8.30928e-07
1651.02	7.77945e-07
1659.7	6.8893e-07
1668.38	8.99373e-07
1677.05	6.54946e-07
1685.73	7.8009e-07
1694.41	6.67335e-07
1703.09	5.80155e-07
1711.77	4.60242e-07
1720.44	4.89497e-07
1729.12	5.35599e-07
1737.8	5.33503e-07
1746.48	5.44917e-07
1755.16	4.85657e-07
1763.84	5.34962e-07
1772.51	1.83947e-06
1781.19	4.80947e-07
1789.87	4.97038e-07
1798.55	5.06879e-07
1807.23	4.68817e-07
1815.9	5.18306e-07
1824.58	5.57135e-07
1833.26	5.59447e-07
1841.94	5.49377e-07
1850.62	4.76156e-07
1859.29	5.14002e-07
1867.97	7.49056e-07
1876.65	5.08379e-07
1885.33	5.32354e-07
1894.01	5.00276e-07
1902.69	4.68185e-07
1911.36	4.92898e-07
1920.04	4.69702e-07
1928.72	5.0255e-07
1937.4	4.48377e-07
1946.08	4.59627e-07
1954.75	3.88574e-07
1963.43	3.49006e-07
1972.11	3.65379e-07
1980.79	4.39033e-07
1989.47	6.48395e-07
1998.15	1.30185e-06
2006.82	1.67907e-06
2015.5	3.05034e-06
2024.18	3.72555e-06
2032.86	4.76402e-06
2041.54	3.66828e-06
2050.21	4.87899e-06
2058.89	2.28082e-06
2067.57	6.66544e-06
2076.25	9.48746e-06
2084.93	5.13197e-06
2093.6	2.30355e-06
2102.28	9.81198e-07
2110.96	1.64875e-06
2119.64	2.28096e-06
2128.32	1.49777e-06
2137	8.17435e-07
2145.67	7.50911e-07
2154.35	1.18561e-06
2163.03	1.15636e-06
2171.71	1.26397e-06
2180.39	1.34866e-06
2189.06	1.18485e-06
2197.74	1.0654e-06
2206.42	1.1643e-06
2215.1	1.05652e-06
2223.78	9.92577e-07
2232.46	9.67386e-07
2241.13	8.38293e-07
2249.81	8.84537e-07
2258.49	8.93705e-07
2267.17	9.25646e-07
2275.85	9.45238e-07
2284.52	1.01596e-06
2293.2	1.05214e-06
2301.88	1.1214e-06
2310.56	1.1955e-06
2319.24	1.28999e-06
2327.92	1.37096e-06
2336.59	1.31511e-06
2345.27	1.72308e-06
2353.95	1.47265e-06
2362.63	1.86683e-06
2371.31	1.84915e-06
2379.98	1.78897e-06
2388.66	1.71101e-06
2397.34	1.57576e-06
2406.02	1.97152e-06
2414.7	1.87735e-06
2423.37	1.59692e-06
2432.05	1.43595e-06
2440.73	1.44484e-06
2449.41	1.25677e-06
2458.09	1.20505e-06
2466.77	1.13102e-06
2475.44	1.10799e-06
2484.12	1.13474e-06
2492.8	1.10698e-06
2501.48	1.11279e-06
2510.16	1.11446e-06
2518.83	1.23833e-06
2527.51	1.43964e-06
2536.19	1.31683e-06
2544.87	1.33499e-06
2553.55	1.53042e-06
2562.23	1.5149e-06
2570.9	1.54927e-06
2579.58	1.70958e-06
2588.26	1.998e-06
2596.94	2.29888e-06
2605.62	2.34971e-06
2614.29	2.37256e-06
2622.97	2.60698e-06
2631.65	3.13556e-06
2640.33	2.43788e-06
2649.01	2.50687e-06
2657.68	2.26456e-06
2666.36	2.34053e-06
2675.04	2.2362e-06
2683.72	2.12915e-06
2692.4	2.18893e-06
2701.08	2.28774e-06
2709.75	2.42849e-06
2718.43	2.28181e-06
2727.11	2.98594e-06
2735.79	3.24067e-06
2744.47	4.13815e-06
2753.14	4.87357e-06
2761.82	5.22614e-06
2770.5	6.92797e-06
2779.18	9.12018e-06
2787.86	1.19192e-05
2796.54	1.78149e-05
2805.21	2.77353e-05
2813.89	4.5104e-05
2822.57	6.21997e-05
2831.25	5.72544e-05
2839.93	5.88546e-05
2848.6	5.81188e-05
2857.28	7.9425e-05
2865.96	9.25087e-05
2874.64	8.34052e-05
2883.32	6.96431e-05
2892	7.0904e-05
2900.67	7.8897e-05
2909.35	0.000106754
2918.03	0.000117064
2926.71	0.000117793
2935.39	0.000143183
2944.06	0.000141312
2952.74	0.000135315
2961.42	0.000124785
2970.1	0.000138554
2978.78	0.000131443
2987.45	0.00011156
2996.13	9.86921e-05
3004.81	7.65702e-05
3013.49	6.7886e-05
3022.17	6.21388e-05
3030.85	4.50883e-05
3039.52	3.73614e-05
3048.2	2.84974e-05
3056.88	2.10744e-05
3065.56	1.57123e-05
3074.24	1.12899e-05
3082.91	7.77976e-06
3091.59	5.77246e-06
3100.27	3.4324e-06
3108.95	2.38005e-06
3117.63	1.85687e-06
3126.31	1.35964e-06
3134.98	1.19032e-06
3143.66	1.32946e-06
3152.34	8.47721e-07
3161.02	1.2128e-06
3169.7	9.89552e-07
3178.37	9.82278e-07
3187.05	1.04425e-06
3195.73	8.62937e-07
3204.41	8.73631e-07
3213.09	7.92097e-07
3221.77	8.57675e-07
3230.44	7.86676e-07
3239.12	8.83671e-07
3247.8	7.91124e-07
3256.48	7.4138e-07
3265.16	7.11236e-07
3273.83	5.55093e-07
3282.51	6.33767e-07
3291.19	6.66552e-07
3299.87	5.98595e-07
3308.55	5.97308e-07
3317.22	7.35559e-07
3325.9	7.17771e-07
3334.58	5.92609e-07
3343.26	7.70145e-07
3351.94	7.57049e-07
3360.62	8.25289e-07
3369.29	6.64619e-07
3377.97	1.2485e-06
3386.65	8.40753e-07
3395.33	9.43194e-07
3404.01	1.23269e-06
3412.68	9.96053e-07
3421.36	1.09458e-06
3430.04	1.19297e-06
3438.72	1.15569e-06
3447.4	1.09847e-06
3456.08	1.24815e-06
3464.75	1.58788e-06
3473.43	1.2962e-06
3482.11	2.01614e-06
3490.79	1.89331e-06
3499.47	1.84287e-06
3508.14	1.48257e-06
3516.82	1.67572e-06
3525.5	1.35395e-06
3534.18	2.11372e-06
3542.86	1.6464e-06
3551.53	1.73019e-06
3560.21	2.05566e-06
3568.89	2.29246e-06
3577.57	3.69261e-06
3586.25	4.42307e-06
3594.93	4.11875e-06
3603.6	3.76056e-06
3612.28	5.78675e-06
3620.96	9.61985e-06
3629.64	1.34042e-05
3638.32	1.82229e-05
3646.99	2.34068e-05
3655.67	3.1531e-05
3664.35	3.73508e-05
3673.03	4.28738e-05
3681.71	6.23883e-05
3690.39	2.82951e-05
3699.06	4.1539e-05
3707.74	3.91762e-05
3716.42	3.93253e-05
3725.1	2.52025e-05
3733.78	1.75914e-05
3742.45	1.04324e-05
3751.13	5.67593e-06
3759.81	5.62543e-06
3768.49	4.4549e-06
3777.17	3.28233e-06
3785.85	3.06079e-06
3794.52	2.73804e-06
3803.2	2.76637e-06
3811.88	3.26383e-06
3820.56	3.06235e-06
3829.24	2.16467e-06
3837.91	5.69386e-06
3846.59	2.37324e-06
3855.27	2.61392e-06
3863.95	2.73681e-06
3872.63	3.71966e-06
3881.3	2.39657e-06
3889.98	5.13482e-06
3898.66	3.42078e-06
3907.34	2.22416e-06
3916.02	2.36742e-06
3924.7	2.33252e-06
3933.37	2.87833e-06
3942.05	2.6637e-06
3950.73	2.33325e-06
3959.41	2.34277e-06
3968.09	2.59179e-06
