Infrared Spectrum: Methanol
Formula: C H3 O H
CAS: 67-56-1
State: gas
Melting point: -93.9 C
Boiling point: 64.96 C
Class: IUPAC A
Instrument: IFS66V (Bruker)
Instrument parameters: KBr Beam splitter; MCT Detector; Multipass cell
Sampling: 1 L/min Flow
Resolution: 0.9640
Temperature: 23 C
Pressure: 101.3 kPa
Origin: NIST, Anayltical Chemistry Division, 301-975-3108
cm-1	(micromol/mol)-1m-1 (base 10)
575.169	2.99657e-06
583.847	2.35848e-06
592.525	2.33301e-06
601.203	1.63817e-06
609.882	2.01722e-06
618.56	1.77501e-06
627.238	1.20882e-06
635.916	1.36919e-06
644.594	1.94182e-06
653.272	2.03835e-06
661.951	1.40001e-06
670.629	1.35933e-06
679.307	1.29241e-06
687.985	1.25906e-06
696.663	1.68461e-06
705.341	1.23913e-06
714.019	1.39724e-06
722.698	1.25001e-06
731.376	1.21387e-06
740.054	8.76065e-07
748.732	1.33882e-06
757.41	1.20688e-06
766.088	1.0657e-06
774.767	9.19233e-07
783.445	6.4346e-07
792.123	8.4609e-07
800.801	8.21227e-07
809.479	8.44477e-07
818.157	1.01588e-06
826.835	8.9487e-07
835.514	8.08391e-07
844.192	1.0364e-06
852.87	1.06709e-06
861.548	9.49208e-07
870.226	1.12029e-06
878.904	1.29612e-06
887.583	1.23931e-06
896.261	1.43013e-06
904.939	1.46585e-06
913.617	1.91474e-06
922.295	2.35812e-06
930.973	3.13025e-06
939.651	3.94798e-06
948.33	4.45894e-06
957.008	6.42818e-06
965.686	1.18114e-05
974.364	2.43607e-05
983.042	4.72951e-05
991.72	0.000100528
1000.4	0.000198264
1009.08	0.00020311
1017.75	0.000216169
1026.43	0.000112686
1035.11	0.000136565
1043.79	0.000179842
1052.47	0.000334431
1061.15	0.000288531
1069.82	0.000138655
1078.5	3.66932e-05
1087.18	1.08355e-05
1095.86	9.10648e-06
1104.54	8.58691e-06
1113.21	8.63406e-06
1121.89	7.00497e-06
1130.57	5.96339e-06
1139.25	4.91747e-06
1147.93	5.47951e-06
1156.61	4.86566e-06
1165.28	5.29527e-06
1173.96	4.51651e-06
1182.64	5.8952e-06
1191.32	6.39483e-06
1200	8.01652e-06
1208.67	1.06863e-05
1217.35	9.6887e-06
1226.03	1.18725e-05
1234.71	9.94559e-06
1243.39	1.15199e-05
1252.07	1.27815e-05
1260.74	1.38412e-05
1269.42	1.51482e-05
1278.1	1.44893e-05
1286.78	1.61194e-05
1295.46	2.00984e-05
1304.13	2.48239e-05
1312.81	2.54243e-05
1321.49	3.65479e-05
1330.17	2.91084e-05
1338.85	3.03551e-05
1347.52	4.14318e-05
1356.2	2.9567e-05
1364.88	2.93057e-05
1373.56	2.70591e-05
1382.24	2.30223e-05
1390.92	2.23663e-05
1399.59	2.178e-05
1408.27	1.73331e-05
1416.95	1.70583e-05
1425.63	1.78938e-05
1434.31	1.62231e-05
1442.98	1.15901e-05
1451.66	1.44273e-05
1460.34	1.54748e-05
1469.02	1.66402e-05
1477.7	2.07265e-05
1486.38	1.31216e-05
1495.05	1.00124e-05
1503.73	8.93586e-06
1512.41	9.41457e-06
1521.09	1.03443e-05
1529.77	8.04509e-06
1538.44	8.67241e-06
1547.12	6.72485e-06
1555.8	5.42109e-06
1564.48	5.06914e-06
1573.16	3.97824e-06
1581.83	2.60152e-06
1590.51	2.18299e-06
1599.19	1.97557e-06
1607.87	1.45154e-06
1616.55	2.74429e-06
1625.23	1.07656e-06
1633.9	9.47719e-07
1642.58	7.92495e-07
1651.26	8.83677e-07
1659.94	6.93014e-07
1668.62	1.02599e-06
1677.29	6.42781e-07
1685.97	8.25589e-07
1694.65	8.01314e-07
1703.33	6.19406e-07
1712.01	4.92643e-07
1720.69	5.04664e-07
1729.36	6.38062e-07
1738.04	5.02212e-07
1746.72	6.11694e-07
1755.4	4.80366e-07
1764.08	4.92683e-07
1772.75	1.48026e-06
1781.43	5.04413e-07
1790.11	5.37181e-07
1798.79	5.39146e-07
1807.47	4.97304e-07
1816.15	5.00085e-07
1824.82	7.34695e-07
1833.5	5.27965e-07
1842.18	5.46995e-07
1850.86	5.07e-07
1859.54	5.17674e-07
1868.21	6.63598e-07
1876.89	5.24538e-07
1885.57	5.2033e-07
1894.25	5.12545e-07
1902.93	4.83146e-07
1911.6	5.31757e-07
1920.28	4.78541e-07
1928.96	4.59507e-07
1937.64	4.68763e-07
1946.32	4.50716e-07
1955	4.04187e-07
1963.67	3.7675e-07
1972.35	3.78354e-07
1981.03	5.16745e-07
1989.71	7.71776e-07
1998.39	1.36216e-06
2007.06	1.46982e-06
2015.74	3.02849e-06
2024.42	3.89579e-06
2033.1	4.49917e-06
2041.78	3.43173e-06
2050.46	5.0176e-06
2059.13	2.53744e-06
2067.81	6.48208e-06
2076.49	9.19397e-06
2085.17	4.91247e-06
2093.85	2.24016e-06
2102.52	1.10243e-06
2111.2	1.85688e-06
2119.88	2.1931e-06
2128.56	1.41339e-06
2137.24	8.488e-07
2145.91	8.02931e-07
2154.59	1.29894e-06
2163.27	1.19267e-06
2171.95	1.31976e-06
2180.63	1.33972e-06
2189.31	1.21786e-06
2197.98	1.05876e-06
2206.66	1.08288e-06
2215.34	1.04346e-06
2224.02	9.95527e-07
2232.7	9.91208e-07
2241.37	8.6293e-07
2250.05	9.18932e-07
2258.73	9.17849e-07
2267.41	9.59475e-07
2276.09	9.77285e-07
2284.77	1.02086e-06
2293.44	1.10864e-06
2302.12	1.14184e-06
2310.8	1.20056e-06
2319.48	1.21814e-06
2328.16	1.37671e-06
2336.83	1.3518e-06
2345.51	1.64849e-06
2354.19	1.55897e-06
2362.87	1.77346e-06
2371.55	1.86663e-06
2380.23	1.67452e-06
2388.9	1.65787e-06
2397.58	1.59913e-06
2406.26	1.98892e-06
2414.94	1.83872e-06
2423.62	1.58546e-06
2432.29	1.4289e-06
2440.97	1.40173e-06
2449.65	1.35581e-06
2458.33	1.21396e-06
2467.01	1.13363e-06
2475.68	1.09896e-06
2484.36	1.17128e-06
2493.04	1.11464e-06
2501.72	1.07578e-06
2510.4	1.15204e-06
2519.08	1.22891e-06
2527.75	1.37452e-06
2536.43	1.30609e-06
2545.11	1.34642e-06
2553.79	1.52054e-06
2562.47	1.4913e-06
2571.14	1.62054e-06
2579.82	1.72428e-06
2588.5	1.97649e-06
2597.18	2.22939e-06
2605.86	2.24942e-06
2614.54	2.31232e-06
2623.21	2.56151e-06
2631.89	2.83551e-06
2640.57	2.41019e-06
2649.25	2.62945e-06
2657.93	2.30122e-06
2666.6	2.39895e-06
2675.28	2.26463e-06
2683.96	2.21648e-06
2692.64	2.23854e-06
2701.32	2.35827e-06
2709.99	2.479e-06
2718.67	2.35216e-06
2727.35	3.06579e-06
2736.03	3.30985e-06
2744.71	4.12114e-06
2753.39	4.77455e-06
2762.06	5.36071e-06
2770.74	7.11854e-06
2779.42	8.8933e-06
2788.1	1.20103e-05
2796.78	1.77145e-05
2805.45	2.88068e-05
2814.13	4.52331e-05
2822.81	6.1612e-05
2831.49	5.92559e-05
2840.17	5.4861e-05
2848.85	5.53544e-05
2857.52	7.66759e-05
2866.2	9.50815e-05
2874.88	8.82212e-05
2883.56	6.69064e-05
2892.24	7.45357e-05
2900.91	7.7595e-05
2909.59	0.000102759
2918.27	0.000122091
2926.95	0.000119987
2935.63	0.000141733
2944.31	0.000138776
2952.98	0.000137063
2961.66	0.000128208
2970.34	0.000139941
2979.02	0.000138763
2987.7	0.000115807
2996.37	0.000101649
3005.05	9.29145e-05
3013.73	7.23027e-05
3022.41	6.26047e-05
3031.09	5.06738e-05
3039.76	3.58193e-05
3048.44	2.68851e-05
3057.12	2.04483e-05
3065.8	1.61461e-05
3074.48	1.06456e-05
3083.16	7.47609e-06
3091.83	5.32254e-06
3100.51	3.4951e-06
3109.19	2.43766e-06
3117.87	1.89926e-06
3126.55	1.42957e-06
3135.22	1.2174e-06
3143.9	1.20322e-06
3152.58	9.27863e-07
3161.26	1.12028e-06
3169.94	9.68467e-07
3178.62	1.03736e-06
3187.29	9.6129e-07
3195.97	8.91277e-07
3204.65	8.8226e-07
3213.33	8.1377e-07
3222.01	8.598e-07
3230.68	7.202e-07
3239.36	7.73023e-07
3248.04	7.94961e-07
3256.72	6.97991e-07
3265.4	6.74214e-07
3274.07	6.0489e-07
3282.75	6.37847e-07
3291.43	5.95469e-07
3300.11	6.07739e-07
3308.79	5.69764e-07
3317.47	6.56816e-07
3326.14	6.876e-07
3334.82	5.67508e-07
3343.5	7.48654e-07
3352.18	7.57615e-07
3360.86	7.86215e-07
3369.53	7.01997e-07
3378.21	1.17657e-06
3386.89	8.79118e-07
3395.57	1.01482e-06
3404.25	1.172e-06
3412.93	1.01331e-06
3421.6	1.08137e-06
3430.28	1.31316e-06
3438.96	1.22455e-06
3447.64	1.3508e-06
3456.32	1.13932e-06
3464.99	1.64186e-06
3473.67	1.26371e-06
3482.35	2.14389e-06
3491.03	1.72643e-06
3499.71	1.83853e-06
3508.39	1.48442e-06
3517.06	1.52479e-06
3525.74	1.68395e-06
3534.42	2.25605e-06
3543.1	1.58938e-06
3551.78	1.89633e-06
3560.45	2.14108e-06
3569.13	2.48763e-06
3577.81	3.94174e-06
3586.49	4.15593e-06
3595.17	4.52669e-06
3603.84	4.1208e-06
3612.52	6.86608e-06
3621.2	1.00294e-05
3629.88	1.19639e-05
3638.56	1.82202e-05
3647.24	2.40477e-05
3655.91	3.40716e-05
3664.59	4.08586e-05
3673.27	4.03777e-05
3681.95	5.60534e-05
3690.63	3.03434e-05
3699.3	4.19431e-05
3707.98	4.28965e-05
3716.66	3.70792e-05
3725.34	2.45869e-05
3734.02	1.6714e-05
3742.7	8.9516e-06
3751.37	6.9491e-06
3760.05	5.31985e-06
3768.73	4.50417e-06
3777.41	3.74572e-06
3786.09	2.65494e-06
3794.76	2.58832e-06
3803.44	2.47314e-06
3812.12	3.55282e-06
3820.8	2.79074e-06
3829.48	2.34543e-06
3838.16	3.94027e-06
3846.83	2.48473e-06
3855.51	2.84663e-06
3864.19	2.90222e-06
3872.87	3.40691e-06
3881.55	2.30085e-06
3890.22	4.26666e-06
3898.9	3.77151e-06
3907.58	2.28941e-06
3916.26	2.29636e-06
3924.94	2.39365e-06
3933.61	2.74558e-06
3942.29	2.83711e-06
3950.97	2.46783e-06
3959.65	2.37681e-06
3968.33	2.59747e-06
