Infrared Spectrum: Methanol
Formula: C H3 O H
CAS: 67-56-1
State: gas
Melting point: -93.9 C
Boiling point: 64.96 C
Class: IUPAC A
Instrument: IFS66V (Bruker)
Instrument parameters: KBr Beam splitter; MCT Detector; Multipass cell
Sampling: 1 L/min Flow
Resolution: 0.2410
Temperature: 23 C
Pressure: 101.3 kPa
Origin: NIST, Anayltical Chemistry Division, 301-975-3108
cm-1	(micromol/mol)-1m-1 (base 10)
575.048	2.2345e-06
583.606	1.91103e-06
592.163	2.93487e-06
600.721	1.41122e-06
609.279	1.70556e-06
617.836	3.79461e-06
626.394	1.44997e-06
634.951	1.13884e-06
643.509	2.13285e-06
652.067	1.26234e-06
660.624	1.60864e-06
669.182	1.53722e-06
677.74	1.18221e-06
686.297	1.39209e-06
694.855	2.91697e-06
703.412	1.4215e-06
711.97	1.85179e-06
720.528	1.71896e-06
729.085	8.63746e-07
737.643	1.32316e-06
746.201	1.24461e-06
754.758	1.66272e-06
763.316	1.10906e-06
771.873	4.69428e-07
780.431	2.48652e-06
788.989	8.86165e-07
797.546	7.26917e-07
806.104	1.20522e-06
814.662	8.91997e-07
823.219	9.57342e-07
831.777	6.71338e-07
840.334	1.05699e-06
848.892	1.05716e-06
857.45	9.29228e-07
866.007	1.17126e-06
874.565	1.45329e-06
883.123	1.17534e-06
891.68	1.334e-06
900.238	2.00998e-06
908.795	1.95029e-06
917.353	1.74241e-06
925.911	2.78196e-06
934.468	3.3822e-06
943.026	3.42378e-06
951.584	4.95864e-06
960.141	9.93342e-06
968.699	1.99329e-05
977.256	3.08775e-05
985.814	6.78415e-05
994.372	0.000151324
1002.93	0.000143155
1011.49	0.000262264
1020.04	0.000201531
1028.6	0.000117217
1037.16	8.57407e-05
1045.72	0.000230395
1054.28	0.000306364
1062.83	0.000266669
1071.39	0.000112652
1079.95	3.15947e-05
1088.51	1.1174e-05
1097.06	1.15577e-05
1105.62	9.40517e-06
1114.18	1.10405e-05
1122.74	8.06195e-06
1131.29	5.44652e-06
1139.85	5.94702e-06
1148.41	4.62212e-06
1156.97	5.91813e-06
1165.52	4.46999e-06
1174.08	4.2105e-06
1182.64	6.39575e-06
1191.2	5.96513e-06
1199.75	7.31763e-06
1208.31	1.0503e-05
1216.87	8.3824e-06
1225.43	1.36842e-05
1233.99	1.1759e-05
1242.54	1.1801e-05
1251.1	1.28127e-05
1259.66	1.44887e-05
1268.22	1.30115e-05
1276.77	1.7092e-05
1285.33	1.55536e-05
1293.89	2.14391e-05
1302.45	2.75486e-05
1311	2.34736e-05
1319.56	2.75292e-05
1328.12	3.06975e-05
1336.68	2.53473e-05
1345.23	5.49933e-05
1353.79	3.37242e-05
1362.35	2.5256e-05
1370.91	3.23425e-05
1379.46	2.94737e-05
1388.02	2.5341e-05
1396.58	2.29255e-05
1405.14	2.01015e-05
1413.7	2.08446e-05
1422.25	1.4786e-05
1430.81	1.67629e-05
1439.37	1.46432e-05
1447.93	1.04927e-05
1456.48	1.72674e-05
1465.04	1.62573e-05
1473.6	1.97132e-05
1482.16	1.26734e-05
1490.71	1.35647e-05
1499.27	1.3344e-05
1507.83	1.01599e-05
1516.39	9.19239e-06
1524.94	8.41463e-06
1533.5	7.51271e-06
1542.06	9.89887e-06
1550.62	6.56365e-06
1559.18	6.02503e-06
1567.73	4.49709e-06
1576.29	6.44516e-06
1584.85	2.53997e-06
1593.41	2.31635e-06
1601.96	1.83398e-06
1610.52	1.29168e-06
1619.08	1.12954e-06
1627.64	1.3685e-06
1636.19	1.10826e-06
1644.75	7.39657e-07
1653.31	6.12357e-06
1661.87	6.59633e-07
1670.42	6.57807e-07
1678.98	6.08241e-07
1687.54	5.84347e-07
1696.1	3.47562e-06
1704.65	1.00456e-06
1713.21	5.44859e-07
1721.77	5.45867e-07
1730.33	6.08343e-07
1738.89	5.26487e-07
1747.44	5.40286e-07
1756	4.89333e-07
1764.56	4.33601e-07
1773.12	7.69991e-07
1781.67	4.78643e-07
1790.23	4.81129e-07
1798.79	4.92465e-07
1807.35	4.7736e-07
1815.9	5.26427e-07
1824.46	5.56128e-07
1833.02	4.93446e-07
1841.58	5.5837e-07
1850.13	4.99719e-07
1858.69	5.39173e-07
1867.25	5.88511e-07
1875.81	5.67753e-07
1884.36	5.27897e-07
1892.92	5.47966e-07
1901.48	4.61e-07
1910.04	6.16818e-07
1918.6	5.29842e-07
1927.15	4.60464e-07
1935.71	4.63191e-07
1944.27	5.59338e-07
1952.83	4.51764e-07
1961.38	5.44064e-07
1969.94	4.35646e-07
1978.5	4.7369e-07
1987.06	5.55084e-07
1995.61	1.1267e-06
2004.17	1.51949e-06
2012.73	2.25494e-06
2021.29	2.12327e-06
2029.84	2.4616e-06
2038.4	3.48412e-06
2046.96	3.43941e-06
2055.52	2.64833e-06
2064.08	4.17741e-06
2072.63	8.20192e-06
2081.19	8.49574e-06
2089.75	1.70467e-06
2098.31	1.50319e-06
2106.86	1.41542e-06
2115.42	2.43444e-06
2123.98	1.94605e-06
2132.54	1.26987e-06
2141.09	8.22095e-07
2149.65	1.76798e-06
2158.21	1.69982e-06
2166.77	1.35605e-06
2175.32	1.47788e-06
2183.88	1.28592e-06
2192.44	1.1764e-06
2201	1.05641e-06
2209.55	1.2822e-06
2218.11	1.00794e-06
2226.67	9.87239e-07
2235.23	9.66395e-07
2243.79	9.60902e-07
2252.34	1.03537e-06
2260.9	9.54499e-07
2269.46	9.42719e-07
2278.02	1.04186e-06
2286.57	1.05658e-06
2295.13	1.10215e-06
2303.69	1.03643e-06
2312.25	1.23381e-06
2320.8	1.27209e-06
2329.36	1.50399e-06
2337.92	1.44837e-06
2346.48	1.71886e-06
2355.03	1.65207e-06
2363.59	1.66245e-06
2372.15	1.96624e-06
2380.71	1.50691e-06
2389.26	1.6192e-06
2397.82	1.66796e-06
2406.38	1.97316e-06
2414.94	1.84864e-06
2423.5	1.58083e-06
2432.05	1.45143e-06
2440.61	1.30016e-06
2449.17	1.26503e-06
2457.73	1.27343e-06
2466.28	1.24397e-06
2474.84	1.10741e-06
2483.4	1.11277e-06
2491.96	1.05279e-06
2500.51	1.23938e-06
2509.07	1.19779e-06
2517.63	1.11039e-06
2526.19	1.39641e-06
2534.74	1.40046e-06
2543.3	1.30277e-06
2551.86	1.28793e-06
2560.42	1.52924e-06
2568.98	1.45446e-06
2577.53	1.60445e-06
2586.09	2.02955e-06
2594.65	2.63167e-06
2603.21	2.19559e-06
2611.76	2.34225e-06
2620.32	2.5099e-06
2628.88	2.52724e-06
2637.44	2.21335e-06
2645.99	2.39808e-06
2654.55	2.23653e-06
2663.11	2.00144e-06
2671.67	2.79807e-06
2680.22	2.59734e-06
2688.78	2.2266e-06
2697.34	2.54438e-06
2705.9	2.44355e-06
2714.45	2.35394e-06
2723.01	2.45336e-06
2731.57	2.60736e-06
2740.13	3.70897e-06
2748.69	4.81635e-06
2757.24	5.25518e-06
2765.8	6.09948e-06
2774.36	7.75242e-06
2782.92	9.94551e-06
2791.47	1.42914e-05
2800.03	2.19706e-05
2808.59	3.30866e-05
2817.15	5.59652e-05
2825.7	5.35124e-05
2834.26	5.47952e-05
2842.82	9.04892e-05
2851.38	4.5011e-05
2859.93	8.14542e-05
2868.49	0.000100004
2877.05	7.44752e-05
2885.61	5.95287e-05
2894.16	6.68384e-05
2902.72	8.90216e-05
2911.28	0.000102284
2919.84	0.000138576
2928.4	0.000117845
2936.95	0.000160967
2945.51	0.000138641
2954.07	0.000131012
2962.63	0.000146553
2971.18	0.00014933
2979.74	0.000162574
2988.3	0.000132179
2996.86	9.80165e-05
3005.41	0.000120551
3013.97	7.27397e-05
3022.53	6.30121e-05
3031.09	5.09502e-05
3039.64	3.60821e-05
3048.2	3.06052e-05
3056.76	2.25367e-05
3065.32	1.37378e-05
3073.88	1.13971e-05
3082.43	7.95002e-06
3090.99	4.65086e-06
3099.55	3.66526e-06
3108.11	2.37006e-06
3116.66	1.7265e-06
3125.22	1.31424e-06
3133.78	1.33712e-06
3142.34	1.14746e-06
3150.89	1.00638e-06
3159.45	1.00295e-06
3168.01	9.6645e-07
3176.57	6.49836e-07
3185.12	9.90629e-07
3193.68	1.00912e-06
3202.24	8.56374e-07
3210.8	9.028e-07
3219.35	6.29318e-07
3227.91	7.85081e-07
3236.47	8.90462e-07
3245.03	7.97757e-07
3253.59	6.32101e-07
3262.14	9.01103e-07
3270.7	4.97757e-07
3279.26	6.05686e-07
3287.82	6.80539e-07
3296.37	5.62518e-07
3304.93	5.15879e-07
3313.49	7.21282e-07
3322.05	8.60185e-07
3330.6	6.59944e-07
3339.16	7.54624e-07
3347.72	7.17804e-07
3356.28	5.64895e-07
3364.83	9.21546e-07
3373.39	8.78058e-07
3381.95	8.93892e-07
3390.51	8.92741e-07
3399.06	7.96175e-07
3407.62	1.04374e-06
3416.18	1.08076e-06
3424.74	1.01873e-06
3433.3	1.36992e-06
3441.85	1.37105e-06
3450.41	1.42916e-06
3458.97	2.2466e-06
3467.53	1.29477e-06
3476.08	1.66521e-06
3484.64	2.0243e-06
3493.2	1.94199e-06
3501.76	1.57229e-06
3510.31	1.51736e-06
3518.87	1.5627e-06
3527.43	1.83378e-06
3535.99	1.87478e-06
3544.54	1.64975e-06
3553.1	1.63446e-06
3561.66	2.23015e-06
3570.22	2.2965e-06
3578.78	2.22326e-06
3587.33	3.14964e-06
3595.89	5.84309e-06
3604.45	4.57127e-06
3613.01	8.57297e-06
3621.56	9.36314e-06
3630.12	1.0737e-05
3638.68	1.96721e-05
3647.24	2.54261e-05
3655.79	3.1857e-05
3664.35	3.68927e-05
3672.91	4.5669e-05
3681.47	8.01131e-05
3690.02	3.00573e-05
3698.58	4.53193e-05
3707.14	4.73216e-05
3715.7	3.61137e-05
3724.25	2.50756e-05
3732.81	1.87644e-05
3741.37	9.09105e-06
3749.93	8.97074e-06
3758.49	1.20804e-05
3767.04	4.8473e-06
3775.6	2.94245e-06
3784.16	3.14748e-06
3792.72	3.08363e-06
3801.27	5.5529e-06
3809.83	3.18472e-06
3818.39	2.19384e-06
3826.95	3.05995e-06
3835.5	2.58736e-06
3844.06	2.54512e-06
3852.62	3.73097e-06
3861.18	2.21791e-06
3869.73	3.88115e-06
3878.29	2.07366e-06
3886.85	3.14008e-06
3895.41	3.21681e-06
3903.96	3.42077e-06
3912.52	2.04751e-06
3921.08	3.17023e-06
3929.64	2.36283e-06
3938.2	2.64258e-06
3946.75	3.03099e-06
3955.31	2.52959e-06
3963.87	2.85029e-06
3972.43	2.42363e-06
