Infrared Spectrum: Methanol
Formula: C H3 O H
CAS: 67-56-1
State: gas
Melting point: -93.9 C
Boiling point: 64.96 C
Class: IUPAC A
Instrument: IFS66V (Bruker)
Instrument parameters: KBr Beam splitter; MCT Detector; Multipass cell
Sampling: 1 L/min Flow
Resolution: 0.9640
Temperature: 23 C
Pressure: 101.3 kPa
Origin: NIST, Anayltical Chemistry Division, 301-975-3108
cm-1	(micromol/mol)-1m-1 (base 10)
575.169	2.63272e-06
583.847	2.26914e-06
592.525	2.38756e-06
601.203	1.54425e-06
609.882	1.94662e-06
618.56	1.69227e-06
627.238	1.22887e-06
635.916	1.29459e-06
644.594	1.93126e-06
653.272	1.993e-06
661.951	1.39582e-06
670.629	1.3851e-06
679.307	1.21371e-06
687.985	1.21608e-06
696.663	1.70028e-06
705.341	1.27113e-06
714.019	1.38704e-06
722.698	1.19385e-06
731.376	1.22264e-06
740.054	8.60345e-07
748.732	1.4014e-06
757.41	1.2346e-06
766.088	1.06038e-06
774.767	9.34895e-07
783.445	6.32842e-07
792.123	8.6777e-07
800.801	7.69457e-07
809.479	8.48428e-07
818.157	1.0091e-06
826.835	8.73178e-07
835.514	8.04702e-07
844.192	1.02748e-06
852.87	1.09517e-06
861.548	9.3253e-07
870.226	1.12969e-06
878.904	1.31884e-06
887.583	1.2499e-06
896.261	1.40138e-06
904.939	1.47301e-06
913.617	1.9068e-06
922.295	2.36452e-06
930.973	3.19932e-06
939.651	3.92439e-06
948.33	4.50792e-06
957.008	6.26055e-06
965.686	1.1632e-05
974.364	2.31311e-05
983.042	4.33091e-05
991.72	9.8601e-05
1000.4	0.000211458
1009.08	0.000187877
1017.75	0.000209084
1026.43	0.000107083
1035.11	0.000115231
1043.79	0.00017833
1052.47	0.000334198
1061.15	0.000288798
1069.82	0.000140127
1078.5	3.67433e-05
1087.18	1.09506e-05
1095.86	8.99325e-06
1104.54	8.50079e-06
1113.21	8.56156e-06
1121.89	6.84546e-06
1130.57	5.99808e-06
1139.25	4.72888e-06
1147.93	5.55596e-06
1156.61	4.78777e-06
1165.28	5.26274e-06
1173.96	4.4274e-06
1182.64	5.91373e-06
1191.32	6.26833e-06
1200	7.98389e-06
1208.67	1.07134e-05
1217.35	9.68777e-06
1226.03	1.19566e-05
1234.71	9.77848e-06
1243.39	1.14463e-05
1252.07	1.28123e-05
1260.74	1.36627e-05
1269.42	1.52323e-05
1278.1	1.46513e-05
1286.78	1.63357e-05
1295.46	1.98343e-05
1304.13	2.56253e-05
1312.81	2.50478e-05
1321.49	3.66939e-05
1330.17	2.872e-05
1338.85	2.96082e-05
1347.52	4.26832e-05
1356.2	2.831e-05
1364.88	2.96083e-05
1373.56	2.69645e-05
1382.24	2.26585e-05
1390.92	2.24198e-05
1399.59	2.1697e-05
1408.27	1.75233e-05
1416.95	1.67236e-05
1425.63	1.81403e-05
1434.31	1.59967e-05
1442.98	1.1607e-05
1451.66	1.39398e-05
1460.34	1.55559e-05
1469.02	1.68165e-05
1477.7	2.12795e-05
1486.38	1.3204e-05
1495.05	1.00424e-05
1503.73	8.99032e-06
1512.41	9.2151e-06
1521.09	1.04069e-05
1529.77	7.99762e-06
1538.44	8.63388e-06
1547.12	6.88944e-06
1555.8	5.29424e-06
1564.48	5.20996e-06
1573.16	4.13864e-06
1581.83	2.53759e-06
1590.51	2.11636e-06
1599.19	2.00727e-06
1607.87	1.44551e-06
1616.55	2.99916e-06
1625.23	1.06162e-06
1633.9	9.20833e-07
1642.58	8.07663e-07
1651.26	8.31066e-07
1659.94	6.91198e-07
1668.62	9.49535e-07
1677.29	6.39233e-07
1685.97	7.59378e-07
1694.65	7.59352e-07
1703.33	6.10666e-07
1712.01	4.74302e-07
1720.69	5.06582e-07
1729.36	6.40216e-07
1738.04	4.82326e-07
1746.72	6.0423e-07
1755.4	4.77357e-07
1764.08	5.01597e-07
1772.75	1.69843e-06
1781.43	4.80458e-07
1790.11	5.10158e-07
1798.79	5.15307e-07
1807.47	5.06127e-07
1816.15	5.04631e-07
1824.82	7.41904e-07
1833.5	5.32246e-07
1842.18	5.53081e-07
1850.86	5.03603e-07
1859.54	5.14912e-07
1868.21	6.61611e-07
1876.89	5.30005e-07
1885.57	5.19926e-07
1894.25	5.03203e-07
1902.93	4.7584e-07
1911.6	5.32692e-07
1920.28	4.79435e-07
1928.96	4.5393e-07
1937.64	4.6295e-07
1946.32	4.5449e-07
1955	3.9902e-07
1963.67	3.66904e-07
1972.35	3.67467e-07
1981.03	5.05125e-07
1989.71	7.6753e-07
1998.39	1.38982e-06
2007.06	1.38588e-06
2015.74	3.1554e-06
2024.42	4.01154e-06
2033.1	4.6777e-06
2041.78	3.28391e-06
2050.46	4.96322e-06
2059.13	2.5542e-06
2067.81	6.43367e-06
2076.49	9.08742e-06
2085.17	4.9061e-06
2093.85	2.3029e-06
2102.52	1.07048e-06
2111.2	1.86332e-06
2119.88	2.21008e-06
2128.56	1.40367e-06
2137.24	8.37094e-07
2145.91	8.03816e-07
2154.59	1.3198e-06
2163.27	1.18633e-06
2171.95	1.28554e-06
2180.63	1.32247e-06
2189.31	1.19796e-06
2197.98	1.05234e-06
2206.66	1.08857e-06
2215.34	1.03015e-06
2224.02	9.93945e-07
2232.7	9.98569e-07
2241.37	8.60326e-07
2250.05	9.17955e-07
2258.73	9.23792e-07
2267.41	9.54984e-07
2276.09	9.8015e-07
2284.77	1.02306e-06
2293.44	1.10443e-06
2302.12	1.12922e-06
2310.8	1.19609e-06
2319.48	1.21465e-06
2328.16	1.36684e-06
2336.83	1.33429e-06
2345.51	1.63226e-06
2354.19	1.54613e-06
2362.87	1.77814e-06
2371.55	1.8754e-06
2380.23	1.68227e-06
2388.9	1.66477e-06
2397.58	1.59399e-06
2406.26	1.98203e-06
2414.94	1.82763e-06
2423.62	1.58442e-06
2432.29	1.43908e-06
2440.97	1.41729e-06
2449.65	1.35264e-06
2458.33	1.20681e-06
2467.01	1.11587e-06
2475.68	1.10766e-06
2484.36	1.17149e-06
2493.04	1.10623e-06
2501.72	1.06111e-06
2510.4	1.15451e-06
2519.08	1.23979e-06
2527.75	1.37352e-06
2536.43	1.28507e-06
2545.11	1.35085e-06
2553.79	1.52751e-06
2562.47	1.50277e-06
2571.14	1.61934e-06
2579.82	1.72749e-06
2588.5	1.98342e-06
2597.18	2.22335e-06
2605.86	2.27829e-06
2614.54	2.30194e-06
2623.21	2.57105e-06
2631.89	2.84812e-06
2640.57	2.40276e-06
2649.25	2.64642e-06
2657.93	2.30172e-06
2666.6	2.38083e-06
2675.28	2.24912e-06
2683.96	2.18934e-06
2692.64	2.23564e-06
2701.32	2.34329e-06
2709.99	2.44594e-06
2718.67	2.33404e-06
2727.35	3.0802e-06
2736.03	3.26367e-06
2744.71	4.16953e-06
2753.39	4.7648e-06
2762.06	5.29443e-06
2770.74	7.081e-06
2779.42	8.94545e-06
2788.1	1.19604e-05
2796.78	1.76799e-05
2805.45	2.8845e-05
2814.13	4.4966e-05
2822.81	6.20763e-05
2831.49	5.94913e-05
2840.17	5.4963e-05
2848.85	5.50867e-05
2857.52	7.71301e-05
2866.2	9.4092e-05
2874.88	8.93066e-05
2883.56	6.72404e-05
2892.24	7.37873e-05
2900.91	7.76543e-05
2909.59	0.000102459
2918.27	0.000121681
2926.95	0.000119576
2935.63	0.000141878
2944.31	0.000138674
2952.98	0.000135657
2961.66	0.000126337
2970.34	0.000139547
2979.02	0.000136811
2987.7	0.000112591
2996.37	0.000102404
3005.05	9.15516e-05
3013.73	7.22852e-05
3022.41	6.20745e-05
3031.09	5.03148e-05
3039.76	3.60815e-05
3048.44	2.67179e-05
3057.12	2.04438e-05
3065.8	1.59134e-05
3074.48	1.05919e-05
3083.16	7.492e-06
3091.83	5.46835e-06
3100.51	3.51549e-06
3109.19	2.42536e-06
3117.87	1.91522e-06
3126.55	1.41969e-06
3135.22	1.22057e-06
3143.9	1.22007e-06
3152.58	9.05788e-07
3161.26	1.13164e-06
3169.94	9.78341e-07
3178.62	1.04589e-06
3187.29	9.61577e-07
3195.97	8.92734e-07
3204.65	8.92203e-07
3213.33	7.96494e-07
3222.01	8.62371e-07
3230.68	7.20307e-07
3239.36	7.78126e-07
3248.04	8.10595e-07
3256.72	7.02704e-07
3265.4	6.74701e-07
3274.07	6.06032e-07
3282.75	6.56226e-07
3291.43	6.06516e-07
3300.11	6.11904e-07
3308.79	5.67094e-07
3317.47	6.70775e-07
3326.14	7.11473e-07
3334.82	5.57853e-07
3343.5	7.51625e-07
3352.18	7.58654e-07
3360.86	8.19468e-07
3369.53	6.92681e-07
3378.21	1.2423e-06
3386.89	8.5853e-07
3395.57	1.04903e-06
3404.25	1.21669e-06
3412.93	1.01512e-06
3421.6	1.08573e-06
3430.28	1.30823e-06
3438.96	1.22282e-06
3447.64	1.33429e-06
3456.32	1.12126e-06
3464.99	1.65646e-06
3473.67	1.24587e-06
3482.35	2.12791e-06
3491.03	1.74798e-06
3499.71	1.86866e-06
3508.39	1.46129e-06
3517.06	1.53249e-06
3525.74	1.60563e-06
3534.42	2.06748e-06
3543.1	1.60622e-06
3551.78	1.89442e-06
3560.45	2.1637e-06
3569.13	2.3358e-06
3577.81	4.19014e-06
3586.49	4.33276e-06
3595.17	4.46329e-06
3603.84	4.05434e-06
3612.52	6.80123e-06
3621.2	1.03592e-05
3629.88	1.19391e-05
3638.56	1.85705e-05
3647.24	2.40796e-05
3655.91	3.29769e-05
3664.59	4.01763e-05
3673.27	4.09613e-05
3681.95	5.44504e-05
3690.63	2.99662e-05
3699.3	4.12693e-05
3707.98	4.21594e-05
3716.66	3.68953e-05
3725.34	2.45865e-05
3734.02	1.68698e-05
3742.7	8.99713e-06
3751.37	6.70436e-06
3760.05	5.16169e-06
3768.73	4.57179e-06
3777.41	3.72408e-06
3786.09	2.69333e-06
3794.76	2.63622e-06
3803.44	2.43173e-06
3812.12	3.53172e-06
3820.8	2.83009e-06
3829.48	2.32315e-06
3838.16	4.11821e-06
3846.83	2.48451e-06
3855.51	2.76988e-06
3864.19	2.79333e-06
3872.87	3.436e-06
3881.55	2.23274e-06
3890.22	4.38876e-06
3898.9	3.76476e-06
3907.58	2.278e-06
3916.26	2.26638e-06
3924.94	2.38314e-06
3933.61	2.78944e-06
3942.29	2.81986e-06
3950.97	2.46138e-06
3959.65	2.34887e-06
3968.33	2.60265e-06
