Infrared Spectrum: Methanol
Formula: C H3 O H
CAS: 67-56-1
State: gas
Melting point: -93.9 C
Boiling point: 64.96 C
Class: IUPAC A
Instrument: IFS66V (Bruker)
Instrument parameters: KBr Beam splitter; MCT Detector; Multipass cell
Sampling: 1 L/min Flow
Resolution: 1.9290
Temperature: 23 C
Pressure: 101.3 kPa
Origin: NIST, Anayltical Chemistry Division, 301-975-3108
cm-1	(micromol/mol)-1m-1 (base 10)
574.687	4.4528e-06
583.365	3.20941e-06
592.043	2.30229e-06
600.721	2.28434e-06
609.4	1.8919e-06
618.078	2.60952e-06
626.756	1.1917e-06
635.434	1.46477e-06
644.112	2.0959e-06
652.79	1.92509e-06
661.469	1.41608e-06
670.147	1.39399e-06
678.825	1.35669e-06
687.503	1.33021e-06
696.181	1.61216e-06
704.859	1.25617e-06
713.537	1.41786e-06
722.216	1.40234e-06
730.894	1.11806e-06
739.572	9.38427e-07
748.25	1.22135e-06
756.928	1.2104e-06
765.606	1.07939e-06
774.285	9.94617e-07
782.963	6.41853e-07
791.641	8.75513e-07
800.319	8.11497e-07
808.997	9.29874e-07
817.675	8.96544e-07
826.353	9.35581e-07
835.032	7.51096e-07
843.71	1.08722e-06
852.388	9.39623e-07
861.066	1.31414e-06
869.744	1.0976e-06
878.422	1.33333e-06
887.101	1.12529e-06
895.779	1.5498e-06
904.457	1.32251e-06
913.135	2.10822e-06
921.813	2.19818e-06
930.491	3.1909e-06
939.169	3.73594e-06
947.848	4.64767e-06
956.526	6.35127e-06
965.204	1.27992e-05
973.882	2.65549e-05
982.56	5.52089e-05
991.238	9.93328e-05
999.917	0.00017172
1008.59	0.000228756
1017.27	0.000228271
1025.95	0.000122107
1034.63	0.000378044
1043.31	0.000171042
1051.99	0.00033091
1060.66	0.000296355
1069.34	0.000146189
1078.02	4.01813e-05
1086.7	1.12451e-05
1095.38	9.7634e-06
1104.05	8.41729e-06
1112.73	8.60139e-06
1121.41	7.12535e-06
1130.09	6.28638e-06
1138.77	5.18439e-06
1147.45	5.35837e-06
1156.12	4.57586e-06
1164.8	5.61451e-06
1173.48	4.39543e-06
1182.16	5.80442e-06
1190.84	6.3535e-06
1199.51	8.1166e-06
1208.19	1.04423e-05
1216.87	9.86854e-06
1225.55	1.22644e-05
1234.23	1.1172e-05
1242.9	1.16582e-05
1251.58	1.28475e-05
1260.26	1.40079e-05
1268.94	1.49213e-05
1277.62	1.41117e-05
1286.3	1.57056e-05
1294.97	2.04337e-05
1303.65	2.37966e-05
1312.33	2.62408e-05
1321.01	3.52309e-05
1329.69	2.90904e-05
1338.36	2.87722e-05
1347.04	4.14621e-05
1355.72	3.10272e-05
1364.4	2.86044e-05
1373.08	2.9041e-05
1381.76	2.35425e-05
1390.43	2.27228e-05
1399.11	2.21374e-05
1407.79	1.70178e-05
1416.47	1.69563e-05
1425.15	1.74027e-05
1433.82	1.65946e-05
1442.5	1.20054e-05
1451.18	1.19269e-05
1459.86	1.50069e-05
1468.54	1.55324e-05
1477.22	2.00278e-05
1485.89	1.22184e-05
1494.57	9.95217e-06
1503.25	9.03427e-06
1511.93	1.04271e-05
1520.61	9.81944e-06
1529.28	8.4404e-06
1537.96	8.24702e-06
1546.64	6.71824e-06
1555.32	5.94041e-06
1564	4.80821e-06
1572.67	3.64123e-06
1581.35	2.79969e-06
1590.03	2.32177e-06
1598.71	1.98628e-06
1607.39	1.50448e-06
1616.07	2.06426e-06
1624.74	1.15609e-06
1633.42	9.33681e-07
1642.1	7.60162e-07
1650.78	8.87966e-07
1659.46	6.53808e-07
1668.13	8.86784e-07
1676.81	7.07653e-07
1685.49	1.72719e-06
1694.17	7.01849e-07
1702.85	6.31679e-07
1711.53	5.17013e-07
1720.2	5.81236e-07
1728.88	5.6944e-07
1737.56	5.44006e-07
1746.24	5.5508e-07
1754.92	5.02851e-07
1763.59	4.85198e-07
1772.27	1.16762e-06
1780.95	5.53755e-07
1789.63	5.33797e-07
1798.31	5.05576e-07
1806.98	4.8822e-07
1815.66	4.71218e-07
1824.34	6.30222e-07
1833.02	5.01237e-07
1841.7	5.42711e-07
1850.38	4.90951e-07
1859.05	5.3248e-07
1867.73	6.30351e-07
1876.41	5.32881e-07
1885.09	5.10139e-07
1893.77	5.34407e-07
1902.44	4.73255e-07
1911.12	5.21447e-07
1919.8	4.68786e-07
1928.48	4.93109e-07
1937.16	4.60502e-07
1945.84	4.70369e-07
1954.51	4.01149e-07
1963.19	4.0489e-07
1971.87	3.94038e-07
1980.55	5.23151e-07
1989.23	7.05335e-07
1997.9	1.18433e-06
2006.58	1.75782e-06
2015.26	2.53542e-06
2023.94	3.36693e-06
2032.62	4.04692e-06
2041.3	3.68212e-06
2049.97	4.74614e-06
2058.65	2.42844e-06
2067.33	6.15555e-06
2076.01	9.23228e-06
2084.69	5.31039e-06
2093.36	2.02676e-06
2102.04	1.03608e-06
2110.72	1.75284e-06
2119.4	2.13919e-06
2128.08	1.52353e-06
2136.75	9.27037e-07
2145.43	8.36595e-07
2154.11	1.16269e-06
2162.79	1.21213e-06
2171.47	1.29471e-06
2180.15	1.45467e-06
2188.82	1.20869e-06
2197.5	1.1032e-06
2206.18	1.06183e-06
2214.86	1.0345e-06
2223.54	1.01602e-06
2232.21	9.80344e-07
2240.89	8.82523e-07
2249.57	9.15031e-07
2258.25	9.02374e-07
2266.93	9.39107e-07
2275.61	9.64526e-07
2284.28	1.0037e-06
2292.96	1.10219e-06
2301.64	1.15662e-06
2310.32	1.19571e-06
2319	1.22943e-06
2327.67	1.40058e-06
2336.35	1.36439e-06
2345.03	1.66867e-06
2353.71	1.53847e-06
2362.39	1.75075e-06
2371.06	1.77454e-06
2379.74	1.72358e-06
2388.42	1.6619e-06
2397.1	1.60181e-06
2405.78	1.98774e-06
2414.46	1.85794e-06
2423.13	1.5852e-06
2431.81	1.43442e-06
2440.49	1.39878e-06
2449.17	1.3056e-06
2457.85	1.20751e-06
2466.52	1.17898e-06
2475.2	1.0991e-06
2483.88	1.16068e-06
2492.56	1.13753e-06
2501.24	1.13679e-06
2509.92	1.136e-06
2518.59	1.20557e-06
2527.27	1.3712e-06
2535.95	1.33208e-06
2544.63	1.34601e-06
2553.31	1.50511e-06
2561.98	1.50417e-06
2570.66	1.60424e-06
2579.34	1.72985e-06
2588.02	1.98403e-06
2596.7	2.24611e-06
2605.38	2.16654e-06
2614.05	2.38641e-06
2622.73	2.55253e-06
2631.41	2.81015e-06
2640.09	2.39019e-06
2648.77	2.4517e-06
2657.44	2.26185e-06
2666.12	2.41625e-06
2674.8	2.24822e-06
2683.48	2.26825e-06
2692.16	2.18376e-06
2700.83	2.369e-06
2709.51	2.44766e-06
2718.19	2.33156e-06
2726.87	2.95506e-06
2735.55	3.31737e-06
2744.23	3.97342e-06
2752.9	4.86077e-06
2761.58	5.40483e-06
2770.26	7.00123e-06
2778.94	8.68577e-06
2787.62	1.17971e-05
2796.29	1.7274e-05
2804.97	2.80187e-05
2813.65	4.44851e-05
2822.33	6.04245e-05
2831.01	5.94095e-05
2839.69	5.67982e-05
2848.36	5.76143e-05
2857.04	7.37697e-05
2865.72	9.59297e-05
2874.4	8.46758e-05
2883.08	6.72276e-05
2891.75	6.84084e-05
2900.43	7.78213e-05
2909.11	0.000103122
2917.79	0.000118384
2926.47	0.000123898
2935.14	0.000139821
2943.82	0.000139922
2952.5	0.000140905
2961.18	0.000128236
2969.86	0.000139993
2978.54	0.000137506
2987.21	0.000123371
2995.89	9.81168e-05
3004.57	8.62778e-05
3013.25	7.29988e-05
3021.93	5.98944e-05
3030.6	4.97659e-05
3039.28	3.60532e-05
3047.96	2.79525e-05
3056.64	2.10333e-05
3065.32	1.68023e-05
3074	1.10427e-05
3082.67	7.66772e-06
3091.35	5.21441e-06
3100.03	3.52794e-06
3108.71	2.50498e-06
3117.39	1.87035e-06
3126.06	1.43087e-06
3134.74	1.23085e-06
3143.42	1.22381e-06
3152.1	9.55767e-07
3160.78	1.1018e-06
3169.46	9.29102e-07
3178.13	1.00381e-06
3186.81	9.67037e-07
3195.49	8.91504e-07
3204.17	8.93471e-07
3212.85	8.89924e-07
3221.52	8.52899e-07
3230.2	7.54949e-07
3238.88	7.63983e-07
3247.56	7.58181e-07
3256.24	6.95792e-07
3264.91	6.65337e-07
3273.59	5.85902e-07
3282.27	6.3919e-07
3290.95	5.68189e-07
3299.63	6.11111e-07
3308.31	5.99225e-07
3316.98	6.42528e-07
3325.66	6.03643e-07
3334.34	6.21462e-07
3343.02	7.17733e-07
3351.7	7.38111e-07
3360.37	7.0866e-07
3369.05	6.86385e-07
3377.73	1.02251e-06
3386.41	9.01958e-07
3395.09	9.63555e-07
3403.77	1.12216e-06
3412.44	1.00152e-06
3421.12	1.12127e-06
3429.8	1.27453e-06
3438.48	1.25713e-06
3447.16	1.21248e-06
3455.83	1.19872e-06
3464.51	1.47821e-06
3473.19	1.35832e-06
3481.87	2.39244e-06
3490.55	1.74821e-06
3499.22	1.8853e-06
3507.9	1.51305e-06
3516.58	1.49566e-06
3525.26	1.92512e-06
3533.94	2.3803e-06
3542.62	1.57753e-06
3551.29	1.85635e-06
3559.97	2.05217e-06
3568.65	3.62125e-06
3577.33	3.50304e-06
3586.01	3.67992e-06
3594.68	4.48789e-06
3603.36	4.14585e-06
3612.04	6.25832e-06
3620.72	9.27148e-06
3629.4	1.27484e-05
3638.08	1.76225e-05
3646.75	2.41973e-05
3655.43	3.49649e-05
3664.11	4.42759e-05
3672.79	4.13148e-05
3681.47	6.65101e-05
3690.14	2.84537e-05
3698.82	4.39156e-05
3707.5	4.51014e-05
3716.18	3.71862e-05
3724.86	2.49953e-05
3733.54	1.75155e-05
3742.21	9.27543e-06
3750.89	7.47546e-06
3759.57	7.15192e-06
3768.25	4.4831e-06
3776.93	3.55902e-06
3785.6	2.6902e-06
3794.28	2.59283e-06
3802.96	2.69125e-06
3811.64	4.02843e-06
3820.32	2.5544e-06
3828.99	2.33378e-06
3837.67	3.61882e-06
3846.35	2.38725e-06
3855.03	4.22711e-06
3863.71	3.06736e-06
3872.39	3.45643e-06
3881.06	2.53383e-06
3889.74	3.96387e-06
3898.42	3.53412e-06
3907.1	2.34398e-06
3915.78	2.35988e-06
3924.45	2.54866e-06
3933.13	2.71535e-06
3941.81	2.70013e-06
3950.49	2.45089e-06
3959.17	2.44753e-06
3967.85	2.64399e-06
