Infrared Spectrum: Methanol
Formula: C H3 O H
CAS: 67-56-1
State: gas
Melting point: -93.9 C
Boiling point: 64.96 C
Class: IUPAC A
Instrument: IFS66V (Bruker)
Instrument parameters: KBr Beam splitter; MCT Detector; Multipass cell
Sampling: 1 L/min Flow
Resolution: 0.2410
Temperature: 23 C
Pressure: 101.3 kPa
Origin: NIST, Anayltical Chemistry Division, 301-975-3108
cm-1	(micromol/mol)-1m-1 (base 10)
575.048	3.47639e-06
583.606	2.1568e-06
592.163	2.86144e-06
600.721	1.09406e-06
609.279	1.33498e-06
617.836	4.37129e-06
626.394	1.4157e-06
634.951	5.49572e-07
643.509	1.70095e-06
652.067	1.37298e-06
660.624	1.67355e-06
669.182	1.46573e-06
677.74	1.33285e-06
686.297	1.35964e-06
694.855	2.92109e-06
703.412	1.59107e-06
711.97	2.19468e-06
720.528	1.93969e-06
729.085	7.85507e-07
737.643	1.22195e-06
746.201	1.08706e-06
754.758	1.95959e-06
763.316	1.0459e-06
771.873	4.2927e-07
780.431	2.22025e-06
788.989	1.01445e-06
797.546	6.1143e-07
806.104	1.10032e-06
814.662	1.00684e-06
823.219	1.09914e-06
831.777	7.13486e-07
840.334	8.9434e-07
848.892	1.05496e-06
857.45	9.98966e-07
866.007	1.13682e-06
874.565	1.48833e-06
883.123	1.20517e-06
891.68	1.53797e-06
900.238	1.95974e-06
908.795	2.01506e-06
917.353	1.74865e-06
925.911	2.88446e-06
934.468	3.18283e-06
943.026	3.5116e-06
951.584	4.91458e-06
960.141	9.80109e-06
968.699	2.02973e-05
977.256	3.14403e-05
985.814	6.71915e-05
994.372	0.000141804
1002.93	0.000139581
1011.49	0.000269429
1020.04	0.000223698
1028.6	0.000121742
1037.16	8.78536e-05
1045.72	0.000254899
1054.28	0.000315046
1062.83	0.000274203
1071.39	0.000112556
1079.95	3.06964e-05
1088.51	1.10925e-05
1097.06	1.151e-05
1105.62	9.07539e-06
1114.18	1.12468e-05
1122.74	8.18429e-06
1131.29	5.37183e-06
1139.85	5.9533e-06
1148.41	4.41313e-06
1156.97	5.94462e-06
1165.52	4.26003e-06
1174.08	4.25276e-06
1182.64	6.66939e-06
1191.2	5.95431e-06
1199.75	7.518e-06
1208.31	1.08026e-05
1216.87	8.01912e-06
1225.43	1.34958e-05
1233.99	1.12296e-05
1242.54	1.14761e-05
1251.1	1.25721e-05
1259.66	1.53077e-05
1268.22	1.2714e-05
1276.77	1.76287e-05
1285.33	1.497e-05
1293.89	1.93807e-05
1302.45	2.71173e-05
1311	2.12655e-05
1319.56	2.80858e-05
1328.12	3.25212e-05
1336.68	2.53366e-05
1345.23	5.42419e-05
1353.79	3.40619e-05
1362.35	2.53946e-05
1370.91	3.26235e-05
1379.46	2.9933e-05
1388.02	2.5718e-05
1396.58	2.28467e-05
1405.14	2.04958e-05
1413.7	2.06135e-05
1422.25	1.45237e-05
1430.81	1.6445e-05
1439.37	1.5122e-05
1447.93	1.07603e-05
1456.48	1.76302e-05
1465.04	1.5787e-05
1473.6	2.00814e-05
1482.16	1.28057e-05
1490.71	1.33328e-05
1499.27	1.33841e-05
1507.83	1.08369e-05
1516.39	8.94342e-06
1524.94	8.39154e-06
1533.5	7.09171e-06
1542.06	9.96521e-06
1550.62	6.38752e-06
1559.18	6.08004e-06
1567.73	4.63662e-06
1576.29	6.37689e-06
1584.85	2.57549e-06
1593.41	2.17232e-06
1601.96	1.89521e-06
1610.52	1.27132e-06
1619.08	1.10996e-06
1627.64	1.27559e-06
1636.19	1.15286e-06
1644.75	7.79457e-07
1653.31	7.17266e-06
1661.87	6.43728e-07
1670.42	6.6302e-07
1678.98	6.79318e-07
1687.54	5.5357e-07
1696.1	2.43074e-06
1704.65	8.85203e-07
1713.21	6.006e-07
1721.77	6.15663e-07
1730.33	5.67507e-07
1738.89	4.8311e-07
1747.44	4.56548e-07
1756	4.86868e-07
1764.56	3.87244e-07
1773.12	6.91471e-07
1781.67	5.32854e-07
1790.23	4.41836e-07
1798.79	5.06801e-07
1807.35	4.35015e-07
1815.9	5.31952e-07
1824.46	5.90703e-07
1833.02	4.70403e-07
1841.58	5.5914e-07
1850.13	5.11142e-07
1858.69	5.43435e-07
1867.25	6.58102e-07
1875.81	6.1643e-07
1884.36	4.67774e-07
1892.92	5.21151e-07
1901.48	4.06751e-07
1910.04	6.40492e-07
1918.6	5.41625e-07
1927.15	5.02151e-07
1935.71	4.37406e-07
1944.27	6.06781e-07
1952.83	4.29048e-07
1961.38	5.32677e-07
1969.94	4.11792e-07
1978.5	4.885e-07
1987.06	5.24106e-07
1995.61	1.15876e-06
2004.17	1.47793e-06
2012.73	2.29035e-06
2021.29	2.11392e-06
2029.84	2.31484e-06
2038.4	3.49031e-06
2046.96	3.45095e-06
2055.52	2.62272e-06
2064.08	4.09347e-06
2072.63	8.24216e-06
2081.19	8.80078e-06
2089.75	1.65713e-06
2098.31	1.42106e-06
2106.86	1.44465e-06
2115.42	2.32478e-06
2123.98	1.92832e-06
2132.54	1.2444e-06
2141.09	7.91589e-07
2149.65	1.65083e-06
2158.21	1.74789e-06
2166.77	1.43634e-06
2175.32	1.47926e-06
2183.88	1.32684e-06
2192.44	1.25247e-06
2201	1.07363e-06
2209.55	1.31912e-06
2218.11	9.24542e-07
2226.67	9.98635e-07
2235.23	9.82224e-07
2243.79	9.99919e-07
2252.34	1.06123e-06
2260.9	9.28884e-07
2269.46	9.40924e-07
2278.02	1.06253e-06
2286.57	1.06109e-06
2295.13	1.07639e-06
2303.69	1.00463e-06
2312.25	1.24017e-06
2320.8	1.26054e-06
2329.36	1.47804e-06
2337.92	1.45024e-06
2346.48	1.68111e-06
2355.03	1.50039e-06
2363.59	1.76234e-06
2372.15	2.06719e-06
2380.71	1.57248e-06
2389.26	1.63878e-06
2397.82	1.69663e-06
2406.38	1.9909e-06
2414.94	1.90135e-06
2423.5	1.55617e-06
2432.05	1.48828e-06
2440.61	1.22264e-06
2449.17	1.20221e-06
2457.73	1.2385e-06
2466.28	1.32167e-06
2474.84	1.21037e-06
2483.4	1.1124e-06
2491.96	9.66495e-07
2500.51	1.27121e-06
2509.07	1.14901e-06
2517.63	1.04127e-06
2526.19	1.39008e-06
2534.74	1.43426e-06
2543.3	1.25368e-06
2551.86	1.27975e-06
2560.42	1.59517e-06
2568.98	1.42507e-06
2577.53	1.6309e-06
2586.09	2.03604e-06
2594.65	2.62491e-06
2603.21	2.2044e-06
2611.76	2.30376e-06
2620.32	2.52008e-06
2628.88	2.45687e-06
2637.44	2.15704e-06
2645.99	2.32736e-06
2654.55	2.23888e-06
2663.11	1.97487e-06
2671.67	2.87447e-06
2680.22	2.59752e-06
2688.78	2.25225e-06
2697.34	2.65114e-06
2705.9	2.48585e-06
2714.45	2.33757e-06
2723.01	2.47645e-06
2731.57	2.64021e-06
2740.13	3.78274e-06
2748.69	4.91038e-06
2757.24	5.25421e-06
2765.8	6.11768e-06
2774.36	7.91932e-06
2782.92	9.83013e-06
2791.47	1.4311e-05
2800.03	2.16223e-05
2808.59	3.38658e-05
2817.15	5.59026e-05
2825.7	5.13988e-05
2834.26	5.60942e-05
2842.82	8.81606e-05
2851.38	4.48594e-05
2859.93	7.92686e-05
2868.49	0.000101981
2877.05	7.44704e-05
2885.61	5.94312e-05
2894.16	6.7432e-05
2902.72	8.74916e-05
2911.28	0.000102707
2919.84	0.000138272
2928.4	0.000115837
2936.95	0.000163593
2945.51	0.000142
2954.07	0.00012916
2962.63	0.000146245
2971.18	0.000148127
2979.74	0.00016436
2988.3	0.000136669
2996.86	9.65339e-05
3005.41	0.000122639
3013.97	7.1506e-05
3022.53	6.34084e-05
3031.09	5.03865e-05
3039.64	3.57755e-05
3048.2	3.25539e-05
3056.76	2.35742e-05
3065.32	1.31859e-05
3073.88	1.11565e-05
3082.43	7.8043e-06
3090.99	4.42505e-06
3099.55	3.67064e-06
3108.11	2.24553e-06
3116.66	1.6603e-06
3125.22	1.29382e-06
3133.78	1.37647e-06
3142.34	1.26719e-06
3150.89	1.10107e-06
3159.45	9.7886e-07
3168.01	1.04298e-06
3176.57	5.23888e-07
3185.12	9.57584e-07
3193.68	9.3536e-07
3202.24	8.6206e-07
3210.8	1.00675e-06
3219.35	4.14011e-07
3227.91	8.25599e-07
3236.47	8.80723e-07
3245.03	7.60599e-07
3253.59	5.30036e-07
3262.14	8.33555e-07
3270.7	4.55966e-07
3279.26	5.68551e-07
3287.82	7.50715e-07
3296.37	5.42591e-07
3304.93	5.33931e-07
3313.49	7.52208e-07
3322.05	9.16486e-07
3330.6	5.98772e-07
3339.16	8.48107e-07
3347.72	7.43483e-07
3356.28	6.69374e-07
3364.83	9.28886e-07
3373.39	8.88739e-07
3381.95	8.75621e-07
3390.51	9.99213e-07
3399.06	6.7375e-07
3407.62	1.01632e-06
3416.18	1.05491e-06
3424.74	8.82085e-07
3433.3	1.35432e-06
3441.85	1.34528e-06
3450.41	1.56179e-06
3458.97	2.38151e-06
3467.53	1.51753e-06
3476.08	1.69505e-06
3484.64	1.98611e-06
3493.2	1.84384e-06
3501.76	1.78109e-06
3510.31	1.53534e-06
3518.87	1.62125e-06
3527.43	1.83138e-06
3535.99	1.86946e-06
3544.54	1.61877e-06
3553.1	1.69162e-06
3561.66	2.2549e-06
3570.22	2.36485e-06
3578.78	2.16291e-06
3587.33	3.0633e-06
3595.89	6.09143e-06
3604.45	4.57462e-06
3613.01	8.32979e-06
3621.56	8.91552e-06
3630.12	1.06959e-05
3638.68	1.9543e-05
3647.24	2.60188e-05
3655.79	3.23318e-05
3664.35	3.56344e-05
3672.91	4.66007e-05
3681.47	8.17714e-05
3690.02	3.02384e-05
3698.58	4.47134e-05
3707.14	4.76088e-05
3715.7	3.65367e-05
3724.25	2.50387e-05
3732.81	1.92068e-05
3741.37	8.88213e-06
3749.93	9.0768e-06
3758.49	1.20251e-05
3767.04	4.97187e-06
3775.6	2.97532e-06
3784.16	3.04896e-06
3792.72	3.13027e-06
3801.27	5.27892e-06
3809.83	3.13663e-06
3818.39	2.24117e-06
3826.95	3.00276e-06
3835.5	2.60388e-06
3844.06	2.41071e-06
3852.62	3.84023e-06
3861.18	2.12841e-06
3869.73	3.86718e-06
3878.29	2.02865e-06
3886.85	3.24675e-06
3895.41	3.14477e-06
3903.96	3.13502e-06
3912.52	1.97962e-06
3921.08	3.13624e-06
3929.64	2.38712e-06
3938.2	2.73509e-06
3946.75	3.11297e-06
3955.31	2.56977e-06
3963.87	2.79279e-06
3972.43	2.40067e-06
