Infrared Spectrum: Methanol
Formula: C H3 O H
CAS: 67-56-1
State: gas
Melting point: -93.9 C
Boiling point: 64.96 C
Class: IUPAC A
Instrument: IFS66V (Bruker)
Instrument parameters: KBr Beam splitter; MCT Detector; Multipass cell
Sampling: 1 L/min Flow
Resolution: 0.9640
Temperature: 23 C
Pressure: 101.3 kPa
Origin: NIST, Anayltical Chemistry Division, 301-975-3108
cm-1	(micromol/mol)-1m-1 (base 10)
575.169	1.20348e-06
583.847	2.17258e-06
592.525	2.94682e-06
601.203	1.33513e-06
609.882	1.65915e-06
618.56	1.6897e-06
627.238	1.3649e-06
635.916	9.62712e-07
644.594	1.88244e-06
653.272	1.7953e-06
661.951	1.42936e-06
670.629	1.51047e-06
679.307	9.79812e-07
687.985	1.05653e-06
696.663	1.80689e-06
705.341	1.42554e-06
714.019	1.42325e-06
722.698	1.07558e-06
731.376	1.2669e-06
740.054	7.58269e-07
748.732	1.70146e-06
757.41	1.36995e-06
766.088	1.12318e-06
774.767	1.08618e-06
783.445	6.25465e-07
792.123	9.68467e-07
800.801	6.24219e-07
809.479	9.41047e-07
818.157	1.11679e-06
826.835	8.30965e-07
835.514	8.64208e-07
844.192	1.00088e-06
852.87	1.28118e-06
861.548	9.80472e-07
870.226	1.31785e-06
878.904	1.41111e-06
887.583	1.35202e-06
896.261	1.40021e-06
904.939	1.61105e-06
913.617	1.97522e-06
922.295	2.47289e-06
930.973	3.61666e-06
939.651	3.99167e-06
948.33	4.97646e-06
957.008	5.88227e-06
965.686	1.21115e-05
974.364	1.94812e-05
983.042	3.23755e-05
991.72	0.000101715
1000.4	0.000255391
1009.08	0.000145869
1017.75	0.000186238
1026.43	8.70127e-05
1035.11	9.6344e-05
1043.79	0.000174934
1052.47	0.000334147
1061.15	0.000293172
1069.82	0.000149689
1078.5	3.77496e-05
1087.18	1.16477e-05
1095.86	8.62991e-06
1104.54	8.21678e-06
1113.21	8.41968e-06
1121.89	6.24493e-06
1130.57	6.14895e-06
1139.25	4.13873e-06
1147.93	5.75733e-06
1156.61	4.51196e-06
1165.28	5.2401e-06
1173.96	4.0913e-06
1182.64	5.98664e-06
1191.32	5.8399e-06
1200	8.04806e-06
1208.67	1.09698e-05
1217.35	9.7823e-06
1226.03	1.25288e-05
1234.71	9.88452e-06
1243.39	1.10032e-05
1252.07	1.30744e-05
1260.74	1.30181e-05
1269.42	1.54042e-05
1278.1	1.51243e-05
1286.78	1.69688e-05
1295.46	1.83802e-05
1304.13	2.79986e-05
1312.81	2.39605e-05
1321.49	3.65858e-05
1330.17	2.81265e-05
1338.85	2.70426e-05
1347.52	4.63185e-05
1356.2	2.43685e-05
1364.88	3.00609e-05
1373.56	2.65308e-05
1382.24	2.09922e-05
1390.92	2.28031e-05
1399.59	2.13015e-05
1408.27	1.84595e-05
1416.95	1.52113e-05
1425.63	1.82427e-05
1434.31	1.51512e-05
1442.98	1.15269e-05
1451.66	1.27599e-05
1460.34	1.58173e-05
1469.02	1.73586e-05
1477.7	2.35358e-05
1486.38	1.31417e-05
1495.05	1.04494e-05
1503.73	9.23498e-06
1512.41	8.81299e-06
1521.09	1.05187e-05
1529.77	8.22556e-06
1538.44	8.1632e-06
1547.12	7.4177e-06
1555.8	4.89479e-06
1564.48	5.7216e-06
1573.16	4.81264e-06
1581.83	2.42445e-06
1590.51	1.91845e-06
1599.19	2.12571e-06
1607.87	1.45511e-06
1616.55	3.89711e-06
1625.23	9.07949e-07
1633.9	8.40511e-07
1642.58	9.01561e-07
1651.26	1.18596e-06
1659.94	6.21247e-07
1668.62	5.61461e-07
1677.29	6.13102e-07
1685.97	1.11779e-06
1694.65	1.01797e-06
1703.33	6.40987e-07
1712.01	3.85646e-07
1720.69	5.57412e-07
1729.36	6.73545e-07
1738.04	3.00035e-07
1746.72	5.33647e-07
1755.4	4.77459e-07
1764.08	5.66376e-07
1772.75	2.53495e-06
1781.43	3.51114e-07
1790.11	3.86029e-07
1798.79	4.47775e-07
1807.47	5.57574e-07
1816.15	5.13724e-07
1824.82	6.79669e-07
1833.5	5.51444e-07
1842.18	6.05357e-07
1850.86	4.71087e-07
1859.54	4.95674e-07
1868.21	7.1937e-07
1876.89	5.54029e-07
1885.57	5.17311e-07
1894.25	4.65606e-07
1902.93	4.37585e-07
1911.6	5.10493e-07
1920.28	5.02841e-07
1928.96	4.25254e-07
1937.64	4.34254e-07
1946.32	4.78879e-07
1955	3.65913e-07
1963.67	3.33359e-07
1972.35	3.66997e-07
1981.03	4.59949e-07
1989.71	7.85978e-07
1998.39	1.39523e-06
2007.06	1.16538e-06
2015.74	3.22674e-06
2024.42	4.24584e-06
2033.1	4.818e-06
2041.78	2.85387e-06
2050.46	4.81633e-06
2059.13	2.6097e-06
2067.81	6.0701e-06
2076.49	8.14014e-06
2085.17	4.87824e-06
2093.85	2.49523e-06
2102.52	9.21837e-07
2111.2	1.83036e-06
2119.88	2.24337e-06
2128.56	1.42686e-06
2137.24	7.96593e-07
2145.91	8.3784e-07
2154.59	1.37272e-06
2163.27	1.20741e-06
2171.95	1.15228e-06
2180.63	1.2712e-06
2189.31	1.09091e-06
2197.98	1.03172e-06
2206.66	1.10079e-06
2215.34	9.50446e-07
2224.02	9.78819e-07
2232.7	1.01084e-06
2241.37	8.43057e-07
2250.05	9.06716e-07
2258.73	9.39756e-07
2267.41	9.3698e-07
2276.09	9.7702e-07
2284.77	1.02742e-06
2293.44	1.06273e-06
2302.12	1.05503e-06
2310.8	1.16378e-06
2319.48	1.19374e-06
2328.16	1.33784e-06
2336.83	1.2588e-06
2345.51	1.55077e-06
2354.19	1.49199e-06
2362.87	1.76182e-06
2371.55	1.85724e-06
2380.23	1.71275e-06
2388.9	1.69112e-06
2397.58	1.57637e-06
2406.26	1.94482e-06
2414.94	1.79039e-06
2423.62	1.58537e-06
2432.29	1.48372e-06
2440.97	1.48439e-06
2449.65	1.32175e-06
2458.33	1.15542e-06
2467.01	1.04651e-06
2475.68	1.15659e-06
2484.36	1.16461e-06
2493.04	1.06615e-06
2501.72	1.01785e-06
2510.4	1.14105e-06
2519.08	1.26628e-06
2527.75	1.34443e-06
2536.43	1.17988e-06
2545.11	1.34511e-06
2553.79	1.5412e-06
2562.47	1.53635e-06
2571.14	1.59339e-06
2579.82	1.72645e-06
2588.5	1.99415e-06
2597.18	2.19354e-06
2605.86	2.36927e-06
2614.54	2.2652e-06
2623.21	2.59064e-06
2631.89	2.88548e-06
2640.57	2.36207e-06
2649.25	2.57628e-06
2657.93	2.29076e-06
2666.6	2.29175e-06
2675.28	2.14577e-06
2683.96	2.05225e-06
2692.64	2.16984e-06
2701.32	2.27033e-06
2709.99	2.28186e-06
2718.67	2.22347e-06
2727.35	3.07805e-06
2736.03	3.11482e-06
2744.71	4.31207e-06
2753.39	4.64077e-06
2762.06	4.90082e-06
2770.74	6.8871e-06
2779.42	9.24579e-06
2788.1	1.17257e-05
2796.78	1.76361e-05
2805.45	2.91072e-05
2814.13	4.34073e-05
2822.81	6.30204e-05
2831.49	5.98119e-05
2840.17	5.73558e-05
2848.85	5.30446e-05
2857.52	7.89085e-05
2866.2	8.89378e-05
2874.88	9.11302e-05
2883.56	6.86074e-05
2892.24	6.91932e-05
2900.91	8.16065e-05
2909.59	9.93709e-05
2918.27	0.000121896
2926.95	0.00011727
2935.63	0.000142495
2944.31	0.000136119
2952.98	0.000128681
2961.66	0.000119026
2970.34	0.00014045
2979.02	0.000126605
2987.7	0.000104033
2996.37	0.000103212
3005.05	8.26567e-05
3013.73	7.26584e-05
3022.41	6.08799e-05
3031.09	4.9317e-05
3039.76	3.70434e-05
3048.44	2.67113e-05
3057.12	2.03567e-05
3065.8	1.55983e-05
3074.48	1.0647e-05
3083.16	7.62184e-06
3091.83	6.00266e-06
3100.51	3.59073e-06
3109.19	2.40935e-06
3117.87	2.03883e-06
3126.55	1.42756e-06
3135.22	1.27003e-06
3143.9	1.34431e-06
3152.58	8.40572e-07
3161.26	1.16599e-06
3169.94	1.05244e-06
3178.62	1.046e-06
3187.29	9.92717e-07
3195.97	9.47283e-07
3204.65	9.44458e-07
3213.33	7.79746e-07
3222.01	8.41935e-07
3230.68	7.49945e-07
3239.36	8.02012e-07
3248.04	8.73227e-07
3256.72	7.50207e-07
3265.4	7.14881e-07
3274.07	5.98715e-07
3282.75	7.86873e-07
3291.43	6.89419e-07
3300.11	6.23723e-07
3308.79	5.90827e-07
3317.47	7.06194e-07
3326.14	7.90074e-07
3334.82	5.79733e-07
3343.5	7.78875e-07
3352.18	7.70862e-07
3360.86	9.67095e-07
3369.53	6.67222e-07
3378.21	1.49255e-06
3386.89	7.88881e-07
3395.57	1.16693e-06
3404.25	1.35626e-06
3412.93	1.03032e-06
3421.6	1.13525e-06
3430.28	1.31169e-06
3438.96	1.22346e-06
3447.64	1.29274e-06
3456.32	1.07686e-06
3464.99	1.64031e-06
3473.67	1.19718e-06
3482.35	2.14888e-06
3491.03	1.82655e-06
3499.71	2.04504e-06
3508.39	1.36292e-06
3517.06	1.63137e-06
3525.74	1.66399e-06
3534.42	1.58057e-06
3543.1	1.64088e-06
3551.78	1.9143e-06
3560.45	2.27885e-06
3569.13	2.12644e-06
3577.81	5.11994e-06
3586.49	4.91797e-06
3595.17	4.2411e-06
3603.84	3.77741e-06
3612.52	6.67457e-06
3621.2	1.14101e-05
3629.88	1.19786e-05
3638.56	2.00979e-05
3647.24	2.44254e-05
3655.91	2.95916e-05
3664.59	3.8588e-05
3673.27	4.22698e-05
3681.95	4.81699e-05
3690.63	2.70211e-05
3699.3	3.96935e-05
3707.98	4.06242e-05
3716.66	3.62051e-05
3725.34	2.48573e-05
3734.02	1.70983e-05
3742.7	9.21878e-06
3751.37	5.77343e-06
3760.05	4.99785e-06
3768.73	4.99616e-06
3777.41	3.57488e-06
3786.09	2.8501e-06
3794.76	2.73232e-06
3803.44	2.2752e-06
3812.12	3.77944e-06
3820.8	3.14562e-06
3829.48	2.24084e-06
3838.16	4.58498e-06
3846.83	2.59483e-06
3855.51	3.00845e-06
3864.19	2.66939e-06
3872.87	3.49754e-06
3881.55	2.09455e-06
3890.22	4.81095e-06
3898.9	3.62731e-06
3907.58	2.26042e-06
3916.26	2.26243e-06
3924.94	2.38138e-06
3933.61	2.96637e-06
3942.29	2.77347e-06
3950.97	2.48192e-06
3959.65	2.25639e-06
3968.33	2.64011e-06
