Infrared Spectrum: Methanol
Formula: C H3 O H
CAS: 67-56-1
State: gas
Melting point: -93.9 C
Boiling point: 64.96 C
Class: IUPAC A
Instrument: IFS66V (Bruker)
Instrument parameters: KBr Beam splitter; MCT Detector; Multipass cell
Sampling: 1 L/min Flow
Resolution: 0.4820
Temperature: 23 C
Pressure: 101.3 kPa
Origin: NIST, Anayltical Chemistry Division, 301-975-3108
cm-1	(micromol/mol)-1m-1 (base 10)
574.928	2.72164e-06
583.606	2.22469e-06
592.284	2.8158e-06
600.962	1.51643e-06
609.641	2.11289e-06
618.319	1.63127e-06
626.997	1.08763e-06
635.675	1.40936e-06
644.353	2.28179e-06
653.031	2.06657e-06
661.71	1.29474e-06
670.388	1.299e-06
679.066	1.04148e-06
687.744	1.16746e-06
696.422	1.58325e-06
705.1	1.16362e-06
713.778	1.49148e-06
722.457	1.12997e-06
731.135	1.24273e-06
739.813	8.5758e-07
748.491	1.53121e-06
757.169	1.06525e-06
765.847	9.42472e-07
774.526	8.59204e-07
783.204	6.5725e-07
791.882	6.84589e-07
800.56	7.62467e-07
809.238	7.59044e-07
817.916	8.60274e-07
826.594	8.34142e-07
835.273	7.03403e-07
843.951	1.03904e-06
852.629	1.05771e-06
861.307	9.27753e-07
869.985	1.1001e-06
878.663	1.22087e-06
887.342	1.27617e-06
896.02	1.30274e-06
904.698	1.42359e-06
913.376	1.97929e-06
922.054	2.49785e-06
930.732	3.20432e-06
939.41	4.28134e-06
948.089	4.40714e-06
956.767	5.67324e-06
965.445	1.24075e-05
974.123	2.72238e-05
982.801	3.9416e-05
991.479	8.30802e-05
1000.16	0.000202983
1008.84	0.000153367
1017.51	0.000257273
1026.19	0.00012136
1034.87	0.000128578
1043.55	0.000196572
1052.23	0.000380205
1060.9	0.000280839
1069.58	0.000141989
1078.26	3.92642e-05
1086.94	1.14984e-05
1095.62	9.2303e-06
1104.3	8.41367e-06
1112.97	7.74988e-06
1121.65	6.83601e-06
1130.33	5.76839e-06
1139.01	4.85864e-06
1147.69	5.74606e-06
1156.36	4.14997e-06
1165.04	5.72222e-06
1173.72	4.32787e-06
1182.4	6.05993e-06
1191.08	5.90001e-06
1199.76	7.46802e-06
1208.43	1.0102e-05
1217.11	8.79787e-06
1225.79	1.28475e-05
1234.47	8.677e-06
1243.15	1.23349e-05
1251.82	1.27324e-05
1260.5	1.4571e-05
1269.18	1.61775e-05
1277.86	1.32675e-05
1286.54	1.57776e-05
1295.21	1.92134e-05
1303.89	2.55582e-05
1312.57	2.74891e-05
1321.25	3.18175e-05
1329.93	2.75466e-05
1338.61	2.67871e-05
1347.28	5.01114e-05
1355.96	2.77006e-05
1364.64	3.11083e-05
1373.32	2.72663e-05
1382	2.29312e-05
1390.67	2.17799e-05
1399.35	2.18048e-05
1408.03	1.76164e-05
1416.71	1.75436e-05
1425.39	1.64935e-05
1434.07	1.52563e-05
1442.74	1.19474e-05
1451.42	1.16518e-05
1460.1	1.46529e-05
1468.78	1.67485e-05
1477.46	2.2987e-05
1486.13	1.27731e-05
1494.81	1.06353e-05
1503.49	8.78161e-06
1512.17	9.26392e-06
1520.85	9.94933e-06
1529.52	7.74041e-06
1538.2	8.31977e-06
1546.88	6.40683e-06
1555.56	5.42571e-06
1564.24	5.6423e-06
1572.92	3.45259e-06
1581.59	2.25219e-06
1590.27	2.31387e-06
1598.95	2.18892e-06
1607.63	1.42659e-06
1616.31	2.16373e-06
1624.98	1.04628e-06
1633.66	9.08157e-07
1642.34	8.25655e-07
1651.02	7.90521e-07
1659.7	6.90046e-07
1668.38	8.74407e-07
1677.05	6.51717e-07
1685.73	8.01819e-07
1694.41	6.63053e-07
1703.09	5.98661e-07
1711.77	4.73277e-07
1720.44	4.90457e-07
1729.12	5.48981e-07
1737.8	5.25843e-07
1746.48	5.49125e-07
1755.16	4.89764e-07
1763.84	5.2954e-07
1772.51	1.78354e-06
1781.19	5.05016e-07
1789.87	4.96036e-07
1798.55	5.03912e-07
1807.23	4.74526e-07
1815.9	5.17674e-07
1824.58	5.69523e-07
1833.26	5.5584e-07
1841.94	5.5381e-07
1850.62	4.82666e-07
1859.29	5.14348e-07
1867.97	7.31496e-07
1876.65	5.13975e-07
1885.33	5.22744e-07
1894.01	5.01989e-07
1902.69	4.68984e-07
1911.36	4.99112e-07
1920.04	4.75505e-07
1928.72	4.94177e-07
1937.4	4.51329e-07
1946.08	4.60146e-07
1954.75	3.99499e-07
1963.43	3.57866e-07
1972.11	3.74726e-07
1980.79	4.46869e-07
1989.47	6.54182e-07
1998.15	1.29227e-06
2006.82	1.67633e-06
2015.5	3.06857e-06
2024.18	3.62201e-06
2032.86	4.67927e-06
2041.54	3.6245e-06
2050.21	4.8906e-06
2058.89	2.32607e-06
2067.57	6.5895e-06
2076.25	9.39415e-06
2084.93	5.13455e-06
2093.6	2.28335e-06
2102.28	9.9607e-07
2110.96	1.65339e-06
2119.64	2.2533e-06
2128.32	1.46555e-06
2137	8.2235e-07
2145.67	7.60235e-07
2154.35	1.20596e-06
2163.03	1.15786e-06
2171.71	1.26723e-06
2180.39	1.36e-06
2189.06	1.17571e-06
2197.74	1.07207e-06
2206.42	1.14182e-06
2215.1	1.05162e-06
2223.78	9.99237e-07
2232.46	9.75537e-07
2241.13	8.42873e-07
2249.81	9.03615e-07
2258.49	8.93296e-07
2267.17	9.37246e-07
2275.85	9.51605e-07
2284.52	1.01826e-06
2293.2	1.05862e-06
2301.88	1.11949e-06
2310.56	1.18998e-06
2319.24	1.27796e-06
2327.92	1.36365e-06
2336.59	1.3209e-06
2345.27	1.71975e-06
2353.95	1.48118e-06
2362.63	1.851e-06
2371.31	1.85034e-06
2379.98	1.76527e-06
2388.66	1.70185e-06
2397.34	1.57658e-06
2406.02	1.97194e-06
2414.7	1.86706e-06
2423.37	1.59915e-06
2432.05	1.42999e-06
2440.73	1.44179e-06
2449.41	1.27688e-06
2458.09	1.20854e-06
2466.77	1.13183e-06
2475.44	1.10058e-06
2484.12	1.13801e-06
2492.8	1.11828e-06
2501.48	1.10247e-06
2510.16	1.11691e-06
2518.83	1.23512e-06
2527.51	1.41633e-06
2536.19	1.30721e-06
2544.87	1.33542e-06
2553.55	1.5299e-06
2562.23	1.51341e-06
2570.9	1.56759e-06
2579.58	1.71603e-06
2588.26	2.00135e-06
2596.94	2.27688e-06
2605.62	2.32328e-06
2614.29	2.34757e-06
2622.97	2.59614e-06
2631.65	3.08638e-06
2640.33	2.42492e-06
2649.01	2.52918e-06
2657.68	2.25445e-06
2666.36	2.37695e-06
2675.04	2.24732e-06
2683.72	2.15551e-06
2692.4	2.19854e-06
2701.08	2.30589e-06
2709.75	2.45104e-06
2718.43	2.28108e-06
2727.11	2.99078e-06
2735.79	3.23395e-06
2744.47	4.1313e-06
2753.14	4.85972e-06
2761.82	5.25258e-06
2770.5	6.91853e-06
2779.18	9.01326e-06
2787.86	1.20028e-05
2796.54	1.77529e-05
2805.21	2.76747e-05
2813.89	4.51713e-05
2822.57	6.14856e-05
2831.25	5.84023e-05
2839.93	5.79876e-05
2848.6	5.81112e-05
2857.28	7.85399e-05
2865.96	9.28895e-05
2874.64	8.44145e-05
2883.32	6.91472e-05
2892	7.0082e-05
2900.67	7.82148e-05
2909.35	0.000106182
2918.03	0.000117606
2926.71	0.000118577
2935.39	0.000142573
2944.06	0.000140552
2952.74	0.000135199
2961.42	0.000126005
2970.1	0.000137892
2978.78	0.000131991
2987.45	0.000112638
2996.13	9.95636e-05
3004.81	7.83938e-05
3013.49	6.81849e-05
3022.17	6.21393e-05
3030.85	4.60824e-05
3039.52	3.69085e-05
3048.2	2.78191e-05
3056.88	2.11025e-05
3065.56	1.55496e-05
3074.24	1.11603e-05
3082.91	7.73628e-06
3091.59	5.65786e-06
3100.27	3.4293e-06
3108.95	2.40324e-06
3117.63	1.8781e-06
3126.31	1.36759e-06
3134.98	1.19695e-06
3143.66	1.31381e-06
3152.34	8.66908e-07
3161.02	1.19393e-06
3169.7	9.76572e-07
3178.37	1.01717e-06
3187.05	1.03242e-06
3195.73	8.619e-07
3204.41	8.85918e-07
3213.09	8.00097e-07
3221.77	8.70949e-07
3230.44	7.73749e-07
3239.12	8.62951e-07
3247.8	7.84779e-07
3256.48	7.33378e-07
3265.16	6.8294e-07
3273.83	5.6696e-07
3282.51	6.37245e-07
3291.19	6.4624e-07
3299.87	5.95881e-07
3308.55	5.92644e-07
3317.22	7.1925e-07
3325.9	7.14452e-07
3334.58	5.83773e-07
3343.26	7.68945e-07
3351.94	7.64415e-07
3360.62	8.18516e-07
3369.29	6.64659e-07
3377.97	1.24343e-06
3386.65	8.5917e-07
3395.33	9.61978e-07
3404.01	1.22724e-06
3412.68	1.00363e-06
3421.36	1.11671e-06
3430.04	1.21342e-06
3438.72	1.16346e-06
3447.4	1.12723e-06
3456.08	1.23116e-06
3464.75	1.56517e-06
3473.43	1.29781e-06
3482.11	2.06661e-06
3490.79	1.86511e-06
3499.47	1.85508e-06
3508.14	1.47057e-06
3516.82	1.60753e-06
3525.5	1.40976e-06
3534.18	2.18915e-06
3542.86	1.62432e-06
3551.53	1.75446e-06
3560.21	2.04019e-06
3568.89	2.35325e-06
3577.57	3.77425e-06
3586.25	4.41384e-06
3594.93	4.18444e-06
3603.6	3.86218e-06
3612.28	5.84593e-06
3620.96	9.80761e-06
3629.64	1.30181e-05
3638.32	1.81938e-05
3646.99	2.34867e-05
3655.67	3.17876e-05
3664.35	3.77534e-05
3673.03	4.31249e-05
3681.71	6.37451e-05
3690.39	2.84962e-05
3699.06	4.19027e-05
3707.74	3.97483e-05
3716.42	3.87632e-05
3725.1	2.4928e-05
3733.78	1.75397e-05
3742.45	1.01648e-05
3751.13	5.78561e-06
3759.81	5.60386e-06
3768.49	4.48774e-06
3777.17	3.30641e-06
3785.85	2.98303e-06
3794.52	2.67532e-06
3803.2	2.77178e-06
3811.88	3.36116e-06
3820.56	2.98389e-06
3829.24	2.1863e-06
3837.91	5.22494e-06
3846.59	2.37637e-06
3855.27	2.69761e-06
3863.95	2.77241e-06
3872.63	3.69293e-06
3881.3	2.38652e-06
3889.98	4.98182e-06
3898.66	3.44511e-06
3907.34	2.25102e-06
3916.02	2.38595e-06
3924.7	2.36056e-06
3933.37	2.83896e-06
3942.05	2.65686e-06
3950.73	2.34667e-06
3959.41	2.36264e-06
3968.09	2.59782e-06
