Infrared Spectrum: Methanol
Formula: C H3 O H
CAS: 67-56-1
State: gas
Melting point: -93.9 C
Boiling point: 64.96 C
Class: IUPAC A
Instrument: IFS66V (Bruker)
Instrument parameters: KBr Beam splitter; MCT Detector; Multipass cell
Sampling: 1 L/min Flow
Resolution: 0.1250
Temperature: 23 C
Pressure: 101.3 kPa
Origin: NIST, Anayltical Chemistry Division, 301-975-3108
cm-1	(micromol/mol)-1m-1 (base 10)
574.988	2.29837e-06
583.546	1.55453e-06
592.103	2.74554e-06
600.661	1.10597e-06
609.219	2.18743e-06
617.776	4.19536e-06
626.334	1.03931e-06
634.891	1.08696e-06
643.449	2.60611e-06
652.007	1.08565e-06
660.564	1.55938e-06
669.122	1.77998e-06
677.68	1.33104e-06
686.237	1.28545e-06
694.795	3.18544e-06
703.352	1.33562e-06
711.91	1.79108e-06
720.468	1.86398e-06
729.025	1.07703e-06
737.583	1.51388e-06
746.141	9.93918e-07
754.698	1.77113e-06
763.256	1.13215e-06
771.813	4.71067e-07
780.371	2.50627e-06
788.929	6.80362e-07
797.486	7.85286e-07
806.044	1.09944e-06
814.602	8.59293e-07
823.159	9.81151e-07
831.717	6.88409e-07
840.274	1.15877e-06
848.832	1.1238e-06
857.39	8.74285e-07
865.947	1.10803e-06
874.505	1.59889e-06
883.063	1.09608e-06
891.62	1.28502e-06
900.178	2.15983e-06
908.735	1.84696e-06
917.293	1.72545e-06
925.851	2.63691e-06
934.408	3.29408e-06
942.966	3.43829e-06
951.524	5.18163e-06
960.081	9.51699e-06
968.639	1.9939e-05
977.196	3.07148e-05
985.754	6.34363e-05
994.312	0.00014191
1002.87	0.000151551
1011.43	0.000237837
1019.98	0.000180867
1028.54	0.000109543
1037.1	9.00948e-05
1045.66	0.00021456
1054.22	0.00031336
1062.77	0.000291743
1071.33	0.000114696
1079.89	3.0894e-05
1088.45	1.10673e-05
1097	1.03701e-05
1105.56	9.45576e-06
1114.12	1.08884e-05
1122.68	7.55805e-06
1131.23	5.41979e-06
1139.79	5.80919e-06
1148.35	4.62345e-06
1156.91	5.74197e-06
1165.46	4.79482e-06
1174.02	4.13206e-06
1182.58	6.10475e-06
1191.14	5.97342e-06
1199.69	7.34038e-06
1208.25	1.1384e-05
1216.81	8.22749e-06
1225.37	1.44728e-05
1233.93	1.32074e-05
1242.48	1.14828e-05
1251.04	1.30844e-05
1259.6	1.44792e-05
1268.16	1.31873e-05
1276.71	1.70413e-05
1285.27	1.61226e-05
1293.83	2.25857e-05
1302.39	2.62089e-05
1310.94	2.39837e-05
1319.5	2.86986e-05
1328.06	3.09102e-05
1336.62	2.65251e-05
1345.17	5.36638e-05
1353.73	3.53191e-05
1362.29	2.4445e-05
1370.85	3.32508e-05
1379.4	2.89416e-05
1387.96	2.47215e-05
1396.52	2.15312e-05
1405.08	1.97054e-05
1413.64	1.97803e-05
1422.19	1.54912e-05
1430.75	1.77399e-05
1439.31	1.47702e-05
1447.87	1.03289e-05
1456.42	1.70323e-05
1464.98	1.68095e-05
1473.54	2.11144e-05
1482.1	1.24838e-05
1490.65	1.31606e-05
1499.21	1.31514e-05
1507.77	1.05583e-05
1516.33	9.42921e-06
1524.88	8.3527e-06
1533.44	7.15859e-06
1542	9.84607e-06
1550.56	6.63025e-06
1559.11	6.24019e-06
1567.67	4.27231e-06
1576.23	7.78884e-06
1584.79	2.46283e-06
1593.35	2.21918e-06
1601.9	1.73733e-06
1610.46	1.20912e-06
1619.02	1.11378e-06
1627.58	1.17434e-06
1636.13	1.22617e-06
1644.69	7.32776e-07
1653.25	6.49605e-06
1661.81	6.28643e-07
1670.36	6.90512e-07
1678.92	5.68349e-07
1687.48	5.88678e-07
1696.04	4.52287e-06
1704.59	1.12414e-06
1713.15	5.52981e-07
1721.71	5.71607e-07
1730.27	5.79638e-07
1738.83	5.35546e-07
1747.38	5.96556e-07
1755.94	4.60829e-07
1764.5	4.15413e-07
1773.06	9.05779e-07
1781.61	4.63045e-07
1790.17	5.38105e-07
1798.73	5.0556e-07
1807.29	4.87718e-07
1815.84	5.27419e-07
1824.4	5.78252e-07
1832.96	4.99845e-07
1841.52	5.93846e-07
1850.07	4.70768e-07
1858.63	5.6895e-07
1867.19	5.85599e-07
1875.75	5.84535e-07
1884.3	5.12496e-07
1892.86	5.12241e-07
1901.42	4.62956e-07
1909.98	6.58478e-07
1918.54	5.49223e-07
1927.09	4.5835e-07
1935.65	4.73091e-07
1944.21	5.50791e-07
1952.77	4.9268e-07
1961.32	5.52792e-07
1969.88	4.55931e-07
1978.44	4.89971e-07
1987	5.23439e-07
1995.55	1.06372e-06
2004.11	1.54331e-06
2012.67	2.1331e-06
2021.23	2.11976e-06
2029.78	2.61428e-06
2038.34	2.93175e-06
2046.9	3.78147e-06
2055.46	3.02694e-06
2064.01	4.32731e-06
2072.57	8.13165e-06
2081.13	8.19953e-06
2089.69	1.81163e-06
2098.25	1.48726e-06
2106.8	1.49084e-06
2115.36	2.38664e-06
2123.92	1.9622e-06
2132.48	1.26861e-06
2141.03	8.11985e-07
2149.59	1.52988e-06
2158.15	1.51883e-06
2166.71	1.38224e-06
2175.26	1.44417e-06
2183.82	1.2426e-06
2192.38	1.15843e-06
2200.94	1.0356e-06
2209.49	1.35237e-06
2218.05	1.02184e-06
2226.61	9.49044e-07
2235.17	9.45031e-07
2243.72	9.03713e-07
2252.28	1.07707e-06
2260.84	9.76179e-07
2269.4	1.00362e-06
2277.96	1.04929e-06
2286.51	1.10643e-06
2295.07	1.1404e-06
2303.63	9.78537e-07
2312.19	1.27328e-06
2320.74	1.22539e-06
2329.3	1.44748e-06
2337.86	1.45029e-06
2346.42	1.72387e-06
2354.97	1.6191e-06
2363.53	1.6378e-06
2372.09	1.98372e-06
2380.65	1.48741e-06
2389.2	1.61707e-06
2397.76	1.63521e-06
2406.32	1.94001e-06
2414.88	1.89845e-06
2423.44	1.56737e-06
2431.99	1.4834e-06
2440.55	1.29076e-06
2449.11	1.28514e-06
2457.67	1.35681e-06
2466.22	1.2744e-06
2474.78	1.18708e-06
2483.34	1.12478e-06
2491.9	1.02221e-06
2500.45	1.18714e-06
2509.01	1.16654e-06
2517.57	1.09086e-06
2526.13	1.43207e-06
2534.68	1.38298e-06
2543.24	1.28507e-06
2551.8	1.25254e-06
2560.36	1.44888e-06
2568.91	1.43129e-06
2577.47	1.63307e-06
2586.03	2.07244e-06
2594.59	2.6078e-06
2603.15	2.27162e-06
2611.7	2.31767e-06
2620.26	2.419e-06
2628.82	2.52228e-06
2637.38	2.25422e-06
2645.93	2.35212e-06
2654.49	2.17615e-06
2663.05	2.06041e-06
2671.61	2.77502e-06
2680.16	2.57496e-06
2688.72	2.18674e-06
2697.28	2.54552e-06
2705.84	2.43195e-06
2714.39	2.36213e-06
2722.95	2.46653e-06
2731.51	2.60668e-06
2740.07	3.75672e-06
2748.62	4.82228e-06
2757.18	5.16222e-06
2765.74	6.05686e-06
2774.3	7.43618e-06
2782.86	1.01802e-05
2791.41	1.41685e-05
2799.97	2.1971e-05
2808.53	3.35628e-05
2817.09	5.53328e-05
2825.64	5.28295e-05
2834.2	5.36612e-05
2842.76	8.51109e-05
2851.32	4.54969e-05
2859.87	8.39724e-05
2868.43	9.83914e-05
2876.99	7.50648e-05
2885.55	5.81105e-05
2894.1	6.69363e-05
2902.66	9.14735e-05
2911.22	0.00010102
2919.78	0.00013751
2928.34	0.000117534
2936.89	0.000161306
2945.45	0.000135659
2954.01	0.000135128
2962.57	0.000145215
2971.12	0.000148743
2979.68	0.000161677
2988.24	0.000127066
2996.8	0.000101395
3005.35	0.000112714
3013.91	7.31906e-05
3022.47	6.55077e-05
3031.03	4.83639e-05
3039.58	3.65244e-05
3048.14	3.11925e-05
3056.7	2.27478e-05
3065.26	1.36702e-05
3073.81	1.18672e-05
3082.37	8.05837e-06
3090.93	4.68786e-06
3099.49	3.50475e-06
3108.05	2.41067e-06
3116.6	1.72355e-06
3125.16	1.22964e-06
3133.72	1.28223e-06
3142.28	1.17395e-06
3150.83	9.71503e-07
3159.39	9.43356e-07
3167.95	8.91247e-07
3176.51	5.51919e-07
3185.06	9.22428e-07
3193.62	9.43278e-07
3202.18	9.13102e-07
3210.74	8.9401e-07
3219.29	7.17669e-07
3227.85	8.30706e-07
3236.41	9.13948e-07
3244.97	8.72587e-07
3253.52	5.81401e-07
3262.08	8.24349e-07
3270.64	5.01584e-07
3279.2	5.13031e-07
3287.76	7.76086e-07
3296.31	7.007e-07
3304.87	5.68198e-07
3313.43	6.55406e-07
3321.99	1.0376e-06
3330.54	7.38491e-07
3339.1	7.01273e-07
3347.66	6.01162e-07
3356.22	5.72773e-07
3364.77	9.51483e-07
3373.33	9.5033e-07
3381.89	8.45236e-07
3390.45	9.63594e-07
3399	8.31749e-07
3407.56	1.01713e-06
3416.12	9.09905e-07
3424.68	9.26377e-07
3433.23	1.37074e-06
3441.79	1.51853e-06
3450.35	1.35276e-06
3458.91	2.05422e-06
3467.47	1.48413e-06
3476.02	1.63398e-06
3484.58	2.12617e-06
3493.14	1.95861e-06
3501.7	1.45771e-06
3510.25	1.7196e-06
3518.81	1.45716e-06
3527.37	1.81127e-06
3535.93	1.96437e-06
3544.48	1.61088e-06
3553.04	1.54e-06
3561.6	2.20584e-06
3570.16	2.41603e-06
3578.71	2.21093e-06
3587.27	3.04915e-06
3595.83	5.91877e-06
3604.39	4.35475e-06
3612.95	8.21851e-06
3621.5	1.03453e-05
3630.06	1.10375e-05
3638.62	1.96785e-05
3647.18	2.5902e-05
3655.73	3.21687e-05
3664.29	3.63502e-05
3672.85	4.79309e-05
3681.41	8.65377e-05
3689.96	2.8236e-05
3698.52	4.45406e-05
3707.08	4.8512e-05
3715.64	3.4882e-05
3724.19	2.52186e-05
3732.75	1.993e-05
3741.31	9.88154e-06
3749.87	9.3743e-06
3758.42	1.15719e-05
3766.98	4.53325e-06
3775.54	2.83051e-06
3784.1	3.0929e-06
3792.66	3.05927e-06
3801.21	4.50532e-06
3809.77	3.31944e-06
3818.33	2.24287e-06
3826.89	3.22724e-06
3835.44	2.61455e-06
3844	2.66959e-06
3852.56	3.70672e-06
3861.12	2.12837e-06
3869.67	3.90262e-06
3878.23	2.09919e-06
3886.79	3.21644e-06
3895.35	3.29495e-06
3903.9	3.15856e-06
3912.46	2.05933e-06
3921.02	3.06176e-06
3929.58	2.29042e-06
3938.13	2.65261e-06
3946.69	3.06382e-06
3955.25	2.52432e-06
3963.81	2.68677e-06
3972.37	2.51805e-06
