Infrared Spectrum: Methanol
Formula: C H3 O H
CAS: 67-56-1
State: gas
Melting point: -93.9 C
Boiling point: 64.96 C
Class: IUPAC A
Instrument: IFS66V (Bruker)
Instrument parameters: KBr Beam splitter; MCT Detector; Multipass cell
Sampling: 1 L/min Flow
Resolution: 1.9290
Temperature: 23 C
Pressure: 101.3 kPa
Origin: NIST, Anayltical Chemistry Division, 301-975-3108
cm-1	(micromol/mol)-1m-1 (base 10)
574.687	4.28316e-06
583.365	3.24597e-06
592.043	2.34491e-06
600.721	2.47721e-06
609.4	1.97399e-06
618.078	2.5185e-06
626.756	1.24107e-06
635.434	1.43396e-06
644.112	2.0162e-06
652.79	1.91897e-06
661.469	1.43986e-06
670.147	1.37618e-06
678.825	1.40319e-06
687.503	1.32317e-06
696.181	1.8002e-06
704.859	1.22884e-06
713.537	1.44656e-06
722.216	1.38425e-06
730.894	1.17666e-06
739.572	9.22065e-07
748.25	1.27448e-06
756.928	1.17056e-06
765.606	1.11174e-06
774.285	9.58621e-07
782.963	7.25614e-07
791.641	8.33912e-07
800.319	8.73654e-07
808.997	8.59111e-07
817.675	9.95872e-07
826.353	9.31452e-07
835.032	8.38409e-07
843.71	1.02435e-06
852.388	1.00704e-06
861.066	1.26976e-06
869.744	1.19803e-06
878.422	1.23763e-06
887.101	1.23055e-06
895.779	1.44937e-06
904.457	1.45469e-06
913.135	1.96458e-06
921.813	2.34312e-06
930.491	3.04778e-06
939.169	3.90449e-06
947.848	4.42006e-06
956.526	6.7355e-06
965.204	1.24394e-05
973.882	2.64029e-05
982.56	5.4591e-05
991.238	0.000102818
999.917	0.000170183
1008.59	0.000228497
1017.27	0.000227819
1025.95	0.000123479
1034.63	0.000403127
1043.31	0.000170806
1051.99	0.000330566
1060.66	0.000295865
1069.34	0.000146568
1078.02	4.02442e-05
1086.7	1.14661e-05
1095.38	9.8462e-06
1104.05	8.61043e-06
1112.73	8.71001e-06
1121.41	7.22759e-06
1130.09	6.19842e-06
1138.77	5.36913e-06
1147.45	5.23622e-06
1156.12	4.70697e-06
1164.8	5.42047e-06
1173.48	4.48241e-06
1182.16	5.70269e-06
1190.84	6.43329e-06
1199.51	8.10101e-06
1208.19	1.03459e-05
1216.87	9.87537e-06
1225.55	1.20176e-05
1234.23	1.10641e-05
1242.9	1.16332e-05
1251.58	1.28969e-05
1260.26	1.40373e-05
1268.94	1.48039e-05
1277.62	1.42381e-05
1286.3	1.56608e-05
1294.97	2.0636e-05
1303.65	2.38034e-05
1312.33	2.59571e-05
1321.01	3.46181e-05
1329.69	2.97824e-05
1338.36	2.92645e-05
1347.04	4.11658e-05
1355.72	3.12288e-05
1364.4	2.87548e-05
1373.08	2.8895e-05
1381.76	2.3818e-05
1390.43	2.2973e-05
1399.11	2.1874e-05
1407.79	1.70902e-05
1416.47	1.72928e-05
1425.15	1.73119e-05
1433.82	1.68198e-05
1442.5	1.19517e-05
1451.18	1.28519e-05
1459.86	1.52875e-05
1468.54	1.55287e-05
1477.22	1.93552e-05
1485.89	1.23595e-05
1494.57	1.00582e-05
1503.25	9.19872e-06
1511.93	1.04983e-05
1520.61	9.84117e-06
1529.28	8.48233e-06
1537.96	8.40435e-06
1546.64	6.72647e-06
1555.32	5.9903e-06
1564	4.76061e-06
1572.67	3.6785e-06
1581.35	2.80667e-06
1590.03	2.34462e-06
1598.71	1.96828e-06
1607.39	1.52748e-06
1616.07	1.97135e-06
1624.74	1.20327e-06
1633.42	9.80856e-07
1642.1	7.74751e-07
1650.78	1.00792e-06
1659.46	6.6878e-07
1668.13	9.07202e-07
1676.81	7.88635e-07
1685.49	1.63199e-06
1694.17	8.59295e-07
1702.85	6.84962e-07
1711.53	5.45676e-07
1720.2	6.07894e-07
1728.88	5.93508e-07
1737.56	5.3449e-07
1746.24	5.74489e-07
1754.92	5.07789e-07
1763.59	5.34677e-07
1772.27	1.06995e-06
1780.95	5.47938e-07
1789.63	5.31833e-07
1798.31	5.38392e-07
1806.98	4.75736e-07
1815.66	4.90352e-07
1824.34	6.14449e-07
1833.02	5.12612e-07
1841.7	5.32294e-07
1850.38	5.05991e-07
1859.05	5.16057e-07
1867.73	6.50303e-07
1876.41	5.1987e-07
1885.09	5.25602e-07
1893.77	5.21785e-07
1902.44	4.91014e-07
1911.12	5.13564e-07
1919.8	5.04262e-07
1928.48	4.72187e-07
1937.16	4.75985e-07
1945.84	4.60135e-07
1954.51	4.2098e-07
1963.19	4.06605e-07
1971.87	4.24875e-07
1980.55	5.28889e-07
1989.23	7.49848e-07
1997.9	1.15333e-06
2006.58	1.73507e-06
2015.26	2.50012e-06
2023.94	3.46712e-06
2032.62	4.03532e-06
2041.3	3.66416e-06
2049.97	4.78402e-06
2058.65	2.42982e-06
2067.33	6.17658e-06
2076.01	9.23337e-06
2084.69	5.29145e-06
2093.36	1.98582e-06
2102.04	1.04744e-06
2110.72	1.75305e-06
2119.4	2.1115e-06
2128.08	1.53865e-06
2136.75	9.44162e-07
2145.43	8.74159e-07
2154.11	1.1745e-06
2162.79	1.2456e-06
2171.47	1.30888e-06
2180.15	1.43545e-06
2188.82	1.22881e-06
2197.5	1.11284e-06
2206.18	1.04576e-06
2214.86	1.03738e-06
2223.54	1.01242e-06
2232.21	9.84478e-07
2240.89	8.83628e-07
2249.57	9.17961e-07
2258.25	8.98737e-07
2266.93	9.45018e-07
2275.61	9.62947e-07
2284.28	1.00702e-06
2292.96	1.10171e-06
2301.64	1.16505e-06
2310.32	1.19243e-06
2319	1.23315e-06
2327.67	1.40835e-06
2336.35	1.37776e-06
2345.03	1.65826e-06
2353.71	1.56102e-06
2362.39	1.73098e-06
2371.06	1.78523e-06
2379.74	1.71737e-06
2388.42	1.65941e-06
2397.1	1.61967e-06
2405.78	1.97851e-06
2414.46	1.84978e-06
2423.13	1.58666e-06
2431.81	1.4459e-06
2440.49	1.39628e-06
2449.17	1.30732e-06
2457.85	1.21354e-06
2466.52	1.1802e-06
2475.2	1.10363e-06
2483.88	1.16257e-06
2492.56	1.1386e-06
2501.24	1.13473e-06
2509.92	1.13905e-06
2518.59	1.20191e-06
2527.27	1.37263e-06
2535.95	1.33583e-06
2544.63	1.35242e-06
2553.31	1.49227e-06
2561.98	1.49462e-06
2570.66	1.59508e-06
2579.34	1.72753e-06
2588.02	1.99177e-06
2596.7	2.2562e-06
2605.38	2.17787e-06
2614.05	2.40256e-06
2622.73	2.54803e-06
2631.41	2.7685e-06
2640.09	2.41452e-06
2648.77	2.43057e-06
2657.44	2.27498e-06
2666.12	2.38069e-06
2674.8	2.26895e-06
2683.48	2.26466e-06
2692.16	2.18568e-06
2700.83	2.36945e-06
2709.51	2.45615e-06
2718.19	2.33925e-06
2726.87	2.93962e-06
2735.55	3.33249e-06
2744.23	3.99321e-06
2752.9	4.8217e-06
2761.58	5.42794e-06
2770.26	6.99847e-06
2778.94	8.73974e-06
2787.62	1.1817e-05
2796.29	1.72827e-05
2804.97	2.80298e-05
2813.65	4.44993e-05
2822.33	6.03748e-05
2831.01	5.94013e-05
2839.69	5.67274e-05
2848.36	5.74488e-05
2857.04	7.36302e-05
2865.72	9.561e-05
2874.4	8.48615e-05
2883.08	6.76184e-05
2891.75	6.91532e-05
2900.43	7.87468e-05
2909.11	0.000102155
2917.79	0.000119452
2926.47	0.000123926
2935.14	0.00013993
2943.82	0.000140245
2952.5	0.00014096
2961.18	0.000129314
2969.86	0.000142791
2978.54	0.000139581
2987.21	0.000123525
2995.89	9.70406e-05
3004.57	8.72858e-05
3013.25	7.35462e-05
3021.93	6.03206e-05
3030.6	5.10006e-05
3039.28	3.62736e-05
3047.96	2.83204e-05
3056.64	2.09617e-05
3065.32	1.68104e-05
3074	1.11063e-05
3082.67	7.70317e-06
3091.35	5.19808e-06
3100.03	3.5328e-06
3108.71	2.49744e-06
3117.39	1.87604e-06
3126.06	1.42956e-06
3134.74	1.24965e-06
3143.42	1.19117e-06
3152.1	9.70143e-07
3160.78	1.08442e-06
3169.46	9.51362e-07
3178.13	9.82938e-07
3186.81	9.7069e-07
3195.49	8.87889e-07
3204.17	9.03076e-07
3212.85	8.82137e-07
3221.52	8.53569e-07
3230.2	7.51583e-07
3238.88	7.60175e-07
3247.56	7.60803e-07
3256.24	6.95376e-07
3264.91	6.72851e-07
3273.59	6.00867e-07
3282.27	6.43948e-07
3290.95	5.8284e-07
3299.63	6.11041e-07
3308.31	5.9826e-07
3316.98	6.26866e-07
3325.66	6.05153e-07
3334.34	6.19806e-07
3343.02	7.05932e-07
3351.7	7.22123e-07
3360.37	7.13262e-07
3369.05	6.91024e-07
3377.73	9.87727e-07
3386.41	9.09989e-07
3395.09	9.64353e-07
3403.77	1.09198e-06
3412.44	1.01304e-06
3421.12	1.1272e-06
3429.8	1.29725e-06
3438.48	1.26906e-06
3447.16	1.26823e-06
3455.83	1.20999e-06
3464.51	1.47764e-06
3473.19	1.38804e-06
3481.87	2.31664e-06
3490.55	1.79895e-06
3499.22	1.86011e-06
3507.9	1.58703e-06
3516.58	1.50509e-06
3525.26	2.03249e-06
3533.94	2.39487e-06
3542.62	1.69699e-06
3551.29	1.83506e-06
3559.97	2.06757e-06
3568.65	3.64972e-06
3577.33	3.51085e-06
3586.01	3.60277e-06
3594.68	4.44395e-06
3603.36	4.18672e-06
3612.04	6.35168e-06
3620.72	9.03082e-06
3629.4	1.2892e-05
3638.08	1.73797e-05
3646.75	2.47692e-05
3655.43	3.51421e-05
3664.11	4.43396e-05
3672.79	4.04492e-05
3681.47	6.21132e-05
3690.14	2.85041e-05
3698.82	4.42092e-05
3707.5	4.57595e-05
3716.18	3.74566e-05
3724.86	2.53236e-05
3733.54	1.75355e-05
3742.21	9.47319e-06
3750.89	7.94156e-06
3759.57	7.22381e-06
3768.25	4.56454e-06
3776.93	3.57142e-06
3785.6	2.71206e-06
3794.28	2.71409e-06
3802.96	2.76015e-06
3811.64	3.88583e-06
3820.32	2.54428e-06
3828.99	2.37838e-06
3837.67	3.43345e-06
3846.35	2.43814e-06
3855.03	4.25361e-06
3863.71	3.11295e-06
3872.39	3.41732e-06
3881.06	2.53257e-06
3889.74	3.82922e-06
3898.42	3.53007e-06
3907.1	2.36541e-06
3915.78	2.34373e-06
3924.45	2.53489e-06
3933.13	2.65199e-06
3941.81	2.72612e-06
3950.49	2.47233e-06
3959.17	2.45244e-06
3967.85	2.65232e-06
