Infrared Spectrum: Methanol
Formula: C H3 O H
CAS: 67-56-1
State: gas
Melting point: -93.9 C
Boiling point: 64.96 C
Class: IUPAC A
Instrument: IFS66V (Bruker)
Instrument parameters: KBr Beam splitter; MCT Detector; Multipass cell
Sampling: 1 L/min Flow
Resolution: 0.9640
Temperature: 23 C
Pressure: 101.3 kPa
Origin: NIST, Anayltical Chemistry Division, 301-975-3108
cm-1	(micromol/mol)-1m-1 (base 10)
575.169	2.61569e-06
583.847	2.25627e-06
592.525	2.37846e-06
601.203	1.53478e-06
609.882	1.9438e-06
618.56	1.67765e-06
627.238	1.22797e-06
635.916	1.29242e-06
644.594	1.93118e-06
653.272	1.99141e-06
661.951	1.39407e-06
670.629	1.38543e-06
679.307	1.20785e-06
687.985	1.21395e-06
696.663	1.70023e-06
705.341	1.27156e-06
714.019	1.38426e-06
722.698	1.18822e-06
731.376	1.2229e-06
740.054	8.61122e-07
748.732	1.40257e-06
757.41	1.23493e-06
766.088	1.0575e-06
774.767	9.32684e-07
783.445	6.31223e-07
792.123	8.6837e-07
800.801	7.6551e-07
809.479	8.46314e-07
818.157	1.00466e-06
826.835	8.70964e-07
835.514	8.02314e-07
844.192	1.02707e-06
852.87	1.0942e-06
861.548	9.2821e-07
870.226	1.12538e-06
878.904	1.32e-06
887.583	1.24865e-06
896.261	1.39675e-06
904.939	1.47008e-06
913.617	1.90342e-06
922.295	2.36259e-06
930.973	3.1981e-06
939.651	3.91852e-06
948.33	4.50173e-06
957.008	6.24411e-06
965.686	1.1585e-05
974.364	2.3033e-05
983.042	4.29529e-05
991.72	9.81723e-05
1000.4	0.000212386
1009.08	0.000186554
1017.75	0.000208579
1026.43	0.000106759
1035.11	0.000112095
1043.79	0.00017817
1052.47	0.000334158
1061.15	0.000288691
1069.82	0.000140056
1078.5	3.67169e-05
1087.18	1.09477e-05
1095.86	8.9854e-06
1104.54	8.49525e-06
1113.21	8.55297e-06
1121.89	6.83704e-06
1130.57	5.99861e-06
1139.25	4.71649e-06
1147.93	5.56263e-06
1156.61	4.78293e-06
1165.28	5.25779e-06
1173.96	4.42287e-06
1182.64	5.91436e-06
1191.32	6.26012e-06
1200	7.97634e-06
1208.67	1.07097e-05
1217.35	9.68532e-06
1226.03	1.19519e-05
1234.71	9.74746e-06
1243.39	1.14475e-05
1252.07	1.28088e-05
1260.74	1.36524e-05
1269.42	1.5241e-05
1278.1	1.46642e-05
1286.78	1.63533e-05
1295.46	1.98371e-05
1304.13	2.56892e-05
1312.81	2.50168e-05
1321.49	3.67222e-05
1330.17	2.8671e-05
1338.85	2.95604e-05
1347.52	4.27842e-05
1356.2	2.82202e-05
1364.88	2.96468e-05
1373.56	2.69604e-05
1382.24	2.2651e-05
1390.92	2.24168e-05
1399.59	2.16937e-05
1408.27	1.75253e-05
1416.95	1.67146e-05
1425.63	1.81811e-05
1434.31	1.59838e-05
1442.98	1.16132e-05
1451.66	1.38954e-05
1460.34	1.55624e-05
1469.02	1.683e-05
1477.7	2.13043e-05
1486.38	1.32193e-05
1495.05	1.00347e-05
1503.73	8.99212e-06
1512.41	9.19303e-06
1521.09	1.0414e-05
1529.77	7.98125e-06
1538.44	8.64397e-06
1547.12	6.90229e-06
1555.8	5.28483e-06
1564.48	5.21881e-06
1573.16	4.14572e-06
1581.83	2.53002e-06
1590.51	2.11121e-06
1599.19	2.00901e-06
1607.87	1.44424e-06
1616.55	3.01438e-06
1625.23	1.06393e-06
1633.9	9.19028e-07
1642.58	8.07364e-07
1651.26	8.1067e-07
1659.94	6.92986e-07
1668.62	9.48976e-07
1677.29	6.39823e-07
1685.97	7.35542e-07
1694.65	7.42703e-07
1703.33	6.07731e-07
1712.01	4.73991e-07
1720.69	5.05497e-07
1729.36	6.39726e-07
1738.04	4.84745e-07
1746.72	6.05282e-07
1755.4	4.76647e-07
1764.08	5.01063e-07
1772.75	1.70894e-06
1781.43	4.80408e-07
1790.11	5.09288e-07
1798.79	5.13406e-07
1807.47	5.05972e-07
1816.15	5.05104e-07
1824.82	7.45208e-07
1833.5	5.32313e-07
1842.18	5.52778e-07
1850.86	5.04035e-07
1859.54	5.15039e-07
1868.21	6.59237e-07
1876.89	5.30124e-07
1885.57	5.19882e-07
1894.25	5.02758e-07
1902.93	4.75799e-07
1911.6	5.33543e-07
1920.28	4.78815e-07
1928.96	4.53891e-07
1937.64	4.62869e-07
1946.32	4.54317e-07
1955	3.99146e-07
1963.67	3.66226e-07
1972.35	3.65522e-07
1981.03	5.04529e-07
1989.71	7.66123e-07
1998.39	1.39453e-06
2007.06	1.37825e-06
2015.74	3.17585e-06
2024.42	4.02457e-06
2033.1	4.70449e-06
2041.78	3.27184e-06
2050.46	4.95863e-06
2059.13	2.55566e-06
2067.81	6.43782e-06
2076.49	9.09872e-06
2085.17	4.9058e-06
2093.85	2.30753e-06
2102.52	1.06975e-06
2111.2	1.86547e-06
2119.88	2.2119e-06
2128.56	1.40122e-06
2137.24	8.36465e-07
2145.91	8.02804e-07
2154.59	1.32164e-06
2163.27	1.18432e-06
2171.95	1.28392e-06
2180.63	1.321e-06
2189.31	1.19799e-06
2197.98	1.05179e-06
2206.66	1.08907e-06
2215.34	1.03042e-06
2224.02	9.9412e-07
2232.7	9.99446e-07
2241.37	8.60444e-07
2250.05	9.18172e-07
2258.73	9.24252e-07
2267.41	9.5476e-07
2276.09	9.80763e-07
2284.77	1.02322e-06
2293.44	1.10497e-06
2302.12	1.12939e-06
2310.8	1.19633e-06
2319.48	1.21469e-06
2328.16	1.36599e-06
2336.83	1.33363e-06
2345.51	1.63206e-06
2354.19	1.54563e-06
2362.87	1.77944e-06
2371.55	1.87748e-06
2380.23	1.68257e-06
2388.9	1.66503e-06
2397.58	1.59365e-06
2406.26	1.98188e-06
2414.94	1.82679e-06
2423.62	1.5842e-06
2432.29	1.43926e-06
2440.97	1.41773e-06
2449.65	1.35301e-06
2458.33	1.20719e-06
2467.01	1.11499e-06
2475.68	1.1075e-06
2484.36	1.17163e-06
2493.04	1.10602e-06
2501.72	1.05989e-06
2510.4	1.1553e-06
2519.08	1.24074e-06
2527.75	1.37421e-06
2536.43	1.28479e-06
2545.11	1.3517e-06
2553.79	1.52819e-06
2562.47	1.50364e-06
2571.14	1.61989e-06
2579.82	1.72798e-06
2588.5	1.98415e-06
2597.18	2.22304e-06
2605.86	2.28027e-06
2614.54	2.30125e-06
2623.21	2.57196e-06
2631.89	2.84906e-06
2640.57	2.40273e-06
2649.25	2.65163e-06
2657.93	2.30203e-06
2666.6	2.38053e-06
2675.28	2.24984e-06
2683.96	2.18907e-06
2692.64	2.2373e-06
2701.32	2.34301e-06
2709.99	2.44531e-06
2718.67	2.33438e-06
2727.35	3.08267e-06
2736.03	3.26028e-06
2744.71	4.17319e-06
2753.39	4.76698e-06
2762.06	5.29567e-06
2770.74	7.08048e-06
2779.42	8.94457e-06
2788.1	1.1959e-05
2796.78	1.76752e-05
2805.45	2.88444e-05
2814.13	4.49694e-05
2822.81	6.21276e-05
2831.49	5.95216e-05
2840.17	5.49044e-05
2848.85	5.51144e-05
2857.52	7.71511e-05
2866.2	9.40899e-05
2874.88	8.94384e-05
2883.56	6.7254e-05
2892.24	7.38088e-05
2900.91	7.75329e-05
2909.59	0.000102509
2918.27	0.000121607
2926.95	0.000119582
2935.63	0.000141876
2944.31	0.00013874
2952.98	0.00013564
2961.66	0.000126254
2970.34	0.000139455
2979.02	0.000136805
2987.7	0.000112303
2996.37	0.000102512
3005.05	9.16069e-05
3013.73	7.22665e-05
3022.41	6.20229e-05
3031.09	5.02852e-05
3039.76	3.60973e-05
3048.44	2.6689e-05
3057.12	2.04477e-05
3065.8	1.58832e-05
3074.48	1.05811e-05
3083.16	7.49103e-06
3091.83	5.47684e-06
3100.51	3.51689e-06
3109.19	2.42386e-06
3117.87	1.91408e-06
3126.55	1.4178e-06
3135.22	1.21961e-06
3143.9	1.21914e-06
3152.58	9.04192e-07
3161.26	1.13278e-06
3169.94	9.77779e-07
3178.62	1.04743e-06
3187.29	9.60635e-07
3195.97	8.91332e-07
3204.65	8.92375e-07
3213.33	7.94153e-07
3222.01	8.63618e-07
3230.68	7.19436e-07
3239.36	7.78242e-07
3248.04	8.11414e-07
3256.72	7.01976e-07
3265.4	6.73603e-07
3274.07	6.0672e-07
3282.75	6.55236e-07
3291.43	6.05854e-07
3300.11	6.1233e-07
3308.79	5.65981e-07
3317.47	6.72174e-07
3326.14	7.13123e-07
3334.82	5.55509e-07
3343.5	7.51325e-07
3352.18	7.58655e-07
3360.86	8.20567e-07
3369.53	6.92035e-07
3378.21	1.24558e-06
3386.89	8.57392e-07
3395.57	1.05119e-06
3404.25	1.22004e-06
3412.93	1.01493e-06
3421.6	1.08488e-06
3430.28	1.30744e-06
3438.96	1.22246e-06
3447.64	1.33274e-06
3456.32	1.1194e-06
3464.99	1.65965e-06
3473.67	1.24445e-06
3482.35	2.12451e-06
3491.03	1.7494e-06
3499.71	1.86833e-06
3508.39	1.46027e-06
3517.06	1.53062e-06
3525.74	1.58991e-06
3534.42	2.05056e-06
3543.1	1.60795e-06
3551.78	1.89358e-06
3560.45	2.164e-06
3569.13	2.31604e-06
3577.81	4.20338e-06
3586.49	4.3445e-06
3595.17	4.45938e-06
3603.84	4.05198e-06
3612.52	6.79414e-06
3621.2	1.03819e-05
3629.88	1.19337e-05
3638.56	1.85815e-05
3647.24	2.40766e-05
3655.91	3.28946e-05
3664.59	4.01075e-05
3673.27	4.10202e-05
3681.95	5.43774e-05
3690.63	2.99982e-05
3699.3	4.12045e-05
3707.98	4.2081e-05
3716.66	3.68858e-05
3725.34	2.45782e-05
3734.02	1.68911e-05
3742.7	8.99865e-06
3751.37	6.69421e-06
3760.05	5.13843e-06
3768.73	4.5697e-06
3777.41	3.72546e-06
3786.09	2.69507e-06
3794.76	2.64195e-06
3803.44	2.43036e-06
3812.12	3.51981e-06
3820.8	2.82652e-06
3829.48	2.322e-06
3838.16	4.13418e-06
3846.83	2.48118e-06
3855.51	2.74766e-06
3864.19	2.77847e-06
3872.87	3.43907e-06
3881.55	2.22542e-06
3890.22	4.39622e-06
3898.9	3.76822e-06
3907.58	2.27659e-06
3916.26	2.26131e-06
3924.94	2.38131e-06
3933.61	2.79127e-06
3942.29	2.81851e-06
3950.97	2.45952e-06
3959.65	2.34703e-06
3968.33	2.60234e-06
