Infrared Spectrum: Methanol
Formula: C H3 O H
CAS: 67-56-1
State: gas
Melting point: -93.9 C
Boiling point: 64.96 C
Class: IUPAC A
Instrument: IFS66V (Bruker)
Instrument parameters: KBr Beam splitter; MCT Detector; Multipass cell
Sampling: 1 L/min Flow
Resolution: 0.1250
Temperature: 23 C
Pressure: 101.3 kPa
Origin: NIST, Anayltical Chemistry Division, 301-975-3108
cm-1	(micromol/mol)-1m-1 (base 10)
574.988	2.34088e-06
583.546	1.46795e-06
592.103	2.76794e-06
600.661	1.00139e-06
609.219	2.15285e-06
617.776	4.32497e-06
626.334	1.02624e-06
634.891	1.03221e-06
643.449	2.63757e-06
652.007	1.02085e-06
660.564	1.55587e-06
669.122	1.80555e-06
677.68	1.32823e-06
686.237	1.2758e-06
694.795	3.13983e-06
703.352	1.34523e-06
711.91	1.81921e-06
720.468	1.91325e-06
729.025	1.0724e-06
737.583	1.45348e-06
746.141	9.80528e-07
754.698	1.82172e-06
763.256	1.14751e-06
771.813	4.3243e-07
780.371	2.4997e-06
788.929	6.65405e-07
797.486	7.99462e-07
806.044	1.09426e-06
814.602	8.41282e-07
823.159	9.79728e-07
831.717	6.69989e-07
840.274	1.15947e-06
848.832	1.13645e-06
857.39	8.57233e-07
865.947	1.10251e-06
874.505	1.61029e-06
883.063	1.08764e-06
891.62	1.2781e-06
900.178	2.17205e-06
908.735	1.82703e-06
917.293	1.68419e-06
925.851	2.61645e-06
934.408	3.25202e-06
942.966	3.3768e-06
951.524	5.11301e-06
960.081	9.48919e-06
968.639	2.00827e-05
977.196	3.05356e-05
985.754	6.25953e-05
994.312	0.000141021
1002.87	0.000147609
1011.43	0.000235997
1019.98	0.000181455
1028.54	0.00010891
1037.1	8.94182e-05
1045.66	0.000215712
1054.22	0.000313929
1062.77	0.00029532
1071.33	0.000114389
1079.89	3.07999e-05
1088.45	1.10275e-05
1097	1.02853e-05
1105.56	9.40119e-06
1114.12	1.09299e-05
1122.68	7.55152e-06
1131.23	5.34249e-06
1139.79	5.83135e-06
1148.35	4.53867e-06
1156.91	5.79098e-06
1165.46	4.75937e-06
1174.02	4.09022e-06
1182.58	6.1116e-06
1191.14	5.94444e-06
1199.69	7.28682e-06
1208.25	1.14963e-05
1216.81	8.0883e-06
1225.37	1.46499e-05
1233.93	1.3318e-05
1242.48	1.14158e-05
1251.04	1.31067e-05
1259.6	1.45752e-05
1268.16	1.31033e-05
1276.71	1.72498e-05
1285.27	1.61708e-05
1293.83	2.26204e-05
1302.39	2.62678e-05
1310.94	2.38941e-05
1319.5	2.87966e-05
1328.06	3.13301e-05
1336.62	2.66065e-05
1345.17	5.42326e-05
1353.73	3.56758e-05
1362.29	2.39638e-05
1370.85	3.33533e-05
1379.4	2.90417e-05
1387.96	2.47278e-05
1396.52	2.14079e-05
1405.08	1.98339e-05
1413.64	1.95824e-05
1422.19	1.54073e-05
1430.75	1.77552e-05
1439.31	1.48252e-05
1447.87	1.04654e-05
1456.42	1.68321e-05
1464.98	1.68822e-05
1473.54	2.1434e-05
1482.1	1.24285e-05
1490.65	1.3151e-05
1499.21	1.31881e-05
1507.77	1.06395e-05
1516.33	9.30592e-06
1524.88	8.3176e-06
1533.44	6.99704e-06
1542	9.98079e-06
1550.56	6.63176e-06
1559.11	6.23649e-06
1567.67	4.26778e-06
1576.23	8.13304e-06
1584.79	2.44223e-06
1593.35	2.21364e-06
1601.9	1.74004e-06
1610.46	1.19672e-06
1619.02	1.10239e-06
1627.58	1.16061e-06
1636.13	1.19521e-06
1644.69	7.24321e-07
1653.25	6.87978e-06
1661.81	6.11232e-07
1670.36	6.77766e-07
1678.92	5.60717e-07
1687.48	5.81612e-07
1696.04	4.76287e-06
1704.59	1.14371e-06
1713.15	5.49796e-07
1721.71	5.67251e-07
1730.27	5.63487e-07
1738.83	5.33796e-07
1747.38	5.81628e-07
1755.94	4.52373e-07
1764.5	4.09145e-07
1773.06	8.66484e-07
1781.61	4.68831e-07
1790.17	5.33143e-07
1798.73	5.08152e-07
1807.29	4.88744e-07
1815.84	5.28839e-07
1824.4	5.78723e-07
1832.96	4.91159e-07
1841.52	5.95054e-07
1850.07	4.6396e-07
1858.63	5.71995e-07
1867.19	5.83389e-07
1875.75	5.83085e-07
1884.3	5.08703e-07
1892.86	5.14153e-07
1901.42	4.57124e-07
1909.98	6.76366e-07
1918.54	5.44626e-07
1927.09	4.62607e-07
1935.65	4.69195e-07
1944.21	5.52979e-07
1952.77	4.90479e-07
1961.32	5.53818e-07
1969.88	4.5425e-07
1978.44	4.88229e-07
1987	5.12292e-07
1995.55	1.06863e-06
2004.11	1.536e-06
2012.67	2.13256e-06
2021.23	2.03926e-06
2029.78	2.50852e-06
2038.34	2.8701e-06
2046.9	3.80811e-06
2055.46	2.91938e-06
2064.01	4.3199e-06
2072.57	8.09705e-06
2081.13	8.28361e-06
2089.69	1.79592e-06
2098.25	1.47068e-06
2106.8	1.49406e-06
2115.36	2.39977e-06
2123.92	1.94649e-06
2132.48	1.26397e-06
2141.03	8.07911e-07
2149.59	1.52463e-06
2158.15	1.52807e-06
2166.71	1.38825e-06
2175.26	1.44151e-06
2183.82	1.24008e-06
2192.38	1.15927e-06
2200.94	1.03745e-06
2209.49	1.37042e-06
2218.05	1.01047e-06
2226.61	9.48962e-07
2235.17	9.39461e-07
2243.72	9.00597e-07
2252.28	1.09406e-06
2260.84	9.77136e-07
2269.4	1.01136e-06
2277.96	1.05325e-06
2286.51	1.10768e-06
2295.07	1.1358e-06
2303.63	9.57258e-07
2312.19	1.27369e-06
2320.74	1.222e-06
2329.3	1.44006e-06
2337.86	1.44584e-06
2346.42	1.72208e-06
2354.97	1.60744e-06
2363.53	1.63823e-06
2372.09	1.9908e-06
2380.65	1.47173e-06
2389.2	1.61381e-06
2397.76	1.64352e-06
2406.32	1.93572e-06
2414.88	1.90603e-06
2423.44	1.56227e-06
2431.99	1.48894e-06
2440.55	1.27161e-06
2449.11	1.28218e-06
2457.67	1.36753e-06
2466.22	1.27686e-06
2474.78	1.19413e-06
2483.34	1.11951e-06
2491.9	1.00193e-06
2500.45	1.18499e-06
2509.01	1.17583e-06
2517.57	1.08044e-06
2526.13	1.43394e-06
2534.68	1.389e-06
2543.24	1.27543e-06
2551.8	1.23893e-06
2560.36	1.44675e-06
2568.91	1.41737e-06
2577.47	1.6296e-06
2586.03	2.08103e-06
2594.59	2.62266e-06
2603.15	2.2725e-06
2611.7	2.30685e-06
2620.26	2.40778e-06
2628.82	2.51126e-06
2637.38	2.22146e-06
2645.93	2.35696e-06
2654.49	2.16687e-06
2663.05	2.05336e-06
2671.61	2.78728e-06
2680.16	2.58506e-06
2688.72	2.18018e-06
2697.28	2.5578e-06
2705.84	2.43174e-06
2714.39	2.34318e-06
2722.95	2.4419e-06
2731.51	2.57772e-06
2740.07	3.75101e-06
2748.62	4.8474e-06
2757.18	5.15225e-06
2765.74	6.04254e-06
2774.3	7.40088e-06
2782.86	1.01472e-05
2791.41	1.41448e-05
2799.97	2.19357e-05
2808.53	3.35751e-05
2817.09	5.57018e-05
2825.64	5.20021e-05
2834.2	5.3677e-05
2842.76	8.46117e-05
2851.32	4.50251e-05
2859.87	8.39705e-05
2868.43	9.87736e-05
2876.99	7.47256e-05
2885.55	5.76239e-05
2894.1	6.66008e-05
2902.66	9.14187e-05
2911.22	0.000101046
2919.78	0.000137428
2928.34	0.000117231
2936.89	0.000162802
2945.45	0.000135711
2954.01	0.000134842
2962.57	0.000145877
2971.12	0.000148386
2979.68	0.000162573
2988.24	0.000127777
2996.8	0.00010157
3005.35	0.000113901
3013.91	7.30557e-05
3022.47	6.59212e-05
3031.03	4.81993e-05
3039.58	3.64981e-05
3048.14	3.16011e-05
3056.7	2.28727e-05
3065.26	1.33558e-05
3073.81	1.19076e-05
3082.37	8.07269e-06
3090.93	4.63568e-06
3099.49	3.4698e-06
3108.05	2.38018e-06
3116.6	1.70311e-06
3125.16	1.20838e-06
3133.72	1.2662e-06
3142.28	1.16729e-06
3150.83	9.66018e-07
3159.39	9.42108e-07
3167.95	8.83242e-07
3176.51	5.17356e-07
3185.06	9.17453e-07
3193.62	9.45771e-07
3202.18	9.01275e-07
3210.74	8.95413e-07
3219.29	6.96882e-07
3227.85	8.27047e-07
3236.41	9.09485e-07
3244.97	8.77314e-07
3253.52	5.70514e-07
3262.08	8.30335e-07
3270.64	4.87887e-07
3279.2	5.0134e-07
3287.76	7.93326e-07
3296.31	7.06503e-07
3304.87	5.67673e-07
3313.43	6.56557e-07
3321.99	1.07429e-06
3330.54	7.38497e-07
3339.1	6.96822e-07
3347.66	5.92271e-07
3356.22	5.63163e-07
3364.77	9.67017e-07
3373.33	9.53256e-07
3381.89	8.46199e-07
3390.45	9.62979e-07
3399	8.22197e-07
3407.56	1.0319e-06
3416.12	9.05526e-07
3424.68	9.05063e-07
3433.23	1.35894e-06
3441.79	1.51779e-06
3450.35	1.34139e-06
3458.91	2.07581e-06
3467.47	1.5092e-06
3476.02	1.63904e-06
3484.58	2.12213e-06
3493.14	1.94918e-06
3501.7	1.46262e-06
3510.25	1.7299e-06
3518.81	1.42522e-06
3527.37	1.77103e-06
3535.93	1.91832e-06
3544.48	1.58999e-06
3553.04	1.51568e-06
3561.6	2.19978e-06
3570.16	2.40594e-06
3578.71	2.14894e-06
3587.27	2.98395e-06
3595.83	6.0596e-06
3604.39	4.34265e-06
3612.95	8.24921e-06
3621.5	1.03659e-05
3630.06	1.09615e-05
3638.62	1.97982e-05
3647.18	2.60991e-05
3655.73	3.20935e-05
3664.29	3.59383e-05
3672.85	4.86414e-05
3681.41	8.79256e-05
3689.96	2.81409e-05
3698.52	4.44257e-05
3707.08	4.866e-05
3715.64	3.47144e-05
3724.19	2.50925e-05
3732.75	2.00257e-05
3741.31	9.80446e-06
3749.87	9.22946e-06
3758.42	1.17014e-05
3766.98	4.4813e-06
3775.54	2.79132e-06
3784.1	3.06521e-06
3792.66	3.04753e-06
3801.21	4.52226e-06
3809.77	3.31484e-06
3818.33	2.24829e-06
3826.89	3.2344e-06
3835.44	2.5935e-06
3844	2.62701e-06
3852.56	3.68898e-06
3861.12	2.09243e-06
3869.67	3.87793e-06
3878.23	2.09717e-06
3886.79	3.25555e-06
3895.35	3.26893e-06
3903.9	3.13517e-06
3912.46	2.05107e-06
3921.02	3.06351e-06
3929.58	2.28917e-06
3938.13	2.67652e-06
3946.69	3.05999e-06
3955.25	2.5263e-06
3963.81	2.68858e-06
3972.37	2.51538e-06
