Infrared Spectrum: Methanol
Formula: C H3 O H
CAS: 67-56-1
State: gas
Melting point: -93.9 C
Boiling point: 64.96 C
Class: IUPAC A
Instrument: IFS66V (Bruker)
Instrument parameters: KBr Beam splitter; MCT Detector; Multipass cell
Sampling: 1 L/min Flow
Resolution: 0.2410
Temperature: 23 C
Pressure: 101.3 kPa
Origin: NIST, Anayltical Chemistry Division, 301-975-3108
cm-1	(micromol/mol)-1m-1 (base 10)
575.048	2.22428e-06
583.606	1.9205e-06
592.163	2.92626e-06
600.721	1.41549e-06
609.279	1.71297e-06
617.836	3.78875e-06
626.394	1.4458e-06
634.951	1.14339e-06
643.509	2.13707e-06
652.067	1.26735e-06
660.624	1.60787e-06
669.182	1.53367e-06
677.74	1.18287e-06
686.297	1.38939e-06
694.855	2.92721e-06
703.412	1.41772e-06
711.97	1.84612e-06
720.528	1.71364e-06
729.085	8.661e-07
737.643	1.32661e-06
746.201	1.24347e-06
754.758	1.65778e-06
763.316	1.10984e-06
771.873	4.72807e-07
780.431	2.4865e-06
788.989	8.85982e-07
797.546	7.25738e-07
806.104	1.20664e-06
814.662	8.93578e-07
823.219	9.57557e-07
831.777	6.7343e-07
840.334	1.05347e-06
848.892	1.05607e-06
857.45	9.30772e-07
866.007	1.17225e-06
874.565	1.45221e-06
883.123	1.17557e-06
891.68	1.33428e-06
900.238	2.00868e-06
908.795	1.94955e-06
917.353	1.74576e-06
925.911	2.78173e-06
934.468	3.38607e-06
943.026	3.4272e-06
951.584	4.96515e-06
960.141	9.9349e-06
968.699	1.99181e-05
977.256	3.08932e-05
985.814	6.79888e-05
994.372	0.000151655
1002.93	0.000143461
1011.49	0.00026249
1020.04	0.000201002
1028.6	0.000117045
1037.16	8.57015e-05
1045.72	0.000229797
1054.28	0.00030622
1062.83	0.00026677
1071.39	0.000112636
1079.95	3.15721e-05
1088.51	1.11744e-05
1097.06	1.15553e-05
1105.62	9.4117e-06
1114.18	1.10408e-05
1122.74	8.05551e-06
1131.29	5.44934e-06
1139.85	5.9451e-06
1148.41	4.63092e-06
1156.97	5.91338e-06
1165.52	4.4735e-06
1174.08	4.20975e-06
1182.64	6.39054e-06
1191.2	5.96347e-06
1199.75	7.32089e-06
1208.31	1.04954e-05
1216.87	8.38189e-06
1225.43	1.36798e-05
1233.99	1.17716e-05
1242.54	1.18171e-05
1251.1	1.28117e-05
1259.66	1.44684e-05
1268.22	1.30138e-05
1276.77	1.7068e-05
1285.33	1.55579e-05
1293.89	2.14662e-05
1302.45	2.75551e-05
1311	2.35053e-05
1319.56	2.75091e-05
1328.12	3.06426e-05
1336.68	2.53497e-05
1345.23	5.49814e-05
1353.79	3.37384e-05
1362.35	2.52797e-05
1370.91	3.23183e-05
1379.46	2.94634e-05
1388.02	2.53434e-05
1396.58	2.29327e-05
1405.14	2.0081e-05
1413.7	2.08519e-05
1422.25	1.48111e-05
1430.81	1.67733e-05
1439.37	1.46332e-05
1447.93	1.04752e-05
1456.48	1.72728e-05
1465.04	1.62587e-05
1473.6	1.96935e-05
1482.16	1.26792e-05
1490.71	1.35706e-05
1499.27	1.33314e-05
1507.83	1.01467e-05
1516.39	9.21781e-06
1524.94	8.41421e-06
1533.5	7.52958e-06
1542.06	9.88382e-06
1550.62	6.57166e-06
1559.18	6.01752e-06
1567.73	4.49581e-06
1576.29	6.42378e-06
1584.85	2.53893e-06
1593.41	2.31778e-06
1601.96	1.83216e-06
1610.52	1.29161e-06
1619.08	1.12953e-06
1627.64	1.36876e-06
1636.19	1.10968e-06
1644.75	7.41545e-07
1653.31	6.0829e-06
1661.87	6.60857e-07
1670.42	6.58676e-07
1678.98	6.09005e-07
1687.54	5.84422e-07
1696.1	3.47497e-06
1704.65	1.00727e-06
1713.21	5.45157e-07
1721.77	5.46798e-07
1730.33	6.09949e-07
1738.89	5.26005e-07
1747.44	5.41963e-07
1756	4.89042e-07
1764.56	4.33949e-07
1773.12	7.72906e-07
1781.67	4.78535e-07
1790.23	4.81355e-07
1798.79	4.92665e-07
1807.35	4.77149e-07
1815.9	5.26187e-07
1824.46	5.55878e-07
1833.02	4.9489e-07
1841.58	5.56841e-07
1850.13	4.99836e-07
1858.69	5.39042e-07
1867.25	5.88726e-07
1875.81	5.67556e-07
1884.36	5.27835e-07
1892.92	5.47731e-07
1901.48	4.60817e-07
1910.04	6.15146e-07
1918.6	5.29696e-07
1927.15	4.60882e-07
1935.71	4.63545e-07
1944.27	5.58936e-07
1952.83	4.52699e-07
1961.38	5.44226e-07
1969.94	4.36162e-07
1978.5	4.73513e-07
1987.06	5.55433e-07
1995.61	1.12629e-06
2004.17	1.52056e-06
2012.73	2.25318e-06
2021.29	2.12731e-06
2029.84	2.47132e-06
2038.4	3.4801e-06
2046.96	3.43839e-06
2055.52	2.65284e-06
2064.08	4.17914e-06
2072.63	8.20232e-06
2081.19	8.4813e-06
2089.75	1.70613e-06
2098.31	1.50518e-06
2106.86	1.41418e-06
2115.42	2.43591e-06
2123.98	1.94852e-06
2132.54	1.27031e-06
2141.09	8.22512e-07
2149.65	1.76591e-06
2158.21	1.69574e-06
2166.77	1.35539e-06
2175.32	1.4775e-06
2183.88	1.28514e-06
2192.44	1.17624e-06
2201	1.05503e-06
2209.55	1.28038e-06
2218.11	1.00991e-06
2226.67	9.8728e-07
2235.23	9.66784e-07
2243.79	9.6054e-07
2252.34	1.03462e-06
2260.9	9.54944e-07
2269.46	9.42228e-07
2278.02	1.04234e-06
2286.57	1.05609e-06
2295.13	1.10281e-06
2303.69	1.03869e-06
2312.25	1.23435e-06
2320.8	1.27213e-06
2329.36	1.5045e-06
2337.92	1.4491e-06
2346.48	1.71935e-06
2355.03	1.65274e-06
2363.59	1.66381e-06
2372.15	1.96593e-06
2380.71	1.50832e-06
2389.26	1.61924e-06
2397.82	1.66633e-06
2406.38	1.97332e-06
2414.94	1.84794e-06
2423.5	1.58138e-06
2432.05	1.45126e-06
2440.61	1.30247e-06
2449.17	1.26476e-06
2457.73	1.27045e-06
2466.28	1.24421e-06
2474.84	1.10699e-06
2483.4	1.11405e-06
2491.96	1.05467e-06
2500.51	1.2395e-06
2509.07	1.19695e-06
2517.63	1.11116e-06
2526.19	1.39675e-06
2534.74	1.39975e-06
2543.3	1.30434e-06
2551.86	1.28854e-06
2560.42	1.52914e-06
2568.98	1.45513e-06
2577.53	1.60527e-06
2586.09	2.02986e-06
2594.65	2.63159e-06
2603.21	2.19637e-06
2611.76	2.34195e-06
2620.32	2.50999e-06
2628.88	2.52718e-06
2637.44	2.21643e-06
2645.99	2.39746e-06
2654.55	2.23623e-06
2663.11	2.00268e-06
2671.67	2.79835e-06
2680.22	2.59725e-06
2688.78	2.22602e-06
2697.34	2.54337e-06
2705.9	2.44379e-06
2714.45	2.35461e-06
2723.01	2.45464e-06
2731.57	2.60883e-06
2740.13	3.70857e-06
2748.69	4.81068e-06
2757.24	5.25426e-06
2765.8	6.09994e-06
2774.36	7.75203e-06
2782.92	9.95097e-06
2791.47	1.42922e-05
2800.03	2.19745e-05
2808.59	3.30825e-05
2817.15	5.5917e-05
2825.7	5.35689e-05
2834.26	5.47685e-05
2842.82	9.05413e-05
2851.38	4.50453e-05
2859.93	8.15316e-05
2868.49	9.99711e-05
2877.05	7.4537e-05
2885.61	5.95536e-05
2894.16	6.68612e-05
2902.72	8.90717e-05
2911.28	0.000102263
2919.84	0.000138607
2928.4	0.000117889
2936.95	0.00016083
2945.51	0.000138574
2954.07	0.000131095
2962.63	0.00014647
2971.18	0.000149413
2979.74	0.000162518
2988.3	0.000132069
2996.86	9.8113e-05
3005.41	0.00012043
3013.97	7.28177e-05
3022.53	6.29953e-05
3031.09	5.09214e-05
3039.64	3.61016e-05
3048.2	3.0553e-05
3056.76	2.25224e-05
3065.32	1.37699e-05
3073.88	1.14035e-05
3082.43	7.94864e-06
3090.99	4.65309e-06
3099.55	3.66485e-06
3108.11	2.372e-06
3116.66	1.73045e-06
3125.22	1.31484e-06
3133.78	1.33761e-06
3142.34	1.14828e-06
3150.89	1.00595e-06
3159.45	1.0014e-06
3168.01	9.67243e-07
3176.57	6.53174e-07
3185.12	9.90784e-07
3193.68	1.00782e-06
3202.24	8.57323e-07
3210.8	9.02718e-07
3219.35	6.3207e-07
3227.91	7.87335e-07
3236.47	8.90511e-07
3245.03	7.95038e-07
3253.59	6.31724e-07
3262.14	9.00191e-07
3270.7	4.99117e-07
3279.26	6.06319e-07
3287.82	6.79993e-07
3296.37	5.61968e-07
3304.93	5.16945e-07
3313.49	7.19247e-07
3322.05	8.56117e-07
3330.6	6.62085e-07
3339.16	7.53343e-07
3347.72	7.179e-07
3356.28	5.65159e-07
3364.83	9.19795e-07
3373.39	8.75984e-07
3381.95	8.92774e-07
3390.51	8.94431e-07
3399.06	7.94634e-07
3407.62	1.04063e-06
3416.18	1.08017e-06
3424.74	1.01976e-06
3433.3	1.37048e-06
3441.85	1.37472e-06
3450.41	1.42802e-06
3458.97	2.24669e-06
3467.53	1.29683e-06
3476.08	1.66433e-06
3484.64	2.02501e-06
3493.2	1.94209e-06
3501.76	1.57274e-06
3510.31	1.51683e-06
3518.87	1.56621e-06
3527.43	1.83674e-06
3535.99	1.87506e-06
3544.54	1.6508e-06
3553.1	1.63596e-06
3561.66	2.2317e-06
3570.22	2.29788e-06
3578.78	2.22688e-06
3587.33	3.15535e-06
3595.89	5.82918e-06
3604.45	4.56941e-06
3613.01	8.57426e-06
3621.56	9.3792e-06
3630.12	1.0733e-05
3638.68	1.96666e-05
3647.24	2.53997e-05
3655.79	3.18392e-05
3664.35	3.68902e-05
3672.91	4.56348e-05
3681.47	8.01244e-05
3690.02	3.00337e-05
3698.58	4.53365e-05
3707.14	4.73342e-05
3715.7	3.61039e-05
3724.25	2.50809e-05
3732.81	1.87572e-05
3741.37	9.10078e-06
3749.93	8.99245e-06
3758.49	1.20823e-05
3767.04	4.84344e-06
3775.6	2.94107e-06
3784.16	3.14927e-06
3792.72	3.08421e-06
3801.27	5.54457e-06
3809.83	3.18663e-06
3818.39	2.19379e-06
3826.95	3.06351e-06
3835.5	2.58711e-06
3844.06	2.54921e-06
3852.62	3.72987e-06
3861.18	2.21845e-06
3869.73	3.88332e-06
3878.29	2.07455e-06
3886.85	3.13883e-06
3895.41	3.21898e-06
3903.96	3.42242e-06
3912.52	2.04597e-06
3921.08	3.16901e-06
3929.64	2.36419e-06
3938.2	2.63789e-06
3946.75	3.03298e-06
3955.31	2.52977e-06
3963.87	2.8473e-06
3972.43	2.42463e-06
