Infrared Spectrum: Methanol
Formula: C H3 O H
CAS: 67-56-1
State: gas
Melting point: -93.9 C
Boiling point: 64.96 C
Class: IUPAC A
Instrument: IFS66V (Bruker)
Instrument parameters: KBr Beam splitter; MCT Detector; Multipass cell
Sampling: 1 L/min Flow
Resolution: 0.4820
Temperature: 23 C
Pressure: 101.3 kPa
Origin: NIST, Anayltical Chemistry Division, 301-975-3108
cm-1	(micromol/mol)-1m-1 (base 10)
574.928	2.51275e-06
583.606	2.15938e-06
592.284	2.9588e-06
600.962	1.63462e-06
609.641	2.22286e-06
618.319	1.62656e-06
626.997	1.11937e-06
635.675	1.41126e-06
644.353	2.25963e-06
653.031	2.11913e-06
661.71	1.26288e-06
670.388	1.28545e-06
679.066	1.07729e-06
687.744	1.10089e-06
696.422	1.58155e-06
705.1	1.16819e-06
713.778	1.51221e-06
722.457	1.12203e-06
731.135	1.24358e-06
739.813	8.60361e-07
748.491	1.60682e-06
757.169	1.08414e-06
765.847	9.38175e-07
774.526	8.66577e-07
783.204	7.08218e-07
791.882	7.15903e-07
800.56	7.77661e-07
809.238	7.42384e-07
817.916	8.89139e-07
826.594	8.72108e-07
835.273	7.51817e-07
843.951	1.0741e-06
852.629	1.06455e-06
861.307	9.64585e-07
869.985	1.12627e-06
878.663	1.22962e-06
887.342	1.29392e-06
896.02	1.35885e-06
904.698	1.47026e-06
913.376	2.02023e-06
922.054	2.57569e-06
930.732	3.29245e-06
939.41	4.35548e-06
948.089	4.45833e-06
956.767	5.94211e-06
965.445	1.27698e-05
974.123	2.73587e-05
982.801	3.84414e-05
991.479	8.6757e-05
1000.16	0.000194487
1008.84	0.000148738
1017.51	0.000261665
1026.19	0.000126353
1034.87	0.00014196
1043.55	0.00020473
1052.23	0.000390945
1060.9	0.000280346
1069.58	0.000140038
1078.26	4.03896e-05
1086.94	1.2034e-05
1095.62	9.43209e-06
1104.3	8.64087e-06
1112.97	7.92064e-06
1121.65	6.84853e-06
1130.33	5.78736e-06
1139.01	4.99338e-06
1147.69	5.7532e-06
1156.36	4.21015e-06
1165.04	5.73998e-06
1173.72	4.34292e-06
1182.4	5.96346e-06
1191.08	6.00956e-06
1199.76	7.49183e-06
1208.43	9.82644e-06
1217.11	8.89574e-06
1225.79	1.27604e-05
1234.47	8.87336e-06
1243.15	1.23166e-05
1251.82	1.29336e-05
1260.5	1.46885e-05
1269.18	1.59848e-05
1277.86	1.3147e-05
1286.54	1.58164e-05
1295.21	1.93972e-05
1303.89	2.64398e-05
1312.57	2.79833e-05
1321.25	3.13511e-05
1329.93	2.7378e-05
1338.61	2.72949e-05
1347.28	5.01988e-05
1355.96	2.77085e-05
1364.64	3.10333e-05
1373.32	2.70823e-05
1382	2.27471e-05
1390.67	2.21417e-05
1399.35	2.18473e-05
1408.03	1.76405e-05
1416.71	1.74885e-05
1425.39	1.60966e-05
1434.07	1.53344e-05
1442.74	1.19769e-05
1451.42	1.21242e-05
1460.1	1.46715e-05
1468.78	1.6791e-05
1477.46	2.27147e-05
1486.13	1.28639e-05
1494.81	1.0844e-05
1503.49	8.87935e-06
1512.17	9.50415e-06
1520.85	9.88881e-06
1529.52	7.85854e-06
1538.2	8.39431e-06
1546.88	6.41095e-06
1555.56	5.56704e-06
1564.24	5.74395e-06
1572.92	3.40324e-06
1581.59	2.25922e-06
1590.27	2.2971e-06
1598.95	2.2229e-06
1607.63	1.41443e-06
1616.31	1.88143e-06
1624.98	1.04721e-06
1633.66	9.39818e-07
1642.34	8.42055e-07
1651.02	8.38519e-07
1659.7	6.98612e-07
1668.38	9.12317e-07
1677.05	6.71278e-07
1685.73	8.63652e-07
1694.41	6.94614e-07
1703.09	6.13364e-07
1711.77	4.84664e-07
1720.44	5.10999e-07
1729.12	5.54387e-07
1737.8	5.4403e-07
1746.48	5.60426e-07
1755.16	5.0031e-07
1763.84	5.39178e-07
1772.51	1.72733e-06
1781.19	4.926e-07
1789.87	5.10278e-07
1798.55	5.17813e-07
1807.23	4.75138e-07
1815.9	5.19404e-07
1824.58	5.78134e-07
1833.26	5.60804e-07
1841.94	5.57506e-07
1850.62	4.87661e-07
1859.29	5.19823e-07
1867.97	7.43326e-07
1876.65	5.1292e-07
1885.33	5.41001e-07
1894.01	5.08199e-07
1902.69	4.77233e-07
1911.36	5.00296e-07
1920.04	4.75352e-07
1928.72	5.0458e-07
1937.4	4.57201e-07
1946.08	4.64828e-07
1954.75	3.97185e-07
1963.43	3.63929e-07
1972.11	3.79014e-07
1980.79	4.58301e-07
1989.47	6.71516e-07
1998.15	1.29779e-06
2006.82	1.69163e-06
2015.5	2.97627e-06
2024.18	3.72441e-06
2032.86	4.67912e-06
2041.54	3.68868e-06
2050.21	4.90025e-06
2058.89	2.34163e-06
2067.57	6.61264e-06
2076.25	9.41313e-06
2084.93	5.12259e-06
2093.6	2.27474e-06
2102.28	1.0097e-06
2110.96	1.69054e-06
2119.64	2.26818e-06
2128.32	1.5143e-06
2137	8.40278e-07
2145.67	7.76195e-07
2154.35	1.18971e-06
2163.03	1.17149e-06
2171.71	1.27116e-06
2180.39	1.36055e-06
2189.06	1.19537e-06
2197.74	1.07002e-06
2206.42	1.1581e-06
2215.1	1.0588e-06
2223.78	9.95091e-07
2232.46	9.69376e-07
2241.13	8.49238e-07
2249.81	8.8746e-07
2258.49	8.99917e-07
2267.17	9.2983e-07
2275.85	9.5029e-07
2284.52	1.01962e-06
2293.2	1.06234e-06
2301.88	1.12932e-06
2310.56	1.20278e-06
2319.24	1.2889e-06
2327.92	1.37715e-06
2336.59	1.32865e-06
2345.27	1.71378e-06
2353.95	1.49064e-06
2362.63	1.85274e-06
2371.31	1.84071e-06
2379.98	1.78274e-06
2388.66	1.70799e-06
2397.34	1.58759e-06
2406.02	1.9739e-06
2414.7	1.87962e-06
2423.37	1.60009e-06
2432.05	1.44101e-06
2440.73	1.43999e-06
2449.41	1.26474e-06
2458.09	1.20841e-06
2466.77	1.14088e-06
2475.44	1.11491e-06
2484.12	1.14155e-06
2492.8	1.10973e-06
2501.48	1.12257e-06
2510.16	1.1208e-06
2518.83	1.23932e-06
2527.51	1.43783e-06
2536.19	1.32726e-06
2544.87	1.34262e-06
2553.55	1.5284e-06
2562.23	1.51555e-06
2570.9	1.55934e-06
2579.58	1.71646e-06
2588.26	2.0004e-06
2596.94	2.30403e-06
2605.62	2.33674e-06
2614.29	2.38354e-06
2622.97	2.60533e-06
2631.65	3.09001e-06
2640.33	2.44447e-06
2649.01	2.50259e-06
2657.68	2.27981e-06
2666.36	2.34417e-06
2675.04	2.24978e-06
2683.72	2.15522e-06
2692.4	2.19946e-06
2701.08	2.30998e-06
2709.75	2.44365e-06
2718.43	2.3159e-06
2727.11	3.00147e-06
2735.79	3.28886e-06
2744.47	4.14743e-06
2753.14	4.894e-06
2761.82	5.2924e-06
2770.5	6.98789e-06
2779.18	9.15371e-06
2787.86	1.19529e-05
2796.54	1.78542e-05
2805.21	2.79104e-05
2813.89	4.49782e-05
2822.57	6.2014e-05
2831.25	5.70585e-05
2839.93	5.89512e-05
2848.6	5.81195e-05
2857.28	7.86721e-05
2865.96	9.28619e-05
2874.64	8.32846e-05
2883.32	6.94828e-05
2892	7.11454e-05
2900.67	7.90941e-05
2909.35	0.000106101
2918.03	0.000117495
2926.71	0.000118549
2935.39	0.000142574
2944.06	0.000141007
2952.74	0.000136061
2961.42	0.000125603
2970.1	0.000139445
2978.78	0.000132515
2987.45	0.000113051
2996.13	9.82571e-05
3004.81	7.82006e-05
3013.49	6.87885e-05
3022.17	6.18047e-05
3030.85	4.55995e-05
3039.52	3.73558e-05
3048.2	2.86521e-05
3056.88	2.10683e-05
3065.56	1.59684e-05
3074.24	1.13346e-05
3082.91	7.82606e-06
3091.59	5.74219e-06
3100.27	3.49039e-06
3108.95	2.4263e-06
3117.63	1.88941e-06
3126.31	1.39937e-06
3134.98	1.22179e-06
3143.66	1.33074e-06
3152.34	8.84608e-07
3161.02	1.21364e-06
3169.7	1.00435e-06
3178.37	9.86013e-07
3187.05	1.04966e-06
3195.73	8.82649e-07
3204.41	8.85176e-07
3213.09	8.14414e-07
3221.77	8.61787e-07
3230.44	7.93083e-07
3239.12	8.77634e-07
3247.8	7.94916e-07
3256.48	7.47561e-07
3265.16	7.22974e-07
3273.83	5.72197e-07
3282.51	6.37511e-07
3291.19	6.6756e-07
3299.87	6.07057e-07
3308.55	6.02901e-07
3317.22	7.26251e-07
3325.9	7.0874e-07
3334.58	6.02348e-07
3343.26	7.64696e-07
3351.94	7.54908e-07
3360.62	8.17633e-07
3369.29	6.77535e-07
3377.97	1.21481e-06
3386.65	8.5254e-07
3395.33	9.40176e-07
3404.01	1.20722e-06
3412.68	1.00504e-06
3421.36	1.08936e-06
3430.04	1.21253e-06
3438.72	1.16992e-06
3447.4	1.12996e-06
3456.08	1.25638e-06
3464.75	1.58365e-06
3473.43	1.31309e-06
3482.11	2.05055e-06
3490.79	1.88733e-06
3499.47	1.8374e-06
3508.14	1.50861e-06
3516.82	1.68894e-06
3525.5	1.434e-06
3534.18	2.13513e-06
3542.86	1.6721e-06
3551.53	1.76239e-06
3560.21	2.08176e-06
3568.89	2.4472e-06
3577.57	3.64705e-06
3586.25	4.31307e-06
3594.93	4.16586e-06
3603.6	3.82959e-06
3612.28	5.91852e-06
3620.96	9.49802e-06
3629.64	1.33912e-05
3638.32	1.8137e-05
3646.99	2.35958e-05
3655.67	3.21233e-05
3664.35	3.81987e-05
3673.03	4.22495e-05
3681.71	6.12981e-05
3690.39	2.86292e-05
3699.06	4.16808e-05
3707.74	3.98508e-05
3716.42	3.91508e-05
3725.1	2.52812e-05
3733.78	1.74841e-05
3742.45	1.03792e-05
3751.13	5.99413e-06
3759.81	5.77659e-06
3768.49	4.50127e-06
3777.17	3.37385e-06
3785.85	3.04304e-06
3794.52	2.7775e-06
3803.2	2.76839e-06
3811.88	3.32163e-06
3820.56	3.03253e-06
3829.24	2.21483e-06
3837.91	5.47117e-06
3846.59	2.40785e-06
3855.27	2.78397e-06
3863.95	2.80012e-06
3872.63	3.67505e-06
3881.3	2.42435e-06
3889.98	4.96824e-06
3898.66	3.45437e-06
3907.34	2.25051e-06
3916.02	2.36427e-06
3924.7	2.34938e-06
3933.37	2.85934e-06
3942.05	2.68927e-06
3950.73	2.35573e-06
3959.41	2.35733e-06
3968.09	2.5971e-06
