Infrared Spectrum: Methanol
Formula: C H3 O H
CAS: 67-56-1
State: gas
Melting point: -93.9 C
Boiling point: 64.96 C
Class: IUPAC A
Instrument: IFS66V (Bruker)
Instrument parameters: KBr Beam splitter; MCT Detector; Multipass cell
Sampling: 1 L/min Flow
Resolution: 1.9290
Temperature: 23 C
Pressure: 101.3 kPa
Origin: NIST, Anayltical Chemistry Division, 301-975-3108
cm-1	(micromol/mol)-1m-1 (base 10)
574.687	4.39546e-06
583.365	3.00885e-06
592.043	2.01913e-06
600.721	1.71818e-06
609.4	1.49611e-06
618.078	2.96272e-06
626.756	8.46088e-07
635.434	1.78803e-06
644.112	2.14e-06
652.79	2.23614e-06
661.469	1.13516e-06
670.147	1.71463e-06
678.825	8.83062e-07
687.503	1.71054e-06
696.181	7.54682e-07
704.859	1.70484e-06
713.537	1.03639e-06
722.216	1.77649e-06
730.894	5.97406e-07
739.572	1.52271e-06
748.25	6.73628e-07
756.928	1.74347e-06
765.606	5.19857e-07
774.285	1.49132e-06
782.963	1.84263e-08
791.641	1.49967e-06
800.319	8.09555e-08
808.997	1.70031e-06
817.675	2.78704e-08
826.353	1.58582e-06
835.032	-2.00657e-07
843.71	2.00043e-06
852.388	1.78278e-08
861.066	2.14531e-06
869.744	-8.81696e-08
878.422	2.51948e-06
887.101	-1.11254e-07
895.779	2.89195e-06
904.457	-2.25701e-07
913.135	3.77426e-06
921.813	3.5616e-07
930.491	5.22797e-06
939.169	1.50524e-06
947.848	7.20177e-06
956.526	2.37806e-06
965.204	1.79109e-05
973.882	2.82287e-05
982.56	6.43852e-05
991.238	5.69376e-05
999.917	0.000191573
1008.59	0.000229837
1017.27	0.000224236
1025.95	0.000118112
1034.63	0.000229629
1043.31	0.000175333
1051.99	0.000328664
1060.66	0.000299431
1069.34	0.000143262
1078.02	4.20677e-05
1086.7	9.18467e-06
1095.38	1.11331e-05
1104.05	6.74207e-06
1112.73	9.29495e-06
1121.41	5.69358e-06
1130.09	7.39623e-06
1138.77	3.82748e-06
1147.45	6.80242e-06
1156.12	3.26825e-06
1164.8	6.86155e-06
1173.48	3.39033e-06
1182.16	6.94769e-06
1190.84	5.42809e-06
1199.51	9.02751e-06
1208.19	9.85382e-06
1216.87	1.09108e-05
1225.55	1.23259e-05
1234.23	1.20122e-05
1242.9	1.15463e-05
1251.58	1.3324e-05
1260.26	1.38222e-05
1268.94	1.56346e-05
1277.62	1.3268e-05
1286.3	1.64402e-05
1294.97	1.89378e-05
1303.65	2.40001e-05
1312.33	2.69975e-05
1321.01	3.59844e-05
1329.69	2.93045e-05
1338.36	2.68487e-05
1347.04	4.35434e-05
1355.72	3.14104e-05
1364.4	2.74647e-05
1373.08	3.0295e-05
1381.76	2.25156e-05
1390.43	2.23492e-05
1399.11	2.29321e-05
1407.79	1.73065e-05
1416.47	1.6051e-05
1425.15	1.77407e-05
1433.82	1.43907e-05
1442.5	1.26048e-05
1451.18	9.17466e-06
1459.86	1.50081e-05
1468.54	1.53847e-05
1477.22	2.38354e-05
1485.89	1.17953e-05
1494.57	9.95269e-06
1503.25	9.01367e-06
1511.93	9.8693e-06
1520.61	9.44098e-06
1529.28	8.43799e-06
1537.96	7.39023e-06
1546.64	6.86246e-06
1555.32	5.57021e-06
1564	5.02566e-06
1572.67	3.26234e-06
1581.35	2.94299e-06
1590.03	2.12738e-06
1598.71	2.24396e-06
1607.39	1.26232e-06
1616.07	2.36369e-06
1624.74	7.25833e-07
1633.42	1.17054e-06
1642.1	6.01646e-07
1650.78	9.4343e-07
1659.46	4.63465e-07
1668.13	7.62416e-07
1676.81	2.43412e-07
1685.49	2.08997e-06
1694.17	8.2347e-08
1702.85	8.10407e-07
1711.53	2.09472e-07
1720.2	7.16203e-07
1728.88	2.94306e-07
1737.56	9.08953e-07
1746.24	3.26356e-07
1754.92	6.48223e-07
1763.59	1.97361e-07
1772.27	1.56516e-06
1780.95	4.48302e-07
1789.63	6.42013e-07
1798.31	2.10887e-07
1806.98	6.81981e-07
1815.66	2.4191e-07
1824.34	7.80537e-07
1833.02	3.0903e-07
1841.7	8.31105e-07
1850.38	3.19815e-07
1859.05	7.20296e-07
1867.73	4.25792e-07
1876.41	6.94665e-07
1885.09	3.20008e-07
1893.77	7.0627e-07
1902.44	2.72832e-07
1911.12	6.66049e-07
1919.8	2.42794e-07
1928.48	7.11858e-07
1937.16	2.63805e-07
1945.84	6.43642e-07
1954.51	2.19846e-07
1963.19	5.80209e-07
1971.87	1.98982e-07
1980.55	6.0942e-07
1989.23	3.39636e-07
1997.9	1.39396e-06
2006.58	1.77995e-06
2015.26	3.01445e-06
2023.94	2.30664e-06
2032.62	4.20723e-06
2041.3	3.93773e-06
2049.97	4.75632e-06
2058.65	2.47174e-06
2067.33	6.15335e-06
2076.01	9.16474e-06
2084.69	5.40849e-06
2093.36	2.01481e-06
2102.04	1.06292e-06
2110.72	1.66325e-06
2119.4	2.29738e-06
2128.08	1.4228e-06
2136.75	9.12193e-07
2145.43	6.76593e-07
2154.11	1.22791e-06
2162.79	1.09504e-06
2171.47	1.34144e-06
2180.15	1.44206e-06
2188.82	1.22449e-06
2197.5	1.00678e-06
2206.18	1.18624e-06
2214.86	9.61897e-07
2223.54	1.10439e-06
2232.21	8.87828e-07
2240.89	9.53675e-07
2249.57	8.5527e-07
2258.25	9.77489e-07
2266.93	8.49385e-07
2275.61	1.01776e-06
2284.28	9.56874e-07
2292.96	1.13866e-06
2301.64	1.0636e-06
2310.32	1.26837e-06
2319	1.18136e-06
2327.67	1.41375e-06
2336.35	1.3074e-06
2345.03	1.80235e-06
2353.71	1.40393e-06
2362.39	1.84017e-06
2371.06	1.72113e-06
2379.74	1.80843e-06
2388.42	1.61048e-06
2397.1	1.62704e-06
2405.78	1.96368e-06
2414.46	1.91024e-06
2423.13	1.54649e-06
2431.81	1.42595e-06
2440.49	1.39826e-06
2449.17	1.30994e-06
2457.85	1.16645e-06
2466.52	1.17965e-06
2475.2	1.03609e-06
2483.88	1.17413e-06
2492.56	1.11957e-06
2501.24	1.15597e-06
2509.92	1.06832e-06
2518.59	1.23238e-06
2527.27	1.34015e-06
2535.95	1.3132e-06
2544.63	1.30783e-06
2553.31	1.53288e-06
2561.98	1.51506e-06
2570.66	1.63578e-06
2579.34	1.71889e-06
2588.02	1.94661e-06
2596.7	2.26406e-06
2605.38	2.14059e-06
2614.05	2.30976e-06
2622.73	2.52727e-06
2631.41	2.97269e-06
2640.09	2.31377e-06
2648.77	2.51601e-06
2657.44	2.19847e-06
2666.12	2.55232e-06
2674.8	2.12746e-06
2683.48	2.34381e-06
2692.16	2.08592e-06
2700.83	2.38907e-06
2709.51	2.3685e-06
2718.19	2.38262e-06
2726.87	2.8594e-06
2735.55	3.40254e-06
2744.23	3.78651e-06
2752.9	5.24471e-06
2761.58	5.19269e-06
2770.26	7.14373e-06
2778.94	8.31368e-06
2787.62	1.23042e-05
2796.29	1.69635e-05
2804.97	2.82613e-05
2813.65	4.47401e-05
2822.33	6.05196e-05
2831.01	5.93485e-05
2839.69	5.95438e-05
2848.36	6.15916e-05
2857.04	7.36665e-05
2865.72	9.71149e-05
2874.4	8.23749e-05
2883.08	6.65365e-05
2891.75	6.36297e-05
2900.43	7.58156e-05
2909.11	0.000105632
2917.79	0.000116255
2926.47	0.000128424
2935.14	0.000138007
2943.82	0.000138048
2952.5	0.000136777
2961.18	0.000128051
2969.86	0.000135158
2978.54	0.000122769
2987.21	0.000121778
2995.89	9.79462e-05
3004.57	7.92234e-05
3013.25	7.09697e-05
3021.93	5.80768e-05
3030.6	4.27506e-05
3039.28	3.63052e-05
3047.96	2.51442e-05
3056.64	2.20165e-05
3065.32	1.6594e-05
3074	1.08201e-05
3082.67	7.52032e-06
3091.35	5.33568e-06
3100.03	3.48559e-06
3108.71	2.61035e-06
3117.39	1.73078e-06
3126.06	1.5273e-06
3134.74	1.09143e-06
3143.42	1.42567e-06
3152.1	8.55546e-07
3160.78	1.32246e-06
3169.46	8.17135e-07
3178.13	1.18037e-06
3186.81	8.96848e-07
3195.49	9.49948e-07
3204.17	8.02752e-07
3212.85	9.60922e-07
3221.52	7.71533e-07
3230.2	8.5623e-07
3238.88	7.25447e-07
3247.56	7.98674e-07
3256.24	6.77836e-07
3264.91	6.91218e-07
3273.59	4.74917e-07
3282.27	6.76049e-07
3290.95	4.97833e-07
3299.63	6.43859e-07
3308.31	5.42862e-07
3316.98	7.07796e-07
3325.66	5.57417e-07
3334.34	6.44479e-07
3343.02	7.31636e-07
3351.7	8.06066e-07
3360.37	6.29875e-07
3369.05	7.22637e-07
3377.73	1.13075e-06
3386.41	9.23873e-07
3395.09	8.83246e-07
3403.77	1.24458e-06
3412.44	1.0245e-06
3421.12	1.13666e-06
3429.8	1.24363e-06
3438.48	1.22887e-06
3447.16	1.02413e-06
3455.83	1.17236e-06
3464.51	1.43184e-06
3473.19	1.30539e-06
3481.87	2.58521e-06
3490.55	1.65377e-06
3499.22	1.84926e-06
3507.9	1.42953e-06
3516.58	1.42352e-06
3525.26	1.57606e-06
3533.94	2.14371e-06
3542.62	1.05014e-06
3551.29	1.98527e-06
3559.97	2.04317e-06
3568.65	3.30398e-06
3577.33	3.66528e-06
3586.01	4.1121e-06
3594.68	4.37387e-06
3603.36	4.0759e-06
3612.04	5.81699e-06
3620.72	9.66123e-06
3629.4	1.2787e-05
3638.08	1.80346e-05
3646.75	2.30658e-05
3655.43	3.51531e-05
3664.11	4.33463e-05
3672.79	4.58263e-05
3681.47	8.00615e-05
3690.14	2.94495e-05
3698.82	4.22386e-05
3707.5	4.26501e-05
3716.18	3.66945e-05
3724.86	2.35226e-05
3733.54	1.68649e-05
3742.21	8.76221e-06
3750.89	5.60724e-06
3759.57	6.20641e-06
3768.25	4.51775e-06
3776.93	3.50829e-06
3785.6	2.75625e-06
3794.28	2.51084e-06
3802.96	2.57427e-06
3811.64	4.35348e-06
3820.32	2.55267e-06
3828.99	2.17367e-06
3837.67	4.44074e-06
3846.35	2.25568e-06
3855.03	3.65062e-06
3863.71	2.9124e-06
3872.39	3.76743e-06
3881.06	2.50302e-06
3889.74	4.48731e-06
3898.42	3.46209e-06
3907.1	2.26365e-06
3915.78	2.40823e-06
3924.45	2.47255e-06
3933.13	2.87958e-06
3941.81	2.60051e-06
3950.49	2.41843e-06
3959.17	2.41825e-06
3967.85	2.65387e-06
