Infrared Spectrum: Methanol
Formula: C H3 O H
CAS: 67-56-1
State: gas
Melting point: -93.9 C
Boiling point: 64.96 C
Class: IUPAC A
Instrument: IFS66V (Bruker)
Instrument parameters: KBr Beam splitter; MCT Detector; Multipass cell
Sampling: 1 L/min Flow
Resolution: 0.9640
Temperature: 23 C
Pressure: 101.3 kPa
Origin: NIST, Anayltical Chemistry Division, 301-975-3108
cm-1	(micromol/mol)-1m-1 (base 10)
575.169	2.65401e-06
583.847	2.33581e-06
592.525	2.4041e-06
601.203	1.66633e-06
609.882	1.95924e-06
618.56	1.72918e-06
627.238	1.27019e-06
635.916	1.29906e-06
644.594	1.92314e-06
653.272	2.00724e-06
661.951	1.41621e-06
670.629	1.4085e-06
679.307	1.2182e-06
687.985	1.26048e-06
696.663	1.70343e-06
705.341	1.29847e-06
714.019	1.39236e-06
722.698	1.20133e-06
731.376	1.26111e-06
740.054	9.09153e-07
748.732	1.41374e-06
757.41	1.25095e-06
766.088	1.0683e-06
774.767	9.78873e-07
783.445	6.79626e-07
792.123	8.91827e-07
800.801	7.77142e-07
809.479	8.61565e-07
818.157	1.04355e-06
826.835	9.05955e-07
835.514	8.40328e-07
844.192	1.04911e-06
852.87	1.11747e-06
861.548	9.97471e-07
870.226	1.18422e-06
878.904	1.35284e-06
887.583	1.29755e-06
896.261	1.45019e-06
904.939	1.54498e-06
913.617	1.979e-06
922.295	2.45219e-06
930.973	3.30908e-06
939.651	4.03546e-06
948.33	4.682e-06
957.008	6.58223e-06
965.686	1.21412e-05
974.364	2.38961e-05
983.042	4.47733e-05
991.72	9.83992e-05
1000.4	0.000208139
1009.08	0.000187736
1017.75	0.000207366
1026.43	0.000110224
1035.11	0.000137768
1043.79	0.000179002
1052.47	0.000330925
1061.15	0.000286691
1069.82	0.000140873
1078.5	3.80693e-05
1087.18	1.17971e-05
1095.86	9.51062e-06
1104.54	8.78478e-06
1113.21	8.79749e-06
1121.89	6.99775e-06
1130.57	6.18712e-06
1139.25	4.89327e-06
1147.93	5.632e-06
1156.61	4.8487e-06
1165.28	5.27916e-06
1173.96	4.49625e-06
1182.64	5.9562e-06
1191.32	6.32046e-06
1200	8.06267e-06
1208.67	1.06158e-05
1217.35	9.75569e-06
1226.03	1.19202e-05
1234.71	9.80753e-06
1243.39	1.14989e-05
1252.07	1.2892e-05
1260.74	1.36958e-05
1269.42	1.51804e-05
1278.1	1.47413e-05
1286.78	1.63757e-05
1295.46	1.98458e-05
1304.13	2.56689e-05
1312.81	2.50192e-05
1321.49	3.60842e-05
1330.17	2.91866e-05
1338.85	2.95161e-05
1347.52	4.22026e-05
1356.2	2.82682e-05
1364.88	2.95941e-05
1373.56	2.71416e-05
1382.24	2.26883e-05
1390.92	2.25283e-05
1399.59	2.16067e-05
1408.27	1.76345e-05
1416.95	1.68188e-05
1425.63	1.80628e-05
1434.31	1.60368e-05
1442.98	1.16848e-05
1451.66	1.4232e-05
1460.34	1.57042e-05
1469.02	1.67597e-05
1477.7	2.09086e-05
1486.38	1.31928e-05
1495.05	1.0175e-05
1503.73	9.16518e-06
1512.41	9.31105e-06
1521.09	1.03556e-05
1529.77	8.07449e-06
1538.44	8.57413e-06
1547.12	6.89542e-06
1555.8	5.40405e-06
1564.48	5.16772e-06
1573.16	4.12602e-06
1581.83	2.57582e-06
1590.51	2.13733e-06
1599.19	2.01804e-06
1607.87	1.46464e-06
1616.55	2.88698e-06
1625.23	1.09789e-06
1633.9	9.69221e-07
1642.58	8.27734e-07
1651.26	8.88998e-07
1659.94	7.20033e-07
1668.62	9.28376e-07
1677.29	6.65969e-07
1685.97	8.02756e-07
1694.65	8.23712e-07
1703.33	6.58973e-07
1712.01	5.0478e-07
1720.69	5.37334e-07
1729.36	6.4204e-07
1738.04	5.24414e-07
1746.72	6.12337e-07
1755.4	5.08217e-07
1764.08	5.17779e-07
1772.75	1.64517e-06
1781.43	4.8978e-07
1790.11	5.23907e-07
1798.79	5.17636e-07
1807.47	5.13978e-07
1816.15	5.13886e-07
1824.82	7.30292e-07
1833.5	5.40674e-07
1842.18	5.60705e-07
1850.86	5.12357e-07
1859.54	5.20455e-07
1868.21	6.63153e-07
1876.89	5.37155e-07
1885.57	5.28891e-07
1894.25	5.10615e-07
1902.93	4.85034e-07
1911.6	5.39008e-07
1920.28	4.91277e-07
1928.96	4.60564e-07
1937.64	4.68783e-07
1946.32	4.6503e-07
1955	4.12709e-07
1963.67	3.85373e-07
1972.35	3.89768e-07
1981.03	5.22444e-07
1989.71	7.81135e-07
1998.39	1.36956e-06
2007.06	1.42979e-06
2015.74	3.10406e-06
2024.42	3.9625e-06
2033.1	4.64799e-06
2041.78	3.29601e-06
2050.46	4.98926e-06
2059.13	2.63514e-06
2067.81	6.40467e-06
2076.49	9.03346e-06
2085.17	4.90554e-06
2093.85	2.28368e-06
2102.52	1.09795e-06
2111.2	1.86343e-06
2119.88	2.19497e-06
2128.56	1.42265e-06
2137.24	8.6357e-07
2145.91	8.39411e-07
2154.59	1.32337e-06
2163.27	1.21618e-06
2171.95	1.29013e-06
2180.63	1.33002e-06
2189.31	1.20472e-06
2197.98	1.06927e-06
2206.66	1.09367e-06
2215.34	1.03564e-06
2224.02	1.00312e-06
2232.7	1.00421e-06
2241.37	8.73059e-07
2250.05	9.24456e-07
2258.73	9.32922e-07
2267.41	9.58802e-07
2276.09	9.87203e-07
2284.77	1.03194e-06
2293.44	1.11411e-06
2302.12	1.13806e-06
2310.8	1.205e-06
2319.48	1.22568e-06
2328.16	1.37958e-06
2336.83	1.34967e-06
2345.51	1.63509e-06
2354.19	1.55517e-06
2362.87	1.77618e-06
2371.55	1.87672e-06
2380.23	1.69661e-06
2388.9	1.67447e-06
2397.58	1.61565e-06
2406.26	1.97954e-06
2414.94	1.83054e-06
2423.62	1.59437e-06
2432.29	1.45826e-06
2440.97	1.42877e-06
2449.65	1.35623e-06
2458.33	1.21841e-06
2467.01	1.13096e-06
2475.68	1.12214e-06
2484.36	1.1817e-06
2493.04	1.1193e-06
2501.72	1.07702e-06
2510.4	1.16533e-06
2519.08	1.25147e-06
2527.75	1.38297e-06
2536.43	1.30072e-06
2545.11	1.37047e-06
2553.79	1.53452e-06
2562.47	1.51669e-06
2571.14	1.63093e-06
2579.82	1.74822e-06
2588.5	2.00665e-06
2597.18	2.24726e-06
2605.86	2.296e-06
2614.54	2.33042e-06
2623.21	2.58899e-06
2631.89	2.84105e-06
2640.57	2.42368e-06
2649.25	2.63807e-06
2657.93	2.32869e-06
2666.6	2.38685e-06
2675.28	2.27676e-06
2683.96	2.22009e-06
2692.64	2.26055e-06
2701.32	2.37642e-06
2709.99	2.47878e-06
2718.67	2.38946e-06
2727.35	3.10388e-06
2736.03	3.33242e-06
2744.71	4.22957e-06
2753.39	4.83738e-06
2762.06	5.39283e-06
2770.74	7.16556e-06
2779.42	9.0844e-06
2788.1	1.2114e-05
2796.78	1.78237e-05
2805.45	2.89145e-05
2814.13	4.49752e-05
2822.81	6.1765e-05
2831.49	5.94595e-05
2840.17	5.59985e-05
2848.85	5.54367e-05
2857.52	7.69102e-05
2866.2	9.33616e-05
2874.88	8.87029e-05
2883.56	6.75276e-05
2892.24	7.31236e-05
2900.91	7.83556e-05
2909.59	0.000102063
2918.27	0.000121485
2926.95	0.000120174
2935.63	0.000141586
2944.31	0.000138752
2952.98	0.00013578
2961.66	0.000126948
2970.34	0.000140421
2979.02	0.000137228
2987.7	0.000112647
2996.37	0.000101252
3005.05	9.04942e-05
3013.73	7.26599e-05
3022.41	6.14906e-05
3031.09	5.02697e-05
3039.76	3.64297e-05
3048.44	2.69159e-05
3057.12	2.05336e-05
3065.8	1.59437e-05
3074.48	1.07102e-05
3083.16	7.57857e-06
3091.83	5.52905e-06
3100.51	3.58106e-06
3109.19	2.48545e-06
3117.87	1.95921e-06
3126.55	1.46447e-06
3135.22	1.26581e-06
3143.9	1.24249e-06
3152.58	9.43569e-07
3161.26	1.15604e-06
3169.94	1.00886e-06
3178.62	1.06345e-06
3187.29	9.82553e-07
3195.97	9.08875e-07
3204.65	9.10719e-07
3213.33	8.13514e-07
3222.01	8.75466e-07
3230.68	7.41796e-07
3239.36	7.89367e-07
3248.04	8.1711e-07
3256.72	7.14349e-07
3265.4	6.86357e-07
3274.07	6.16526e-07
3282.75	6.69964e-07
3291.43	6.16978e-07
3300.11	6.23035e-07
3308.79	5.769e-07
3317.47	6.74143e-07
3326.14	7.13738e-07
3334.82	5.71648e-07
3343.5	7.48042e-07
3352.18	7.54769e-07
3360.86	8.21488e-07
3369.53	7.01461e-07
3378.21	1.22e-06
3386.89	8.6205e-07
3395.57	1.05514e-06
3404.25	1.20591e-06
3412.93	1.02781e-06
3421.6	1.09991e-06
3430.28	1.32038e-06
3438.96	1.24859e-06
3447.64	1.35215e-06
3456.32	1.16393e-06
3464.99	1.63934e-06
3473.67	1.2793e-06
3482.35	2.12176e-06
3491.03	1.77941e-06
3499.71	1.86049e-06
3508.39	1.50612e-06
3517.06	1.55932e-06
3525.74	1.65477e-06
3534.42	2.04031e-06
3543.1	1.67701e-06
3551.78	1.90751e-06
3560.45	2.19033e-06
3569.13	2.43178e-06
3577.81	4.15989e-06
3586.49	4.29416e-06
3595.17	4.43702e-06
3603.84	4.12861e-06
3612.52	6.78761e-06
3621.2	1.02851e-05
3629.88	1.21345e-05
3638.56	1.85403e-05
3647.24	2.43156e-05
3655.91	3.30332e-05
3664.59	4.03378e-05
3673.27	4.0917e-05
3681.95	5.27465e-05
3690.63	3.018e-05
3699.3	4.12724e-05
3707.98	4.22346e-05
3716.66	3.67887e-05
3725.34	2.46751e-05
3734.02	1.69131e-05
3742.7	9.22636e-06
3751.37	6.84522e-06
3760.05	5.41286e-06
3768.73	4.64737e-06
3777.41	3.72368e-06
3786.09	2.75495e-06
3794.76	2.75892e-06
3803.44	2.47409e-06
3812.12	3.50124e-06
3820.8	2.83118e-06
3829.48	2.35914e-06
3838.16	4.04753e-06
3846.83	2.52618e-06
3855.51	2.9192e-06
3864.19	2.81641e-06
3872.87	3.41828e-06
3881.55	2.27236e-06
3890.22	4.30806e-06
3898.9	3.72682e-06
3907.58	2.31248e-06
3916.26	2.26781e-06
3924.94	2.39723e-06
3933.61	2.76442e-06
3942.29	2.79629e-06
3950.97	2.47656e-06
3959.65	2.36394e-06
3968.33	2.61272e-06
