Infrared Spectrum: Methanol
Formula: C H3 O H
CAS: 67-56-1
State: gas
Melting point: -93.9 C
Boiling point: 64.96 C
Class: IUPAC A
Instrument: IFS66V (Bruker)
Instrument parameters: KBr Beam splitter; MCT Detector; Multipass cell
Sampling: 1 L/min Flow
Resolution: 0.1250
Temperature: 23 C
Pressure: 101.3 kPa
Origin: NIST, Anayltical Chemistry Division, 301-975-3108
cm-1	(micromol/mol)-1m-1 (base 10)
574.988	2.44251e-06
583.546	1.67137e-06
592.103	2.70395e-06
600.661	1.07657e-06
609.219	1.98615e-06
617.776	4.28764e-06
626.334	1.13874e-06
634.891	1.07928e-06
643.449	2.57852e-06
652.007	1.03758e-06
660.564	1.57852e-06
669.122	1.75584e-06
677.68	1.28554e-06
686.237	1.30113e-06
694.795	3.1754e-06
703.352	1.33058e-06
711.91	1.77324e-06
720.468	1.87043e-06
729.025	1.04712e-06
737.583	1.49758e-06
746.141	1.0424e-06
754.698	1.75587e-06
763.256	1.14882e-06
771.813	4.34549e-07
780.371	2.49484e-06
788.929	6.68342e-07
797.486	8.30544e-07
806.044	1.12865e-06
814.602	8.20464e-07
823.159	9.84363e-07
831.717	6.63993e-07
840.274	1.11401e-06
848.832	1.12872e-06
857.39	8.81956e-07
865.947	1.12406e-06
874.505	1.57081e-06
883.063	1.10386e-06
891.62	1.27223e-06
900.178	2.15999e-06
908.735	1.82052e-06
917.293	1.71195e-06
925.851	2.6366e-06
934.408	3.27825e-06
942.966	3.38503e-06
951.524	5.11608e-06
960.081	9.47955e-06
968.639	1.98635e-05
977.196	3.0361e-05
985.754	6.30601e-05
994.312	0.000141634
1002.87	0.000148887
1011.43	0.000236961
1019.98	0.000181056
1028.54	0.000108615
1037.1	8.87407e-05
1045.66	0.000214106
1054.22	0.000312443
1062.77	0.000292987
1071.33	0.00011433
1079.89	3.09551e-05
1088.45	1.10411e-05
1097	1.03219e-05
1105.56	9.40243e-06
1114.12	1.0931e-05
1122.68	7.59455e-06
1131.23	5.34468e-06
1139.79	5.82426e-06
1148.35	4.57702e-06
1156.91	5.79357e-06
1165.46	4.76736e-06
1174.02	4.08101e-06
1182.58	6.12097e-06
1191.14	5.93864e-06
1199.69	7.29255e-06
1208.25	1.13539e-05
1216.81	8.08367e-06
1225.37	1.45504e-05
1233.93	1.33951e-05
1242.48	1.14643e-05
1251.04	1.30914e-05
1259.6	1.44199e-05
1268.16	1.31344e-05
1276.71	1.72143e-05
1285.27	1.62271e-05
1293.83	2.27908e-05
1302.39	2.65966e-05
1310.94	2.41114e-05
1319.5	2.85765e-05
1328.06	3.11504e-05
1336.62	2.66495e-05
1345.17	5.43857e-05
1353.73	3.55981e-05
1362.29	2.41178e-05
1370.85	3.31175e-05
1379.4	2.90097e-05
1387.96	2.47877e-05
1396.52	2.15787e-05
1405.08	1.9817e-05
1413.64	1.97397e-05
1422.19	1.54358e-05
1430.75	1.7786e-05
1439.31	1.47743e-05
1447.87	1.04431e-05
1456.42	1.69274e-05
1464.98	1.6924e-05
1473.54	2.11595e-05
1482.1	1.25009e-05
1490.65	1.32327e-05
1499.21	1.31749e-05
1507.77	1.05296e-05
1516.33	9.30788e-06
1524.88	8.36917e-06
1533.44	7.06273e-06
1542	9.97083e-06
1550.56	6.60373e-06
1559.11	6.20443e-06
1567.67	4.24789e-06
1576.23	7.93145e-06
1584.79	2.4457e-06
1593.35	2.23769e-06
1601.9	1.7528e-06
1610.46	1.22315e-06
1619.02	1.11065e-06
1627.58	1.16595e-06
1636.13	1.20285e-06
1644.69	7.43135e-07
1653.25	6.62946e-06
1661.81	6.22333e-07
1670.36	6.6983e-07
1678.92	5.75982e-07
1687.48	5.87556e-07
1696.04	4.87668e-06
1704.59	1.17265e-06
1713.15	5.47722e-07
1721.71	5.48201e-07
1730.27	5.81044e-07
1738.83	5.41503e-07
1747.38	5.6883e-07
1755.94	4.51898e-07
1764.5	4.18522e-07
1773.06	8.78176e-07
1781.61	4.81197e-07
1790.17	5.17634e-07
1798.73	5.16827e-07
1807.29	4.91996e-07
1815.84	5.27863e-07
1824.4	5.69686e-07
1832.96	4.88656e-07
1841.52	5.72429e-07
1850.07	4.70319e-07
1858.63	5.64828e-07
1867.19	5.74283e-07
1875.75	5.64499e-07
1884.3	5.22706e-07
1892.86	5.27253e-07
1901.42	4.58603e-07
1909.98	6.72824e-07
1918.54	5.46671e-07
1927.09	4.66352e-07
1935.65	4.64089e-07
1944.21	5.44181e-07
1952.77	4.8412e-07
1961.32	5.5263e-07
1969.88	4.62074e-07
1978.44	4.89087e-07
1987	5.17245e-07
1995.55	1.08113e-06
2004.11	1.54809e-06
2012.67	2.10389e-06
2021.23	2.04305e-06
2029.78	2.54851e-06
2038.34	2.91694e-06
2046.9	3.78333e-06
2055.46	2.89297e-06
2064.01	4.31821e-06
2072.57	8.09815e-06
2081.13	8.27606e-06
2089.69	1.78968e-06
2098.25	1.486e-06
2106.8	1.47723e-06
2115.36	2.41644e-06
2123.92	1.95286e-06
2132.48	1.2719e-06
2141.03	8.22063e-07
2149.59	1.52547e-06
2158.15	1.53524e-06
2166.71	1.37482e-06
2175.26	1.44185e-06
2183.82	1.24935e-06
2192.38	1.15773e-06
2200.94	1.04538e-06
2209.49	1.34469e-06
2218.05	1.01938e-06
2226.61	9.59788e-07
2235.17	9.39738e-07
2243.72	9.1397e-07
2252.28	1.09385e-06
2260.84	9.69793e-07
2269.4	1.00062e-06
2277.96	1.05353e-06
2286.51	1.09227e-06
2295.07	1.12568e-06
2303.63	9.65282e-07
2312.19	1.2678e-06
2320.74	1.2305e-06
2329.3	1.44793e-06
2337.86	1.44361e-06
2346.42	1.71424e-06
2354.97	1.61938e-06
2363.53	1.65531e-06
2372.09	1.97163e-06
2380.65	1.46925e-06
2389.2	1.60891e-06
2397.76	1.65399e-06
2406.32	1.93639e-06
2414.88	1.89859e-06
2423.44	1.56571e-06
2431.99	1.47072e-06
2440.55	1.27046e-06
2449.11	1.28131e-06
2457.67	1.33343e-06
2466.22	1.2583e-06
2474.78	1.17494e-06
2483.34	1.12337e-06
2491.9	1.0176e-06
2500.45	1.19044e-06
2509.01	1.19881e-06
2517.57	1.09141e-06
2526.13	1.42375e-06
2534.68	1.39814e-06
2543.24	1.29721e-06
2551.8	1.24509e-06
2560.36	1.44822e-06
2568.91	1.42723e-06
2577.47	1.62436e-06
2586.03	2.07734e-06
2594.59	2.63455e-06
2603.15	2.26131e-06
2611.7	2.31053e-06
2620.26	2.42956e-06
2628.82	2.51444e-06
2637.38	2.21595e-06
2645.93	2.38012e-06
2654.49	2.17646e-06
2663.05	2.05807e-06
2671.61	2.78135e-06
2680.16	2.60026e-06
2688.72	2.1804e-06
2697.28	2.53961e-06
2705.84	2.44645e-06
2714.39	2.32799e-06
2722.95	2.44504e-06
2731.51	2.57311e-06
2740.07	3.7396e-06
2748.62	4.81769e-06
2757.18	5.18878e-06
2765.74	6.04282e-06
2774.3	7.43451e-06
2782.86	1.01728e-05
2791.41	1.4164e-05
2799.97	2.20069e-05
2808.53	3.35262e-05
2817.09	5.56123e-05
2825.64	5.23288e-05
2834.2	5.35823e-05
2842.76	8.48181e-05
2851.32	4.51221e-05
2859.87	8.41707e-05
2868.43	9.88406e-05
2876.99	7.50026e-05
2885.55	5.77532e-05
2894.1	6.65695e-05
2902.66	9.15042e-05
2911.22	0.000101224
2919.78	0.00013759
2928.34	0.000117266
2936.89	0.000162429
2945.45	0.000135735
2954.01	0.000134734
2962.57	0.00014605
2971.12	0.000148464
2979.68	0.000162086
2988.24	0.000127933
2996.8	0.000101418
3005.35	0.000113964
3013.91	7.32412e-05
3022.47	6.55332e-05
3031.03	4.82844e-05
3039.58	3.6664e-05
3048.14	3.12206e-05
3056.7	2.279e-05
3065.26	1.34683e-05
3073.81	1.1854e-05
3082.37	8.09617e-06
3090.93	4.66445e-06
3099.49	3.49063e-06
3108.05	2.37569e-06
3116.6	1.71869e-06
3125.16	1.2312e-06
3133.72	1.26555e-06
3142.28	1.15738e-06
3150.83	9.63403e-07
3159.39	9.7066e-07
3167.95	9.0394e-07
3176.51	5.64793e-07
3185.06	9.34343e-07
3193.62	9.66999e-07
3202.18	8.81281e-07
3210.74	8.833e-07
3219.29	6.84682e-07
3227.85	8.18734e-07
3236.41	8.81909e-07
3244.97	8.41582e-07
3253.52	6.01233e-07
3262.08	8.61447e-07
3270.64	5.08574e-07
3279.2	5.38302e-07
3287.76	7.7552e-07
3296.31	6.6031e-07
3304.87	5.47086e-07
3313.43	6.51831e-07
3321.99	1.01079e-06
3330.54	7.3143e-07
3339.1	6.755e-07
3347.66	6.24056e-07
3356.22	5.39715e-07
3364.77	9.69444e-07
3373.33	9.07906e-07
3381.89	8.55836e-07
3390.45	9.50055e-07
3399	8.19258e-07
3407.56	1.04481e-06
3416.12	9.46721e-07
3424.68	9.30919e-07
3433.23	1.3584e-06
3441.79	1.54943e-06
3450.35	1.32291e-06
3458.91	2.08996e-06
3467.47	1.49024e-06
3476.02	1.6238e-06
3484.58	2.11224e-06
3493.14	1.94111e-06
3501.7	1.47775e-06
3510.25	1.68325e-06
3518.81	1.45082e-06
3527.37	1.80632e-06
3535.93	1.92712e-06
3544.48	1.59041e-06
3553.04	1.53901e-06
3561.6	2.2094e-06
3570.16	2.38479e-06
3578.71	2.19306e-06
3587.27	2.98948e-06
3595.83	6.03722e-06
3604.39	4.36562e-06
3612.95	8.31703e-06
3621.5	1.03541e-05
3630.06	1.09305e-05
3638.62	1.97679e-05
3647.18	2.59289e-05
3655.73	3.20365e-05
3664.29	3.60878e-05
3672.85	4.83312e-05
3681.41	8.75437e-05
3689.96	2.82749e-05
3698.52	4.44297e-05
3707.08	4.87137e-05
3715.64	3.47802e-05
3724.19	2.51134e-05
3732.75	1.98603e-05
3741.31	9.79161e-06
3749.87	9.20951e-06
3758.42	1.17264e-05
3766.98	4.47533e-06
3775.54	2.78853e-06
3784.1	3.05701e-06
3792.66	3.03546e-06
3801.21	4.57605e-06
3809.77	3.32612e-06
3818.33	2.25454e-06
3826.89	3.19521e-06
3835.44	2.59034e-06
3844	2.63203e-06
3852.56	3.70931e-06
3861.12	2.1295e-06
3869.67	3.85661e-06
3878.23	2.12891e-06
3886.79	3.24342e-06
3895.35	3.29264e-06
3903.9	3.1368e-06
3912.46	2.04411e-06
3921.02	3.06743e-06
3929.58	2.33259e-06
3938.13	2.6329e-06
3946.69	3.04075e-06
3955.25	2.51991e-06
3963.81	2.72811e-06
3972.37	2.49989e-06
