Infrared Spectrum: Methanol
Formula: C H3 O H
CAS: 67-56-1
State: gas
Melting point: -93.9 C
Boiling point: 64.96 C
Class: IUPAC A
Instrument: IFS66V (Bruker)
Instrument parameters: KBr Beam splitter; MCT Detector; Multipass cell
Sampling: 1 L/min Flow
Resolution: 0.1250
Temperature: 23 C
Pressure: 101.3 kPa
Origin: NIST, Anayltical Chemistry Division, 301-975-3108
cm-1	(micromol/mol)-1m-1 (base 10)
3975.02	2.88297e-06
3966.46	2.45397e-06
3957.9	2.15897e-06
3949.34	2.42397e-06
3940.79	2.34797e-06
3932.23	2.85297e-06
3923.67	3.39196e-06
3915.11	2.24097e-06
3906.56	2.00498e-06
3898	3.45796e-06
3889.44	3.52596e-06
3880.88	2.73897e-06
3872.33	4.19295e-06
3863.77	2.74997e-06
3855.21	2.58797e-06
3846.65	2.46697e-06
3838.09	3.66396e-06
3829.54	2.35697e-06
3820.98	2.43697e-06
3812.42	3.67296e-06
3803.86	2.26797e-06
3795.31	2.67497e-06
3786.75	2.14998e-06
3778.19	3.99595e-06
3769.63	4.30195e-06
3761.08	5.34994e-06
3752.52	7.30192e-06
3743.96	1.19399e-05
3735.4	1.27599e-05
3726.85	2.23097e-05
3718.29	2.90997e-05
3709.73	5.53994e-05
3701.17	4.22095e-05
3692.62	4.61495e-05
3684.06	3.37696e-05
3675.5	3.17396e-05
3666.94	4.92494e-05
3658.38	5.31594e-05
3649.83	2.65397e-05
3641.27	1.96998e-05
3632.71	1.45698e-05
3624.15	6.86192e-06
3615.6	6.46193e-06
3607.04	4.03795e-06
3598.48	4.00895e-06
3589.92	3.10796e-06
3581.37	4.16195e-06
3572.81	2.10598e-06
3564.25	2.56797e-06
3555.69	3.46996e-06
3547.14	1.75198e-06
3538.58	1.73798e-06
3530.02	1.12899e-06
3521.46	1.21599e-06
3512.91	2.71997e-06
3504.35	1.99198e-06
3495.79	1.82398e-06
3487.23	2.44397e-06
3478.67	1.76798e-06
3470.12	9.77288e-07
3461.56	1.39598e-06
3453	1.36598e-06
3444.44	1.11999e-06
3435.89	1.66398e-06
3427.33	8.64689e-07
3418.77	1.14899e-06
3410.21	2.02898e-06
3401.66	8.02589e-07
3393.1	5.34093e-07
3384.54	1.19999e-06
3375.98	7.9949e-07
3367.43	5.05493e-07
3358.87	8.62489e-07
3350.31	6.34991e-07
3341.75	6.14192e-07
3333.2	-8.51383e-08
3324.64	8.1339e-07
3316.08	4.50394e-07
3307.52	3.90295e-07
3298.96	7.59691e-07
3290.41	5.89993e-07
3281.85	5.25793e-07
3273.29	6.09493e-07
3264.73	4.23894e-07
3256.18	7.16991e-07
3247.62	5.58193e-07
3239.06	9.51288e-07
3230.5	9.41388e-07
3221.95	8.14889e-07
3213.39	7.27091e-07
3204.83	9.49588e-07
3196.27	6.06192e-07
3187.72	8.92089e-07
3179.16	8.4059e-07
3170.6	9.46388e-07
3162.04	1.16899e-06
3153.48	1.10399e-06
3144.93	1.31898e-06
3136.37	1.01099e-06
3127.81	1.35898e-06
3119.25	1.67498e-06
3110.7	2.38297e-06
3102.14	3.48396e-06
3093.58	5.20794e-06
3085.02	6.78792e-06
3076.47	1.07299e-05
3067.91	1.49998e-05
3059.35	1.72498e-05
3050.79	2.28797e-05
3042.24	4.32295e-05
3033.68	5.29994e-05
3025.12	4.22295e-05
3016.56	6.73992e-05
3008.01	7.65691e-05
2999.45	7.76691e-05
2990.89	0.000111199
2982.33	0.000158298
2973.77	0.000160298
2965.22	0.000149698
2956.66	0.000121899
2948.1	0.000145298
2939.54	0.000135198
2930.99	0.000114399
2922.43	0.000141098
2913.87	0.000111499
2905.31	8.7989e-05
2896.76	6.93492e-05
2888.2	6.68292e-05
2879.64	7.04792e-05
2871.08	8.4589e-05
2862.53	8.4879e-05
2853.97	6.04193e-05
2845.41	6.79392e-05
2836.85	5.03394e-05
2828.3	7.30891e-05
2819.74	6.28493e-05
2811.18	3.94595e-05
2802.62	2.51997e-05
2794.06	1.59398e-05
2785.51	1.29099e-05
2776.95	7.81391e-06
2768.39	6.80092e-06
2759.83	5.70893e-06
2751.28	4.90294e-06
2742.72	4.27995e-06
2734.16	3.04596e-06
2725.6	2.52597e-06
2717.05	2.40997e-06
2708.49	2.30497e-06
2699.93	2.55197e-06
2691.37	2.25797e-06
2682.82	2.27397e-06
2674.26	2.25697e-06
2665.7	2.43697e-06
2657.14	2.28997e-06
2648.59	2.32097e-06
2640.03	2.18997e-06
2631.47	3.35796e-06
2622.91	2.82697e-06
2614.35	2.25897e-06
2605.8	2.45097e-06
2597.24	2.07998e-06
2588.68	1.83698e-06
2580.12	1.76298e-06
2571.57	1.69798e-06
2563.01	1.29898e-06
2554.45	1.49198e-06
2545.89	1.34998e-06
2537.34	1.40898e-06
2528.78	1.45298e-06
2520.22	1.40798e-06
2511.66	1.16199e-06
2503.11	1.16599e-06
2494.55	1.09599e-06
2485.99	1.04699e-06
2477.43	9.97188e-07
2468.87	1.09699e-06
2460.32	1.24299e-06
2451.76	1.17699e-06
2443.2	1.23799e-06
2434.64	1.56298e-06
2426.09	1.72598e-06
2417.53	1.75198e-06
2408.97	1.82298e-06
2400.41	1.80998e-06
2391.86	1.71398e-06
2383.3	1.82998e-06
2374.74	1.97598e-06
2366.18	1.77798e-06
2357.63	1.63198e-06
2349.07	1.52998e-06
2340.51	1.50498e-06
2331.95	1.33398e-06
2323.4	1.22999e-06
2314.84	1.25498e-06
2306.28	1.04699e-06
2297.72	8.93289e-07
2289.16	1.08299e-06
2280.61	9.80488e-07
2272.05	8.37689e-07
2263.49	9.75088e-07
2254.93	1.00399e-06
2246.38	8.52389e-07
2237.82	9.14589e-07
2229.26	8.8999e-07
2220.7	1.13199e-06
2212.15	1.00699e-06
2203.59	1.09899e-06
2195.03	1.29398e-06
2186.47	1.48998e-06
2177.92	1.51298e-06
2169.36	1.43798e-06
2160.8	1.48998e-06
2152.24	1.35398e-06
2143.69	1.04299e-06
2135.13	1.25498e-06
2126.57	1.63298e-06
2118.01	2.06798e-06
2109.45	1.19799e-06
2100.9	6.83492e-07
2092.34	1.96698e-06
2083.78	5.67493e-06
2075.22	9.99389e-06
2066.67	5.07594e-06
2058.11	2.38697e-06
2049.55	4.85894e-06
2040.99	4.56895e-06
2032.44	2.75097e-06
2023.88	2.14798e-06
2015.32	3.39796e-06
2006.76	1.73698e-06
1998.21	1.43298e-06
1989.65	6.74291e-07
1981.09	4.61194e-07
1972.53	3.93595e-07
1963.97	3.78295e-07
1955.42	3.66394e-07
1946.86	3.99394e-07
1938.3	4.76694e-07
1929.74	5.65093e-07
1921.19	4.26294e-07
1912.63	5.59293e-07
1904.07	2.96996e-07
1895.51	4.83293e-07
1886.96	5.19093e-07
1878.4	4.33495e-07
1869.84	5.05693e-07
1861.28	5.17393e-07
1852.73	5.32693e-07
1844.17	3.28696e-06
1835.61	5.90493e-07
1827.05	5.05093e-07
1818.5	6.71291e-07
1809.94	5.74393e-07
1801.38	1.00299e-06
1792.82	1.40598e-06
1784.26	6.27992e-07
1775.71	9.46288e-07
1767.15	4.92493e-07
1758.59	6.40391e-07
1750.03	6.30891e-07
1741.48	4.61794e-07
1732.92	6.72191e-07
1724.36	5.60993e-07
1715.8	5.83092e-07
1707.25	6.63891e-07
1698.69	5.67693e-07
1690.13	1.26398e-06
1681.57	7.15491e-07
1673.02	6.15493e-07
1664.46	6.28991e-07
1655.9	6.84791e-07
1647.34	1.77498e-06
1638.79	9.99288e-07
1630.23	1.23599e-06
1621.67	1.05099e-06
1613.11	1.10099e-06
1604.55	2.11098e-06
1596	1.97598e-06
1587.44	2.42797e-06
1578.88	3.87796e-06
1570.32	3.56296e-06
1561.77	3.92895e-06
1553.21	6.01993e-06
1544.65	5.92993e-06
1536.09	7.57191e-06
1527.54	8.7319e-06
1518.98	9.95789e-06
1510.42	1.14999e-05
1501.86	1.00599e-05
1493.31	9.78889e-06
1484.75	1.21299e-05
1476.19	1.63598e-05
1467.63	1.36398e-05
1459.08	1.43398e-05
1450.52	9.41389e-06
1441.96	1.28799e-05
1433.4	1.68498e-05
1424.84	1.69198e-05
1416.29	1.88098e-05
1407.73	1.69798e-05
1399.17	2.52397e-05
1390.61	2.23597e-05
1382.06	2.19697e-05
1373.5	2.78897e-05
1364.94	3.20896e-05
1356.38	2.55997e-05
1347.83	2.77697e-05
1339.27	3.63896e-05
1330.71	3.11796e-05
1322.15	3.89196e-05
1313.6	3.18996e-05
1305.04	1.86798e-05
1296.48	2.05798e-05
1287.92	1.38998e-05
1279.36	1.27099e-05
1270.81	1.35598e-05
1262.25	1.30499e-05
1253.69	1.19499e-05
1245.13	9.80789e-06
1236.58	1.07699e-05
1228.02	1.14699e-05
1219.46	1.04399e-05
1210.9	1.06899e-05
1202.35	1.02999e-05
1193.79	7.28792e-06
1185.23	5.39194e-06
1176.67	5.52094e-06
1168.12	4.60695e-06
1159.56	4.68095e-06
1151	4.13695e-06
1142.44	4.79194e-06
1133.89	6.41693e-06
1125.33	6.56192e-06
1116.77	8.23191e-06
1108.21	9.12389e-06
1099.65	8.7109e-06
1091.1	8.2609e-06
1082.54	1.70198e-05
1073.98	8.9259e-05
1065.42	0.000175298
1056.87	0.000329996
1048.31	0.000184698
1039.75	0.000117799
1031.19	0.000252297
1022.64	0.000219497
1014.08	0.000195698
1005.52	0.000233797
996.963	9.86388e-05
988.406	0.000109699
979.848	6.72892e-05
971.29	2.88497e-05
962.733	1.16899e-05
954.175	5.73593e-06
945.618	3.85396e-06
937.06	2.87597e-06
928.502	2.58897e-06
919.945	2.28097e-06
911.387	1.91898e-06
902.829	1.50298e-06
894.272	1.31298e-06
885.714	1.32298e-06
877.157	1.45598e-06
868.599	1.38698e-06
860.041	2.51997e-06
851.484	7.62391e-07
842.926	1.02099e-06
834.368	9.45788e-07
825.811	1.26098e-06
817.253	1.13199e-06
808.696	1.07299e-06
800.138	1.18099e-06
791.58	2.92796e-07
783.023	8.99689e-07
774.465	9.18089e-07
765.907	8.99989e-07
757.35	1.30898e-06
748.792	1.12799e-06
740.235	7.9099e-07
731.677	1.12699e-06
723.119	1.17799e-06
714.562	1.00699e-06
706.004	9.68788e-07
697.446	2.45697e-06
688.889	1.68098e-06
680.331	2.05798e-06
671.774	4.99893e-07
663.216	1.89198e-06
654.658	2.40297e-06
646.101	2.38397e-06
637.543	1.00699e-06
628.985	2.27097e-06
620.428	1.11499e-06
611.87	3.05896e-06
603.313	2.77297e-06
594.755	1.68598e-06
586.197	2.79597e-06
577.64	1.12999e-06
