Infrared Spectrum: Methanol
Formula: C H3 O H
CAS: 67-56-1
State: gas
Melting point: -93.9 C
Boiling point: 64.96 C
Class: IUPAC A
Instrument: IFS66V (Bruker)
Instrument parameters: KBr Beam splitter; MCT Detector; Multipass cell
Sampling: 1 L/min Flow
Resolution: 0.2410
Temperature: 23 C
Pressure: 101.3 kPa
Origin: NIST, Anayltical Chemistry Division, 301-975-3108
cm-1	(micromol/mol)-1m-1 (base 10)
575.048	2.49097e-06
583.606	2.016e-06
592.163	2.87885e-06
600.721	1.47384e-06
609.279	1.72875e-06
617.836	3.69123e-06
626.394	1.42766e-06
634.951	1.15774e-06
643.509	2.11074e-06
652.067	1.33087e-06
660.624	1.61687e-06
669.182	1.53166e-06
677.74	1.22886e-06
686.297	1.38483e-06
694.855	2.9459e-06
703.412	1.40901e-06
711.97	1.83446e-06
720.528	1.70168e-06
729.085	9.05616e-07
737.643	1.42778e-06
746.201	1.24138e-06
754.758	1.63211e-06
763.316	1.10647e-06
771.873	5.13885e-07
780.431	2.46564e-06
788.989	8.86222e-07
797.546	7.44056e-07
806.104	1.18061e-06
814.662	9.00271e-07
823.219	9.68769e-07
831.777	7.01231e-07
840.334	1.04876e-06
848.892	1.05591e-06
857.45	9.59959e-07
866.007	1.17832e-06
874.565	1.45286e-06
883.123	1.19128e-06
891.68	1.35828e-06
900.238	2.01019e-06
908.795	1.95999e-06
917.353	1.80402e-06
925.911	2.80635e-06
934.468	3.39731e-06
943.026	3.52408e-06
951.584	5.06459e-06
960.141	9.90882e-06
968.699	1.98411e-05
977.256	3.14278e-05
985.814	6.83604e-05
994.372	0.000149203
1002.93	0.000148507
1011.49	0.000261555
1020.04	0.00020084
1028.6	0.000118114
1037.16	8.77647e-05
1045.72	0.000229898
1054.28	0.000309081
1062.83	0.00026691
1071.39	0.000113119
1079.95	3.15215e-05
1088.51	1.12356e-05
1097.06	1.14724e-05
1105.62	9.43843e-06
1114.18	1.09567e-05
1122.74	7.99695e-06
1131.29	5.54413e-06
1139.85	5.89514e-06
1148.41	4.72696e-06
1156.97	5.83959e-06
1165.52	4.54852e-06
1174.08	4.28727e-06
1182.64	6.3455e-06
1191.2	6.02921e-06
1199.75	7.42976e-06
1208.31	1.04903e-05
1216.87	8.51997e-06
1225.43	1.354e-05
1233.99	1.17447e-05
1242.54	1.1795e-05
1251.1	1.27966e-05
1259.66	1.44927e-05
1268.22	1.31587e-05
1276.77	1.67941e-05
1285.33	1.55507e-05
1293.89	2.13237e-05
1302.45	2.71304e-05
1311	2.34812e-05
1319.56	2.77003e-05
1328.12	3.03869e-05
1336.68	2.54097e-05
1345.23	5.37621e-05
1353.79	3.35728e-05
1362.35	2.58413e-05
1370.91	3.22775e-05
1379.46	2.92711e-05
1388.02	2.52866e-05
1396.58	2.28526e-05
1405.14	1.99066e-05
1413.7	2.09021e-05
1422.25	1.50266e-05
1430.81	1.68443e-05
1439.37	1.46311e-05
1447.93	1.03185e-05
1456.48	1.76186e-05
1465.04	1.61532e-05
1473.6	1.95048e-05
1482.16	1.27107e-05
1490.71	1.3461e-05
1499.27	1.32508e-05
1507.83	1.01516e-05
1516.39	9.34964e-06
1524.94	8.48223e-06
1533.5	7.64494e-06
1542.06	9.67269e-06
1550.62	6.57954e-06
1559.18	6.08396e-06
1567.73	4.49749e-06
1576.29	6.18349e-06
1584.85	2.55396e-06
1593.41	2.29681e-06
1601.96	1.8259e-06
1610.52	1.29936e-06
1619.08	1.14293e-06
1627.64	1.33777e-06
1636.19	1.16848e-06
1644.75	7.59486e-07
1653.31	5.73738e-06
1661.87	6.72968e-07
1670.42	6.77912e-07
1678.98	6.18533e-07
1687.54	5.98981e-07
1696.1	3.23848e-06
1704.65	9.76132e-07
1713.21	5.57081e-07
1721.77	5.48608e-07
1730.33	6.22837e-07
1738.89	5.38307e-07
1747.44	5.56051e-07
1756	4.98732e-07
1764.56	4.39069e-07
1773.12	8.40498e-07
1781.67	4.82956e-07
1790.23	4.90286e-07
1798.79	4.99212e-07
1807.35	4.78837e-07
1815.9	5.25627e-07
1824.46	5.65559e-07
1833.02	4.97555e-07
1841.58	5.58361e-07
1850.13	5.02159e-07
1858.69	5.34829e-07
1867.25	5.9395e-07
1875.81	5.63551e-07
1884.36	5.30784e-07
1892.92	5.44215e-07
1901.48	4.65997e-07
1910.04	6.07852e-07
1918.6	5.39642e-07
1927.15	4.62479e-07
1935.71	4.65757e-07
1944.27	5.54074e-07
1952.83	4.52357e-07
1961.38	5.386e-07
1969.94	4.44921e-07
1978.5	4.83532e-07
1987.06	5.63727e-07
1995.61	1.11876e-06
2004.17	1.52017e-06
2012.73	2.24951e-06
2021.29	2.23178e-06
2029.84	2.59269e-06
2038.4	3.50591e-06
2046.96	3.4515e-06
2055.52	2.83763e-06
2064.08	4.20274e-06
2072.63	8.27471e-06
2081.19	8.36932e-06
2089.75	1.74134e-06
2098.31	1.52323e-06
2106.86	1.42837e-06
2115.42	2.39936e-06
2123.98	1.9538e-06
2132.54	1.26845e-06
2141.09	8.28131e-07
2149.65	1.71081e-06
2158.21	1.66155e-06
2166.77	1.35773e-06
2175.32	1.48093e-06
2183.88	1.28795e-06
2192.44	1.18222e-06
2201	1.05886e-06
2209.55	1.26368e-06
2218.11	1.01471e-06
2226.67	9.88716e-07
2235.23	9.69243e-07
2243.79	9.60823e-07
2252.34	1.03311e-06
2260.9	9.52689e-07
2269.46	9.44966e-07
2278.02	1.04096e-06
2286.57	1.06113e-06
2295.13	1.10654e-06
2303.69	1.04684e-06
2312.25	1.23682e-06
2320.8	1.27024e-06
2329.36	1.49823e-06
2337.92	1.44978e-06
2346.48	1.71444e-06
2355.03	1.65057e-06
2363.59	1.67555e-06
2372.15	1.95963e-06
2380.71	1.5263e-06
2389.26	1.62572e-06
2397.82	1.66999e-06
2406.38	1.97677e-06
2414.94	1.85273e-06
2423.5	1.58225e-06
2432.05	1.45292e-06
2440.61	1.31297e-06
2449.17	1.2649e-06
2457.73	1.27093e-06
2466.28	1.24038e-06
2474.84	1.11517e-06
2483.4	1.11584e-06
2491.96	1.06405e-06
2500.51	1.23573e-06
2509.07	1.18764e-06
2517.63	1.12027e-06
2526.19	1.39754e-06
2534.74	1.39805e-06
2543.3	1.31638e-06
2551.86	1.30209e-06
2560.42	1.5242e-06
2568.98	1.46305e-06
2577.53	1.61484e-06
2586.09	2.02637e-06
2594.65	2.59925e-06
2603.21	2.20508e-06
2611.76	2.35027e-06
2620.32	2.51838e-06
2628.88	2.52926e-06
2637.44	2.25448e-06
2645.99	2.38454e-06
2654.55	2.24185e-06
2663.11	2.01962e-06
2671.67	2.77715e-06
2680.22	2.58324e-06
2688.78	2.22503e-06
2697.34	2.53066e-06
2705.9	2.45168e-06
2714.45	2.37476e-06
2723.01	2.48777e-06
2731.57	2.64995e-06
2740.13	3.72835e-06
2748.69	4.78665e-06
2757.24	5.25959e-06
2765.8	6.11638e-06
2774.36	7.77389e-06
2782.92	1.0019e-05
2791.47	1.43226e-05
2800.03	2.1957e-05
2808.59	3.3246e-05
2817.15	5.54324e-05
2825.7	5.43408e-05
2834.26	5.47417e-05
2842.82	9.02734e-05
2851.38	4.58029e-05
2859.93	8.16739e-05
2868.49	9.92439e-05
2877.05	7.49607e-05
2885.61	6.01207e-05
2894.16	6.73386e-05
2902.72	8.90456e-05
2911.28	0.00010213
2919.84	0.000138628
2928.4	0.000118296
2936.95	0.000159011
2945.51	0.000138492
2954.07	0.000131831
2962.63	0.000145674
2971.18	0.000149536
2979.74	0.000161414
2988.3	0.000130896
2996.86	9.7863e-05
3005.41	0.000117839
3013.97	7.29796e-05
3022.53	6.28478e-05
3031.09	5.08457e-05
3039.64	3.6118e-05
3048.2	3.02928e-05
3056.76	2.24456e-05
3065.32	1.4097e-05
3073.88	1.13832e-05
3082.43	7.95762e-06
3090.99	4.71966e-06
3099.55	3.67115e-06
3108.11	2.41318e-06
3116.66	1.75e-06
3125.22	1.34296e-06
3133.78	1.34504e-06
3142.34	1.16457e-06
3150.89	1.01753e-06
3159.45	1.00884e-06
3168.01	9.72489e-07
3176.57	6.76866e-07
3185.12	9.87124e-07
3193.68	9.94083e-07
3202.24	8.75782e-07
3210.8	9.15545e-07
3219.35	6.37594e-07
3227.91	7.84903e-07
3236.47	8.8208e-07
3245.03	7.95165e-07
3253.59	6.40352e-07
3262.14	8.85461e-07
3270.7	5.06844e-07
3279.26	6.13313e-07
3287.82	6.83396e-07
3296.37	5.74485e-07
3304.93	5.17311e-07
3313.49	7.1785e-07
3322.05	8.42135e-07
3330.6	6.57689e-07
3339.16	7.542e-07
3347.72	7.19552e-07
3356.28	5.78588e-07
3364.83	9.23538e-07
3373.39	8.67543e-07
3381.95	8.89372e-07
3390.51	9.01266e-07
3399.06	8.09404e-07
3407.62	1.02955e-06
3416.18	1.07804e-06
3424.74	1.0217e-06
3433.3	1.38249e-06
3441.85	1.40468e-06
3450.41	1.45166e-06
3458.97	2.20493e-06
3467.53	1.30999e-06
3476.08	1.6462e-06
3484.64	2.03691e-06
3493.2	1.96629e-06
3501.76	1.58045e-06
3510.31	1.53008e-06
3518.87	1.6002e-06
3527.43	1.87852e-06
3535.99	1.95928e-06
3544.54	1.68025e-06
3553.1	1.67107e-06
3561.66	2.24038e-06
3570.22	2.34282e-06
3578.78	2.31008e-06
3587.33	3.21157e-06
3595.89	5.69502e-06
3604.45	4.57696e-06
3613.01	8.45291e-06
3621.56	9.37779e-06
3630.12	1.09159e-05
3638.68	1.94712e-05
3647.24	2.53353e-05
3655.79	3.21575e-05
3664.35	3.73604e-05
3672.91	4.51186e-05
3681.47	7.86936e-05
3690.02	2.99252e-05
3698.58	4.51783e-05
3707.14	4.71917e-05
3715.7	3.62414e-05
3724.25	2.52133e-05
3732.81	1.88087e-05
3741.37	9.26026e-06
3749.93	9.15294e-06
3758.49	1.17864e-05
3767.04	4.88657e-06
3775.6	3.00152e-06
3784.16	3.15554e-06
3792.72	3.10433e-06
3801.27	5.30467e-06
3809.83	3.1961e-06
3818.39	2.21764e-06
3826.95	3.03665e-06
3835.5	2.62444e-06
3844.06	2.58651e-06
3852.62	3.77449e-06
3861.18	2.26661e-06
3869.73	3.94492e-06
3878.29	2.09356e-06
3886.85	3.11957e-06
3895.41	3.25481e-06
3903.96	3.39155e-06
3912.52	2.06554e-06
3921.08	3.13639e-06
3929.64	2.36541e-06
3938.2	2.62219e-06
3946.75	3.02508e-06
3955.31	2.52514e-06
3963.87	2.83703e-06
3972.43	2.44262e-06
