Infrared Spectrum: Methanol
Formula: C H 4 O
CAS: 67-56-1
State: liquid
Instrument: Bruker Tensor 27 FTIR
Resolution: 0.4821395
Origin: Pacific Northwest National Laboratory Under IARPA Contract
1/cm	dispersion index
7797.62	1.31299
7779.06	1.31299
7760.5	1.31297
7741.94	1.31294
7723.38	1.31291
7704.81	1.31288
7686.25	1.31285
7667.69	1.31281
7649.13	1.31278
7630.57	1.31274
7612.01	1.31271
7593.44	1.31267
7574.88	1.31263
7556.32	1.3126
7537.76	1.31256
7519.2	1.31252
7500.64	1.31247
7482.07	1.31243
7463.51	1.31239
7444.95	1.31235
7426.39	1.31231
7407.83	1.31226
7389.26	1.31222
7370.7	1.31217
7352.14	1.31213
7333.58	1.31208
7315.02	1.31204
7296.46	1.31199
7277.89	1.31195
7259.33	1.3119
7240.77	1.31185
7222.21	1.3118
7203.65	1.31175
7185.09	1.3117
7166.52	1.31164
7147.96	1.31159
7129.4	1.31153
7110.84	1.31147
7092.28	1.31142
7073.71	1.31136
7055.15	1.31131
7036.59	1.31125
7018.03	1.31119
6999.47	1.31112
6980.91	1.31105
6962.34	1.31097
6943.78	1.31089
6925.22	1.3108
6906.66	1.31071
6888.1	1.31062
6869.54	1.31052
6850.97	1.31045
6832.41	1.31038
6813.85	1.3103
6795.29	1.31021
6776.73	1.31013
6758.16	1.31003
6739.6	1.30992
6721.04	1.30981
6702.48	1.30969
6683.92	1.30956
6665.36	1.30944
6646.79	1.30931
6628.23	1.30917
6609.67	1.30903
6591.11	1.30889
6572.55	1.30874
6553.99	1.30858
6535.42	1.30841
6516.86	1.30825
6498.3	1.30807
6479.74	1.30789
6461.18	1.30769
6442.61	1.30749
6424.05	1.30728
6405.49	1.30705
6386.93	1.30682
6368.37	1.30658
6349.81	1.30636
6331.24	1.30615
6312.68	1.30596
6294.12	1.30575
6275.56	1.30549
6257	1.30519
6238.44	1.30487
6219.87	1.30451
6201.31	1.30412
6182.75	1.3037
6164.19	1.30324
6145.63	1.30272
6127.06	1.30216
6108.5	1.30183
6089.94	1.30201
6071.38	1.30178
6052.82	1.30109
6034.26	1.30048
6015.69	1.29992
5997.13	1.29906
5978.57	1.29816
5960.01	1.29723
5941.45	1.29637
5922.89	1.29537
5904.32	1.29438
5885.76	1.29341
5867.2	1.29224
5848.64	1.29055
5830.08	1.28863
5811.51	1.28657
5792.95	1.28387
5774.39	1.28071
5755.83	1.27684
5737.27	1.27169
5718.71	1.26434
5700.14	1.25527
5681.58	1.24493
5663.02	1.23534
5644.46	1.22961
5625.9	1.23109
5607.34	1.24074
5588.77	1.26316
5570.21	1.29905
5551.65	1.33256
5533.09	1.35576
5514.53	1.36756
5495.96	1.36849
5477.4	1.36231
5458.84	1.35283
5440.28	1.34162
5421.72	1.32912
5403.16	1.31285
5384.59	1.31521
5366.03	1.35169
5347.47	1.36447
5328.91	1.34816
5310.35	1.38255
5291.79	1.37471
5273.22	1.36436
5254.66	1.35537
5236.1	1.3488
5217.54	1.34381
5198.98	1.34143
5180.41	1.33991
5161.85	1.33929
5143.29	1.3402
5124.73	1.33829
5106.17	1.33658
5087.61	1.33425
5069.04	1.33206
5050.48	1.33021
5031.92	1.32869
5013.36	1.32811
4994.8	1.32754
4976.24	1.32614
4957.67	1.32467
4939.11	1.32281
4920.55	1.32378
4901.99	1.32394
4883.43	1.32195
4864.86	1.32011
4846.3	1.31836
4827.74	1.31661
4809.18	1.31483
4790.62	1.31283
4772.06	1.31111
4753.49	1.30873
4734.93	1.30612
4716.37	1.30297
4697.81	1.29957
4679.25	1.2947
4660.69	1.28756
4642.12	1.27833
4623.56	1.3037
4605	1.32297
4586.44	1.3358
4567.88	1.32707
4549.31	1.31878
4530.75	1.31083
4512.19	1.30245
4493.63	1.29116
4475.07	1.27193
4456.51	1.26138
4437.94	1.21812
4419.38	0.979984
4400.82	1.58279
4382.26	1.43371
4363.7	1.38927
4345.14	1.36369
4326.57	1.34511
4308.01	1.3315
4289.45	1.32417
4270.89	1.32356
4252.33	1.33076
4233.76	1.34826
4215.2	1.37178
4196.64	1.39132
4178.08	1.40072
4159.52	1.40084
4140.96	1.39485
4122.39	1.38533
4103.83	1.37692
4085.27	7.32193e-05
4066.71	6.902e-05
4048.15	6.92835e-05
4029.58	7.32193e-05
4011.02	7.37448e-05
3992.46	7.26954e-05
3973.9	7.13824e-05
3955.34	7.11204e-05
3936.78	7.19079e-05
3918.21	7.47943e-05
3899.65	8.24055e-05
3881.09	8.68668e-05
3862.53	9.05406e-05
3843.97	9.47399e-05
3825.41	9.60514e-05
3806.84	9.52639e-05
3788.28	0.000103663
3769.72	0.000125182
3751.16	0.00014119
3732.6	0.000146964
3714.03	0.000154837
3695.47	0.000167434
3676.91	0.000179506
3658.35	0.00019289
3639.79	0.000213098
3621.23	0.000230419
3602.66	0.000241179
3584.1	0.000250363
3565.54	0.000260337
3546.98	0.000267684
3528.42	0.000275558
3509.86	0.000280806
3491.29	0.000286055
3472.73	0.00028868
3454.17	0.000296553
3435.61	0.00030705
3417.05	0.000317548
3398.48	0.000328045
3379.92	0.000335919
3361.36	0.000338543
3342.8	0.000333294
3324.24	0.000314923
3305.68	0.000291304
3287.11	0.000262436
3268.55	0.000237241
3249.99	0.000215984
3231.43	0.000203126
3212.87	0.000202076
3194.31	0.00021336
3175.74	0.000259811
3157.18	0.000312299
3138.62	0.00034379
3120.06	0.000314923
3101.5	0.000299177
3082.93	0.000280806
3064.37	0.000235668
3045.81	0.0002068
3027.25	0.000179506
3008.69	0.0001509
2990.13	0.000135155
2971.56	0.00012387
2953	0.000116521
2934.44	0.000107336
2915.88	0.000100513
2897.32	9.15901e-05
2878.76	8.60793e-05
2860.19	7.37448e-05
2841.63	7.53198e-05
2823.07	8.63413e-05
2804.51	8.87037e-05
2785.95	8.34549e-05
2767.38	9.60514e-05
2748.82	0.000119933
2730.26	0.000141715
2711.7	0.000183968
2693.14	0.000246165
2674.58	0.00034379
2656.01	0.000501252
2637.45	0.000648216
2618.89	0.000726948
2600.33	0.000711201
2581.77	0.000629845
2563.21	0.000543242
2544.64	0.000480258
2526.08	0.000443517
2507.52	0.000435644
2488.96	0.000464512
2470.4	0.000540618
2451.83	0.000742694
2433.27	0.00124395
2414.71	0.00235405
2396.15	0.00328045
2377.59	0.0022622
2359.03	0.00140666
2340.46	0.00141715
2321.9	0.00120458
2303.34	0.000721699
2284.78	0.000713826
2266.22	0.000929022
2247.66	0.00130693
2229.09	0.0015195
2210.53	0.00198926
2191.97	0.00229369
2173.41	0.00181343
2154.85	0.00104974
2136.28	0.00111535
2117.72	0.000771561
2099.16	0.000663962
2080.6	0.000934271
2062.04	0.00136729
2043.48	0.00198926
2024.91	0.00414649
2006.35	0.0125707
1987.79	0.0299177
1969.23	0.0611475
1950.67	0.107599
1932.11	0.167696
1913.54	0.231731
1894.98	0.299177
1876.42	0.341167
1857.86	0.330669
1839.3	0.286055
1820.73	0.22517
1802.17	0.164547
1783.61	0.116522
1765.05	0.083717
1746.49	0.0648217
1727.93	0.0593105
1709.36	0.0700704
1690.8	0.136729
1672.24	0.216247
1653.68	0.146439
1635.12	0.0905404
1616.56	0.194203
1597.99	0.0671836
1579.43	0.0301801
1560.87	0.0154837
1542.31	0.0110485
1523.75	0.0109436
1505.18	0.0153787
1486.62	0.0156674
1468.06	0.0180556
1449.5	0.0163498
1430.94	0.00944769
1412.38	0.00629846
1393.81	0.00312299
1375.25	0.00224645
1356.69	0.00250889
1338.13	0.0036741
1319.57	0.00566861
1301.01	0.00485506
1282.44	0.00341167
1263.88	0.00330669
1245.32	0.00404151
1226.76	0.0104712
1208.2	0.0051175
1189.63	0.00178719
1171.07	0.00098151
1152.51	0.00100251
1133.95	0.00141978
1115.39	0.00212836
1096.83	0.00296552
1078.26	0.0055374
1059.7	0.00598354
1041.14	0.00842419
1022.58	0.0112847
1004.02	0.0167172
985.455	0.0224383
966.894	0.0341167
948.332	0.0663963
929.77	0.141978
911.208	0.137254
892.647	0.0986759
874.085	0.0503877
855.523	0.0356913
836.961	0.0293928
818.399	0.0267685
799.838	0.0272933
781.276	0.0341167
762.714	0.0963139
744.152	0.0787307
725.591	0.272933
707.029	0.57211
688.467	0.0385781
669.905	0.00750566
651.344	0.0024669
632.782	0.0104449
614.22	0.0317547
595.658	0.0653465
577.096	0.105499
558.535	0.148276
539.973	0.185805
521.411	0.196827
502.849	0.171895
484.288	0.125182
465.726	0.075844
447.164	0.0362161
428.602	0.0098151
410.041	0.00203913
