Infrared Spectrum: Methanol
Formula: C H3 O H
CAS: 67-56-1
State: gas
Melting point: -93.9 C
Boiling point: 64.96 C
Class: IUPAC A
Instrument: IFS66V (Bruker)
Instrument parameters: KBr Beam splitter; MCT Detector; Multipass cell
Sampling: 1 L/min Flow
Resolution: 0.1250
Temperature: 23 C
Pressure: 101.3 kPa
Origin: NIST, Anayltical Chemistry Division, 301-975-3108
cm-1	(micromol/mol)-1m-1 (base 10)
574.988	2.34868e-06
583.546	1.45798e-06
592.103	2.77083e-06
600.661	9.88537e-07
609.219	2.15601e-06
617.776	4.32704e-06
626.334	1.02105e-06
634.891	1.02654e-06
643.449	2.63663e-06
652.007	1.01853e-06
660.564	1.55106e-06
669.122	1.80761e-06
677.68	1.33107e-06
686.237	1.27407e-06
694.795	3.13234e-06
703.352	1.3462e-06
711.91	1.82314e-06
720.468	1.91599e-06
729.025	1.07591e-06
737.583	1.45209e-06
746.141	9.75914e-07
754.698	1.8262e-06
763.256	1.15101e-06
771.813	4.34243e-07
780.371	2.5011e-06
788.929	6.65599e-07
797.486	7.99896e-07
806.044	1.09055e-06
814.602	8.40463e-07
823.159	9.81556e-07
831.717	6.69687e-07
840.274	1.15687e-06
848.832	1.13748e-06
857.39	8.5438e-07
865.947	1.10287e-06
874.505	1.61138e-06
883.063	1.0856e-06
891.62	1.27688e-06
900.178	2.1735e-06
908.735	1.82672e-06
917.293	1.6808e-06
925.851	2.61651e-06
934.408	3.24749e-06
942.966	3.37474e-06
951.524	5.11192e-06
960.081	9.4923e-06
968.639	2.0103e-05
977.196	3.05506e-05
985.754	6.25456e-05
994.312	0.000140927
1002.87	0.000147437
1011.43	0.000235868
1019.98	0.000181521
1028.54	0.000108939
1037.1	8.94798e-05
1045.66	0.000215918
1054.22	0.000314131
1062.77	0.000295609
1071.33	0.000114378
1079.89	3.07799e-05
1088.45	1.10288e-05
1097	1.0279e-05
1105.56	9.3963e-06
1114.12	1.09314e-05
1122.68	7.54943e-06
1131.23	5.34105e-06
1139.79	5.83211e-06
1148.35	4.53368e-06
1156.91	5.79237e-06
1165.46	4.75727e-06
1174.02	4.09176e-06
1182.58	6.10983e-06
1191.14	5.94551e-06
1199.69	7.28628e-06
1208.25	1.1509e-05
1216.81	8.08716e-06
1225.37	1.46623e-05
1233.93	1.33144e-05
1242.48	1.14105e-05
1251.04	1.31084e-05
1259.6	1.45913e-05
1268.16	1.30996e-05
1276.71	1.72535e-05
1285.27	1.61697e-05
1293.83	2.26045e-05
1302.39	2.62343e-05
1310.94	2.38762e-05
1319.5	2.8818e-05
1328.06	3.13538e-05
1336.62	2.66058e-05
1345.17	5.42162e-05
1353.73	3.56888e-05
1362.29	2.39435e-05
1370.85	3.33759e-05
1379.4	2.90444e-05
1387.96	2.47238e-05
1396.52	2.13894e-05
1405.08	1.98391e-05
1413.64	1.95635e-05
1422.19	1.54059e-05
1430.75	1.77534e-05
1439.31	1.48311e-05
1447.87	1.04698e-05
1456.42	1.68271e-05
1464.98	1.68765e-05
1473.54	2.14634e-05
1482.1	1.24198e-05
1490.65	1.31414e-05
1499.21	1.31897e-05
1507.77	1.06512e-05
1516.33	9.30416e-06
1524.88	8.31412e-06
1533.44	6.99009e-06
1542	9.98205e-06
1550.56	6.63504e-06
1559.11	6.23977e-06
1567.67	4.26952e-06
1576.23	8.15555e-06
1584.79	2.44159e-06
1593.35	2.2115e-06
1601.9	1.73903e-06
1610.46	1.19377e-06
1619.02	1.1013e-06
1627.58	1.15961e-06
1636.13	1.19596e-06
1644.69	7.2359e-07
1653.25	6.90602e-06
1661.81	6.10095e-07
1670.36	6.78305e-07
1678.92	5.59455e-07
1687.48	5.80813e-07
1696.04	4.75501e-06
1704.59	1.14026e-06
1713.15	5.50371e-07
1721.71	5.67313e-07
1730.27	5.61927e-07
1738.83	5.33769e-07
1747.38	5.81908e-07
1755.94	4.51751e-07
1764.5	4.08447e-07
1773.06	8.64889e-07
1781.61	4.6945e-07
1790.17	5.33736e-07
1798.73	5.0813e-07
1807.29	4.89695e-07
1815.84	5.28918e-07
1824.4	5.80035e-07
1832.96	4.89788e-07
1841.52	5.96109e-07
1850.07	4.63054e-07
1858.63	5.72344e-07
1867.19	5.83947e-07
1875.75	5.83793e-07
1884.3	5.07706e-07
1892.86	5.13551e-07
1901.42	4.56671e-07
1909.98	6.77732e-07
1918.54	5.44766e-07
1927.09	4.6253e-07
1935.65	4.68671e-07
1944.21	5.53066e-07
1952.77	4.9081e-07
1961.32	5.53083e-07
1969.88	4.54157e-07
1978.44	4.88729e-07
1987	5.12661e-07
1995.55	1.0688e-06
2004.11	1.53471e-06
2012.67	2.13379e-06
2021.23	2.03838e-06
2029.78	2.50252e-06
2038.34	2.86584e-06
2046.9	3.80941e-06
2055.46	2.9202e-06
2064.01	4.31927e-06
2072.57	8.09758e-06
2081.13	8.28665e-06
2089.69	1.79651e-06
2098.25	1.47044e-06
2106.8	1.49625e-06
2115.36	2.39962e-06
2123.92	1.94532e-06
2132.48	1.26331e-06
2141.03	8.06925e-07
2149.59	1.52309e-06
2158.15	1.52696e-06
2166.71	1.38881e-06
2175.26	1.44151e-06
2183.82	1.23953e-06
2192.38	1.16031e-06
2200.94	1.03701e-06
2209.49	1.37119e-06
2218.05	1.00898e-06
2226.61	9.49309e-07
2235.17	9.38486e-07
2243.72	8.99453e-07
2252.28	1.09461e-06
2260.84	9.77256e-07
2269.4	1.01333e-06
2277.96	1.05408e-06
2286.51	1.10941e-06
2295.07	1.13621e-06
2303.63	9.55903e-07
2312.19	1.27407e-06
2320.74	1.22103e-06
2329.3	1.4389e-06
2337.86	1.44557e-06
2346.42	1.72249e-06
2354.97	1.60503e-06
2363.53	1.63774e-06
2372.09	1.99249e-06
2380.65	1.47135e-06
2389.2	1.61407e-06
2397.76	1.64423e-06
2406.32	1.93527e-06
2414.88	1.90725e-06
2423.44	1.56157e-06
2431.99	1.49022e-06
2440.55	1.2703e-06
2449.11	1.28261e-06
2457.67	1.37e-06
2466.22	1.27748e-06
2474.78	1.19506e-06
2483.34	1.11915e-06
2491.9	1.00071e-06
2500.45	1.18442e-06
2509.01	1.17533e-06
2517.57	1.07955e-06
2526.13	1.43576e-06
2534.68	1.38845e-06
2543.24	1.2734e-06
2551.8	1.23744e-06
2560.36	1.4475e-06
2568.91	1.41554e-06
2577.47	1.63066e-06
2586.03	2.08124e-06
2594.59	2.62136e-06
2603.15	2.27266e-06
2611.7	2.30554e-06
2620.26	2.40594e-06
2628.82	2.50943e-06
2637.38	2.22088e-06
2645.93	2.3561e-06
2654.49	2.16485e-06
2663.05	2.05304e-06
2671.61	2.78748e-06
2680.16	2.58423e-06
2688.72	2.17902e-06
2697.28	2.5593e-06
2705.84	2.43104e-06
2714.39	2.34396e-06
2722.95	2.43956e-06
2731.51	2.57729e-06
2740.07	3.75117e-06
2748.62	4.84981e-06
2757.18	5.14929e-06
2765.74	6.04071e-06
2774.3	7.39831e-06
2782.86	1.01445e-05
2791.41	1.4144e-05
2799.97	2.1926e-05
2808.53	3.35829e-05
2817.09	5.57137e-05
2825.64	5.19626e-05
2834.2	5.36817e-05
2842.76	8.4582e-05
2851.32	4.50105e-05
2859.87	8.39509e-05
2868.43	9.87698e-05
2876.99	7.46959e-05
2885.55	5.76108e-05
2894.1	6.66019e-05
2902.66	9.14047e-05
2911.22	0.000101033
2919.78	0.000137414
2928.34	0.000117226
2936.89	0.000162841
2945.45	0.000135714
2954.01	0.000134853
2962.57	0.000145867
2971.12	0.000148366
2979.68	0.000162622
2988.24	0.000127764
2996.8	0.00010159
3005.35	0.000113895
3013.91	7.30386e-05
3022.47	6.59632e-05
3031.03	4.81907e-05
3039.58	3.64788e-05
3048.14	3.16368e-05
3056.7	2.28792e-05
3065.26	1.33454e-05
3073.81	1.19129e-05
3082.37	8.07149e-06
3090.93	4.63263e-06
3099.49	3.46646e-06
3108.05	2.37931e-06
3116.6	1.70311e-06
3125.16	1.20747e-06
3133.72	1.26414e-06
3142.28	1.16631e-06
3150.83	9.66189e-07
3159.39	9.42286e-07
3167.95	8.82591e-07
3176.51	5.12339e-07
3185.06	9.16524e-07
3193.62	9.42395e-07
3202.18	9.02887e-07
3210.74	8.94342e-07
3219.29	6.97726e-07
3227.85	8.2637e-07
3236.41	9.10059e-07
3244.97	8.78014e-07
3253.52	5.68273e-07
3262.08	8.28249e-07
3270.64	4.8739e-07
3279.2	4.98266e-07
3287.76	7.94987e-07
3296.31	7.10825e-07
3304.87	5.70987e-07
3313.43	6.54962e-07
3321.99	1.07702e-06
3330.54	7.41886e-07
3339.1	6.96084e-07
3347.66	5.92882e-07
3356.22	5.62567e-07
3364.77	9.6994e-07
3373.33	9.54839e-07
3381.89	8.44376e-07
3390.45	9.63275e-07
3399	8.19894e-07
3407.56	1.03305e-06
3416.12	9.05252e-07
3424.68	9.00873e-07
3433.23	1.35938e-06
3441.79	1.51827e-06
3450.35	1.34232e-06
3458.91	2.07538e-06
3467.47	1.51435e-06
3476.02	1.63944e-06
3484.58	2.12215e-06
3493.14	1.94866e-06
3501.7	1.46354e-06
3510.25	1.73372e-06
3518.81	1.42368e-06
3527.37	1.7664e-06
3535.93	1.91837e-06
3544.48	1.58853e-06
3553.04	1.51604e-06
3561.6	2.19776e-06
3570.16	2.407e-06
3578.71	2.14544e-06
3587.27	2.98381e-06
3595.83	6.06423e-06
3604.39	4.34237e-06
3612.95	8.24441e-06
3621.5	1.03632e-05
3630.06	1.09652e-05
3638.62	1.97996e-05
3647.18	2.61182e-05
3655.73	3.21007e-05
3664.29	3.5923e-05
3672.85	4.86754e-05
3681.41	8.79701e-05
3689.96	2.81252e-05
3698.52	4.44231e-05
3707.08	4.86588e-05
3715.64	3.47119e-05
3724.19	2.5088e-05
3732.75	2.00396e-05
3741.31	9.80273e-06
3749.87	9.22721e-06
3758.42	1.16997e-05
3766.98	4.48179e-06
3775.54	2.79331e-06
3784.1	3.06454e-06
3792.66	3.04908e-06
3801.21	4.51664e-06
3809.77	3.31356e-06
3818.33	2.24947e-06
3826.89	3.23717e-06
3835.44	2.59404e-06
3844	2.62561e-06
3852.56	3.68837e-06
3861.12	2.09171e-06
3869.67	3.87969e-06
3878.23	2.09653e-06
3886.79	3.25883e-06
3895.35	3.2675e-06
3903.9	3.13352e-06
3912.46	2.05189e-06
3921.02	3.06259e-06
3929.58	2.28644e-06
3938.13	2.67944e-06
3946.69	3.06024e-06
3955.25	2.52578e-06
3963.81	2.68657e-06
3972.37	2.51662e-06
