Infrared Spectrum: 2-Propanol
Formula: C H3 C H( O H) C H3
CAS: 67-63-0
State: gas
Melting point: -89.5 C
Boiling point: 82.4 C
Class: IUPAC A
Instrument: IFS66V (Bruker)
Instrument parameters: KBr Beam splitter; MCT Detector; Multipass cell
Sampling: 1 L/min Flow
Resolution: 0.1250
Temperature: 23 C
Pressure: 101.3 kPa
Origin: NIST, Anayltical Chemistry Division, 301-975-3108
cm-1	(micromol/mol)-1m-1 (base 10)
574.988	2.29647e-06
583.546	3.38693e-06
592.103	3.22771e-06
600.661	3.34533e-06
609.219	3.81203e-06
617.776	3.91257e-06
626.334	4.22665e-06
634.891	4.03047e-06
643.449	4.32885e-06
652.007	3.59703e-06
660.564	3.45232e-06
669.122	3.09709e-06
677.68	3.25937e-06
686.237	2.86131e-06
694.795	2.57683e-06
703.352	2.75036e-06
711.91	2.53404e-06
720.468	2.2844e-06
729.025	1.83771e-06
737.583	1.55159e-06
746.141	1.31254e-06
754.698	1.16526e-06
763.256	1.13768e-06
771.813	1.10417e-06
780.371	2.08221e-06
788.929	5.3563e-06
797.486	1.54867e-05
806.044	2.39448e-05
814.602	2.88024e-05
823.159	2.48149e-05
831.717	2.36442e-05
840.274	9.34911e-06
848.832	3.42801e-06
857.39	1.95307e-06
865.947	1.57765e-06
874.505	1.50261e-06
883.063	1.51347e-06
891.62	2.05648e-06
900.178	3.27795e-06
908.735	5.86627e-06
917.293	1.29345e-05
925.851	3.39042e-05
934.408	8.70315e-05
942.966	0.000138614
951.524	0.000166304
960.081	0.000145231
968.639	0.000138902
977.196	5.21811e-05
985.754	1.3821e-05
994.312	6.78474e-06
1002.87	5.43159e-06
1011.43	5.13502e-06
1019.98	5.73016e-06
1028.54	7.83861e-06
1037.1	1.38602e-05
1045.66	3.12306e-05
1054.22	6.40986e-05
1062.77	9.64527e-05
1071.33	0.000136689
1079.89	0.00012474
1088.45	0.000116227
1097	8.07529e-05
1105.56	6.12852e-05
1114.12	7.15779e-05
1122.68	9.39907e-05
1131.23	0.000119828
1139.79	0.000143938
1148.35	0.000175347
1156.91	0.000174728
1165.46	0.000146957
1174.02	0.00010948
1182.58	7.1555e-05
1191.14	3.56807e-05
1199.69	2.15422e-05
1208.25	1.90158e-05
1216.81	2.54152e-05
1225.37	4.49057e-05
1233.93	7.88051e-05
1242.48	9.92028e-05
1251.04	0.000125946
1259.6	9.80971e-05
1268.16	7.91057e-05
1276.71	4.16678e-05
1285.27	2.34945e-05
1293.83	1.64584e-05
1302.39	1.50544e-05
1310.94	1.64795e-05
1319.5	2.15961e-05
1328.06	3.15481e-05
1336.62	4.23784e-05
1345.17	4.98952e-05
1353.73	6.50232e-05
1362.29	8.54803e-05
1370.85	0.000130444
1379.4	0.000188635
1387.96	0.000185532
1396.52	0.00015921
1405.08	8.34499e-05
1413.64	4.36535e-05
1422.19	2.53979e-05
1430.75	2.14785e-05
1439.31	2.54465e-05
1447.87	3.16052e-05
1456.42	4.38711e-05
1464.98	4.57362e-05
1473.54	8.05229e-05
1482.1	2.97503e-05
1490.65	2.41579e-05
1499.21	1.35309e-05
1507.77	6.28073e-06
1516.33	3.46283e-06
1524.88	2.32397e-06
1533.44	1.86433e-06
1542	1.70581e-06
1550.56	1.31861e-06
1559.11	1.25189e-06
1567.67	1.09173e-06
1576.23	1.46378e-06
1584.79	1.00662e-06
1593.35	9.92e-07
1601.9	9.22172e-07
1610.46	9.09407e-07
1619.02	9.44669e-07
1627.58	9.87923e-07
1636.13	1.13047e-06
1644.69	1.30457e-06
1653.25	1.96134e-06
1661.81	1.66125e-06
1670.36	1.69982e-06
1678.92	1.65566e-06
1687.48	1.60416e-06
1696.04	1.89401e-06
1704.59	1.59704e-06
1713.15	1.65742e-06
1721.71	1.82668e-06
1730.27	1.94023e-06
1738.83	2.22668e-06
1747.38	3.02059e-06
1755.94	3.83301e-06
1764.5	3.93515e-06
1773.06	3.79527e-06
1781.61	3.30443e-06
1790.17	1.50455e-06
1798.73	6.13644e-07
1807.29	5.27317e-07
1815.84	5.86374e-07
1824.4	6.49215e-07
1832.96	7.2701e-07
1841.52	6.36423e-07
1850.07	5.69425e-07
1858.63	8.68972e-07
1867.19	9.08742e-07
1875.75	1.39496e-06
1884.3	1.795e-06
1892.86	2.24562e-06
1901.42	2.39593e-06
1909.98	2.07149e-06
1918.54	1.58804e-06
1927.09	6.72331e-07
1935.65	2.80268e-07
1944.21	1.99224e-07
1952.77	3.0465e-07
1961.32	3.32969e-07
1969.88	3.93172e-07
1978.44	5.50631e-07
1987	5.35662e-07
1995.55	5.00885e-07
2004.11	5.29135e-07
2012.67	6.20748e-07
2021.23	7.35535e-07
2029.78	7.64004e-07
2038.34	8.27235e-07
2046.9	7.08623e-07
2055.46	8.22245e-07
2064.01	1.00706e-06
2072.57	1.24022e-06
2081.13	1.32863e-06
2089.69	1.24846e-06
2098.25	1.13925e-06
2106.8	8.77997e-07
2115.36	7.61481e-07
2123.92	8.34169e-07
2132.48	7.87871e-07
2141.03	9.69957e-07
2149.59	1.11173e-06
2158.15	1.50905e-06
2166.71	1.43317e-06
2175.26	1.36617e-06
2183.82	1.56611e-06
2192.38	1.73997e-06
2200.94	1.52129e-06
2209.49	1.45126e-06
2218.05	7.6208e-07
2226.61	4.77603e-07
2235.17	3.73703e-07
2243.72	3.66534e-07
2252.28	4.84314e-07
2260.84	5.56237e-07
2269.4	7.78549e-07
2277.96	1.06041e-06
2286.51	1.43323e-06
2295.07	1.93149e-06
2303.63	2.30427e-06
2312.19	2.68272e-06
2320.74	2.5909e-06
2329.3	2.42509e-06
2337.86	1.66336e-06
2346.42	1.20186e-06
2354.97	8.6669e-07
2363.53	7.43736e-07
2372.09	8.59607e-07
2380.65	1.04645e-06
2389.2	1.1577e-06
2397.76	1.19174e-06
2406.32	1.11234e-06
2414.88	1.21353e-06
2423.44	1.22988e-06
2431.99	1.36917e-06
2440.55	1.3299e-06
2449.11	1.45438e-06
2457.67	1.36699e-06
2466.22	1.24375e-06
2474.78	1.44749e-06
2483.34	1.70917e-06
2491.9	1.93787e-06
2500.45	2.08938e-06
2509.01	2.12129e-06
2517.57	1.94381e-06
2526.13	1.67466e-06
2534.68	1.64204e-06
2543.24	1.42175e-06
2551.8	1.31193e-06
2560.36	1.34426e-06
2568.91	1.50051e-06
2577.47	1.74157e-06
2586.03	2.16981e-06
2594.59	2.65393e-06
2603.15	3.48545e-06
2611.7	3.94575e-06
2620.26	4.74721e-06
2628.82	6.6712e-06
2637.38	7.70166e-06
2645.93	8.4638e-06
2654.49	8.61348e-06
2663.05	9.28558e-06
2671.61	8.20226e-06
2680.16	6.74729e-06
2688.72	5.64339e-06
2697.28	4.80162e-06
2705.84	4.6368e-06
2714.39	5.63053e-06
2722.95	6.26681e-06
2731.51	7.00773e-06
2740.07	7.14766e-06
2748.62	6.99103e-06
2757.18	7.39146e-06
2765.74	8.39584e-06
2774.3	8.87293e-06
2782.86	9.84151e-06
2791.41	1.10416e-05
2799.97	1.21557e-05
2808.53	1.32874e-05
2817.09	1.55533e-05
2825.64	1.78647e-05
2834.2	2.04024e-05
2842.76	2.36972e-05
2851.32	3.78604e-05
2859.87	5.62368e-05
2868.43	8.54257e-05
2876.99	0.000108031
2885.55	0.00015312
2894.1	0.00014387
2902.66	0.000131388
2911.22	0.000115559
2919.78	0.000102635
2928.34	0.000111994
2936.89	0.000118143
2945.45	0.000147863
2954.01	0.000214675
2962.57	0.000283542
2971.12	0.0004706
2979.68	0.00052048
2988.24	0.000308106
2996.8	0.000248025
3005.35	0.000128582
3013.91	3.58346e-05
3022.47	8.76764e-06
3031.03	3.2771e-06
3039.58	2.00522e-06
3048.14	1.51733e-06
3056.7	1.2113e-06
3065.26	1.17293e-06
3073.81	1.13869e-06
3082.37	1.19322e-06
3090.93	1.27895e-06
3099.49	1.36553e-06
3108.05	1.44686e-06
3116.6	1.55805e-06
3125.16	1.80295e-06
3133.72	1.86173e-06
3142.28	1.94541e-06
3150.83	2.34101e-06
3159.39	2.84832e-06
3167.95	3.63961e-06
3176.51	4.39441e-06
3185.06	5.0441e-06
3193.62	5.14188e-06
3202.18	5.18944e-06
3210.74	4.57568e-06
3219.29	4.1988e-06
3227.85	3.76463e-06
3236.41	3.22104e-06
3244.97	2.36448e-06
3253.52	1.38369e-06
3262.08	8.84373e-07
3270.64	4.08012e-07
3279.2	3.36203e-07
3287.76	3.0278e-07
3296.31	2.99964e-07
3304.87	5.76729e-07
3313.43	7.20589e-07
3321.99	1.0613e-06
3330.54	1.55311e-06
3339.1	1.8331e-06
3347.66	1.71247e-06
3356.22	1.67701e-06
3364.77	1.48226e-06
3373.33	1.35143e-06
3381.89	1.29561e-06
3390.45	1.48171e-06
3399	1.78558e-06
3407.56	1.89652e-06
3416.12	2.09275e-06
3424.68	2.59056e-06
3433.23	2.52245e-06
3441.79	2.53391e-06
3450.35	3.37091e-06
3458.91	2.53277e-06
3467.47	2.26054e-06
3476.02	1.92666e-06
3484.58	1.4731e-06
3493.14	1.15868e-06
3501.7	9.0213e-07
3510.25	7.61127e-07
3518.81	8.18503e-07
3527.37	8.59744e-07
3535.93	1.0069e-06
3544.48	1.25643e-06
3553.04	1.12733e-06
3561.6	9.68089e-07
3570.16	9.79505e-07
3578.71	9.65265e-07
3587.27	1.10932e-06
3595.83	1.60094e-06
3604.39	2.36523e-06
3612.95	4.80975e-06
3621.5	8.53235e-06
3630.06	1.351e-05
3638.62	3.14109e-05
3647.18	4.87938e-05
3655.73	5.57433e-05
3664.29	4.84677e-05
3672.85	4.14191e-05
3681.41	1.93582e-05
3689.96	6.05136e-06
3698.52	2.66385e-06
3707.08	1.74065e-06
3715.64	1.5874e-06
3724.19	1.24417e-06
3732.75	1.12185e-06
3741.31	1.12424e-06
3749.87	1.08013e-06
3758.42	9.20576e-07
3766.98	1.10233e-06
3775.54	1.38513e-06
3784.1	1.95899e-06
3792.66	2.18381e-06
3801.21	2.53063e-06
3809.77	2.56055e-06
3818.33	2.61014e-06
3826.89	2.65789e-06
3835.44	2.56917e-06
3844	2.45433e-06
3852.56	2.31345e-06
3861.12	2.15819e-06
3869.67	2.46503e-06
3878.23	2.22319e-06
3886.79	2.10054e-06
3895.35	2.62586e-06
3903.9	2.07769e-06
3912.46	1.88652e-06
3921.02	1.47251e-06
3929.58	1.39021e-06
3938.13	1.19147e-06
3946.69	1.13909e-06
3955.25	9.01354e-07
3963.81	8.78906e-07
3972.37	8.82025e-07
