Infrared Spectrum: 2-Propanol
Formula: C H3 C H( O H) C H3
CAS: 67-63-0
State: gas
Melting point: -89.5 C
Boiling point: 82.4 C
Class: IUPAC A
Instrument: IFS66V (Bruker)
Instrument parameters: KBr Beam splitter; MCT Detector; Multipass cell
Sampling: 1 L/min Flow
Resolution: 0.4820
Temperature: 23 C
Pressure: 101.3 kPa
Origin: NIST, Anayltical Chemistry Division, 301-975-3108
cm-1	(micromol/mol)-1m-1 (base 10)
574.928	2.57796e-06
583.606	2.88933e-06
592.284	3.30336e-06
600.962	3.58212e-06
609.641	3.96396e-06
618.319	4.05559e-06
626.997	4.35573e-06
635.675	4.15685e-06
644.353	4.16957e-06
653.031	3.8286e-06
661.71	3.49008e-06
670.388	3.2007e-06
679.066	2.92638e-06
687.744	2.88191e-06
696.422	2.66557e-06
705.1	2.69729e-06
713.778	2.34651e-06
722.457	2.19655e-06
731.135	1.83251e-06
739.813	1.49741e-06
748.491	1.19123e-06
757.169	1.07957e-06
765.847	1.06026e-06
774.526	1.27392e-06
783.204	2.51905e-06
791.882	8.23264e-06
800.56	1.95151e-05
809.238	2.48745e-05
817.916	2.74057e-05
826.594	2.58842e-05
835.273	1.75981e-05
843.951	5.77296e-06
852.629	2.6203e-06
861.307	1.66613e-06
869.985	1.53755e-06
878.663	1.5057e-06
887.342	1.75812e-06
896.02	2.55811e-06
904.698	4.35629e-06
913.376	8.69579e-06
922.054	2.16621e-05
930.732	5.9782e-05
939.41	0.000124144
948.089	0.000147543
956.767	0.000179977
965.445	0.000149049
974.123	8.26294e-05
982.801	2.08516e-05
991.479	8.04375e-06
1000.16	5.61573e-06
1008.84	5.23218e-06
1017.51	5.24532e-06
1026.19	7.06254e-06
1034.87	1.16423e-05
1043.55	2.49433e-05
1052.23	5.5568e-05
1060.9	9.26159e-05
1069.58	0.000127227
1078.26	0.000127081
1086.94	0.000117376
1095.62	8.67397e-05
1104.3	6.20947e-05
1112.97	6.90006e-05
1121.65	9.13506e-05
1130.33	0.000115893
1139.01	0.000141971
1147.69	0.000172563
1156.36	0.000176185
1165.04	0.000150528
1173.72	0.000110675
1182.4	7.24379e-05
1191.08	3.58237e-05
1199.76	2.14915e-05
1208.43	1.90693e-05
1217.11	2.57945e-05
1225.79	4.64619e-05
1234.47	8.0751e-05
1243.15	9.76366e-05
1251.82	0.000125637
1260.5	9.77641e-05
1269.18	7.42468e-05
1277.86	3.78863e-05
1286.54	2.20288e-05
1295.21	1.59393e-05
1303.89	1.50861e-05
1312.57	1.71057e-05
1321.25	2.33477e-05
1329.93	3.43027e-05
1338.61	4.47048e-05
1347.28	5.58672e-05
1355.96	7.10906e-05
1364.64	9.33396e-05
1373.32	0.000148506
1382	0.000204062
1390.67	0.000180253
1399.35	0.000134445
1408.03	6.70614e-05
1416.71	3.48394e-05
1425.39	2.29811e-05
1434.07	2.25212e-05
1442.74	2.78918e-05
1451.42	3.45591e-05
1460.1	5.47878e-05
1468.78	3.56599e-05
1477.46	3.42144e-05
1486.13	2.80234e-05
1494.81	1.87794e-05
1503.49	9.0979e-06
1512.17	4.56613e-06
1520.85	2.80967e-06
1529.52	2.03552e-06
1538.2	1.65732e-06
1546.88	1.44992e-06
1555.56	1.27563e-06
1564.24	1.12241e-06
1572.92	1.06408e-06
1581.59	1.01799e-06
1590.27	9.89567e-07
1598.95	9.62321e-07
1607.63	9.10384e-07
1616.31	9.8049e-07
1624.98	9.48197e-07
1633.66	1.11246e-06
1642.34	1.21555e-06
1651.02	1.46544e-06
1659.7	1.5809e-06
1668.38	1.74293e-06
1677.05	1.66813e-06
1685.73	1.61124e-06
1694.41	1.54219e-06
1703.09	1.54468e-06
1711.77	1.67493e-06
1720.44	1.81486e-06
1729.12	1.87275e-06
1737.8	2.181e-06
1746.48	2.96295e-06
1755.16	3.81393e-06
1763.84	3.90296e-06
1772.51	4.11095e-06
1781.19	3.36021e-06
1789.87	1.56611e-06
1798.55	6.55403e-07
1807.23	5.29914e-07
1815.9	5.98713e-07
1824.58	6.57955e-07
1833.26	7.31845e-07
1841.94	6.48276e-07
1850.62	6.01973e-07
1859.29	8.35029e-07
1867.97	9.885e-07
1876.65	1.41961e-06
1885.33	1.88758e-06
1894.01	2.27511e-06
1902.69	2.40074e-06
1911.36	1.90566e-06
1920.04	1.48307e-06
1928.72	5.76107e-07
1937.4	2.64599e-07
1946.08	2.43758e-07
1954.75	3.37665e-07
1963.43	4.16228e-07
1972.11	4.56453e-07
1980.79	5.4966e-07
1989.47	5.06722e-07
1998.15	5.21507e-07
2006.82	5.86706e-07
2015.5	6.7998e-07
2024.18	7.65983e-07
2032.86	7.80987e-07
2041.54	7.76248e-07
2050.21	7.24952e-07
2058.89	8.58501e-07
2067.57	1.09661e-06
2076.25	1.28055e-06
2084.93	1.32152e-06
2093.6	1.21021e-06
2102.28	1.0504e-06
2110.96	8.09977e-07
2119.64	1.05532e-06
2128.32	7.48824e-07
2137	1.03481e-06
2145.67	9.7151e-07
2154.35	1.38477e-06
2163.03	1.41436e-06
2171.71	1.38805e-06
2180.39	1.47383e-06
2189.06	1.64206e-06
2197.74	1.69901e-06
2206.42	1.48335e-06
2215.1	9.88256e-07
2223.78	5.32027e-07
2232.46	3.79627e-07
2241.13	4.01919e-07
2249.81	4.53355e-07
2258.49	5.45281e-07
2267.17	7.10517e-07
2275.85	9.22716e-07
2284.52	1.32684e-06
2293.2	1.73213e-06
2301.88	2.23926e-06
2310.56	2.62496e-06
2319.24	2.41422e-06
2327.92	2.4947e-06
2336.59	2.00339e-06
2345.27	1.29895e-06
2353.95	8.18342e-07
2362.63	2.54029e-07
2371.31	5.91931e-07
2379.98	1.05126e-06
2388.66	1.15526e-06
2397.34	1.18224e-06
2406.02	1.13485e-06
2414.7	1.19788e-06
2423.37	1.23142e-06
2432.05	1.36216e-06
2440.73	1.35982e-06
2449.41	1.41591e-06
2458.09	1.36058e-06
2466.77	1.2663e-06
2475.44	1.45518e-06
2484.12	1.71478e-06
2492.8	1.94754e-06
2501.48	2.10425e-06
2510.16	2.12687e-06
2518.83	1.90844e-06
2527.51	1.70512e-06
2536.19	1.70752e-06
2544.87	1.45003e-06
2553.55	1.34278e-06
2562.23	1.35648e-06
2570.9	1.50369e-06
2579.58	1.84817e-06
2588.26	2.30703e-06
2596.94	2.87966e-06
2605.62	4.00737e-06
2614.29	4.18333e-06
2622.97	5.17604e-06
2631.65	6.49627e-06
2640.33	8.57149e-06
2649.01	8.48526e-06
2657.68	8.86168e-06
2666.36	9.85748e-06
2675.04	7.14081e-06
2683.72	6.32175e-06
2692.4	5.20363e-06
2701.08	4.72741e-06
2709.75	5.00861e-06
2718.43	5.88094e-06
2727.11	6.42245e-06
2735.79	7.25715e-06
2744.47	7.13898e-06
2753.14	7.07866e-06
2761.82	7.90686e-06
2770.5	8.98625e-06
2779.18	9.38616e-06
2787.86	1.06638e-05
2796.54	1.19899e-05
2805.21	1.2647e-05
2813.89	1.48628e-05
2822.57	1.75236e-05
2831.25	2.00123e-05
2839.93	2.20688e-05
2848.6	3.25799e-05
2857.28	4.81392e-05
2865.96	7.73565e-05
2874.64	0.000100514
2883.32	0.000165221
2892	0.000153626
2900.67	0.000132888
2909.35	0.00011947
2918.03	0.000105778
2926.71	0.000107582
2935.39	0.000114388
2944.06	0.000136781
2952.74	0.000204018
2961.42	0.000273932
2970.1	0.000434902
2978.78	0.000483575
2987.45	0.000314209
2996.13	0.00025392
3004.81	0.000136868
3013.49	3.84981e-05
3022.17	9.26313e-06
3030.85	3.33674e-06
3039.52	2.01212e-06
3048.2	1.48914e-06
3056.88	1.20649e-06
3065.56	1.17445e-06
3074.24	1.1486e-06
3082.91	1.27858e-06
3091.59	1.24027e-06
3100.27	1.39695e-06
3108.95	1.53235e-06
3117.63	1.61006e-06
3126.31	1.71083e-06
3134.98	1.81439e-06
3143.66	1.95844e-06
3152.34	2.30743e-06
3161.02	2.92166e-06
3169.7	3.79508e-06
3178.37	4.6465e-06
3187.05	5.17516e-06
3195.73	5.16169e-06
3204.41	4.86224e-06
3213.09	4.56752e-06
3221.77	4.09622e-06
3230.44	3.55046e-06
3239.12	2.85758e-06
3247.8	2.20639e-06
3256.48	1.20063e-06
3265.16	6.9712e-07
3273.83	4.87158e-07
3282.51	2.8366e-07
3291.19	2.72429e-07
3299.87	3.9147e-07
3308.55	5.19019e-07
3317.22	9.2196e-07
3325.9	1.20495e-06
3334.58	1.7399e-06
3343.26	1.8362e-06
3351.94	1.74202e-06
3360.62	1.60702e-06
3369.29	1.45833e-06
3377.97	1.24749e-06
3386.65	1.40723e-06
3395.33	1.63375e-06
3404.01	1.83924e-06
3412.68	2.0073e-06
3421.36	2.47295e-06
3430.04	2.39383e-06
3438.72	2.52482e-06
3447.4	2.6674e-06
3456.08	2.5617e-06
3464.75	2.44342e-06
3473.43	2.09728e-06
3482.11	1.6132e-06
3490.79	1.24177e-06
3499.47	1.02082e-06
3508.14	8.6744e-07
3516.82	7.65724e-07
3525.5	8.80636e-07
3534.18	1.09028e-06
3542.86	1.25901e-06
3551.53	1.11218e-06
3560.21	9.78371e-07
3568.89	1.01228e-06
3577.57	9.6482e-07
3586.25	1.1276e-06
3594.93	1.56408e-06
3603.6	2.15725e-06
3612.28	4.61456e-06
3620.96	8.22286e-06
3629.64	1.34648e-05
3638.32	3.07004e-05
3646.99	4.85352e-05
3655.67	5.55572e-05
3664.35	4.8408e-05
3673.03	4.10409e-05
3681.71	1.86088e-05
3690.39	5.76789e-06
3699.06	2.53419e-06
3707.74	1.72803e-06
3716.42	1.47317e-06
3725.1	1.27797e-06
3733.78	1.12791e-06
3742.45	1.1093e-06
3751.13	1.01661e-06
3759.81	1.00781e-06
3768.49	1.16022e-06
3777.17	1.48362e-06
3785.85	2.03038e-06
3794.52	2.2463e-06
3803.2	2.46082e-06
3811.88	2.64505e-06
3820.56	2.7847e-06
3829.24	2.73092e-06
3837.91	2.71096e-06
3846.59	2.32078e-06
3855.27	2.28398e-06
3863.95	2.20977e-06
3872.63	2.16189e-06
3881.3	2.1787e-06
3889.98	2.12228e-06
3898.66	2.30951e-06
3907.34	1.86956e-06
3916.02	1.70227e-06
3924.7	1.37836e-06
3933.37	1.40266e-06
3942.05	1.12343e-06
3950.73	9.84154e-07
3959.41	9.07435e-07
3968.09	7.77626e-07
