Infrared Spectrum: 2-Propanol
Formula: C H3 C H( O H) C H3
CAS: 67-63-0
State: gas
Melting point: -89.5 C
Boiling point: 82.4 C
Class: IUPAC A
Instrument: IFS66V (Bruker)
Instrument parameters: KBr Beam splitter; MCT Detector; Multipass cell
Sampling: 1 L/min Flow
Resolution: 1.9290
Temperature: 23 C
Pressure: 101.3 kPa
Origin: NIST, Anayltical Chemistry Division, 301-975-3108
cm-1	(micromol/mol)-1m-1 (base 10)
574.687	2.65616e-06
583.365	2.94111e-06
592.043	3.22786e-06
600.721	3.5494e-06
609.4	3.84383e-06
618.078	4.00541e-06
626.756	4.26714e-06
635.434	4.1072e-06
644.112	4.1351e-06
652.79	3.82495e-06
661.469	3.48991e-06
670.147	3.22937e-06
678.825	3.01911e-06
687.503	2.85687e-06
696.181	2.63328e-06
704.859	2.70812e-06
713.537	2.40361e-06
722.216	2.20543e-06
730.894	1.88062e-06
739.572	1.4931e-06
748.25	1.21727e-06
756.928	1.06987e-06
765.606	1.05245e-06
774.285	1.24208e-06
782.963	2.49864e-06
791.641	7.9802e-06
800.319	1.92016e-05
808.997	2.47709e-05
817.675	2.77182e-05
826.353	2.57029e-05
835.032	1.80487e-05
843.71	6.02035e-06
852.388	2.63701e-06
861.066	1.73901e-06
869.744	1.54629e-06
878.422	1.4918e-06
887.101	1.74967e-06
895.779	2.52401e-06
904.457	4.26482e-06
913.135	8.54365e-06
921.813	2.12138e-05
930.491	5.84096e-05
939.169	0.000122411
947.848	0.000147211
956.526	0.000170551
965.204	0.000148253
973.882	8.54761e-05
982.56	2.1899e-05
991.238	8.21306e-06
999.917	5.64606e-06
1008.59	5.22985e-06
1017.27	5.21429e-06
1025.95	6.99407e-06
1034.63	1.14746e-05
1043.31	2.44837e-05
1051.99	5.45899e-05
1060.66	9.13672e-05
1069.34	0.000125426
1078.02	0.000127083
1086.7	0.000117803
1095.38	8.7843e-05
1104.05	6.249e-05
1112.73	6.86327e-05
1121.41	9.07276e-05
1130.09	0.000116327
1138.77	0.000142001
1147.45	0.000171382
1156.12	0.000176269
1164.8	0.000151755
1173.48	0.00011212
1182.16	7.37211e-05
1190.84	3.66492e-05
1199.51	2.17573e-05
1208.19	1.90732e-05
1216.87	2.55775e-05
1225.55	4.56759e-05
1234.23	7.98212e-05
1242.9	9.78842e-05
1251.58	0.000122738
1260.26	9.7833e-05
1268.94	7.53618e-05
1277.62	3.88133e-05
1286.3	2.23674e-05
1294.97	1.60508e-05
1303.65	1.51006e-05
1312.33	1.70216e-05
1321.01	2.30992e-05
1329.69	3.39481e-05
1338.36	4.4255e-05
1347.04	5.44414e-05
1355.72	7.04744e-05
1364.4	9.25741e-05
1373.08	0.000147675
1381.76	0.000200352
1390.43	0.000180783
1399.11	0.00013628
1407.79	6.82053e-05
1416.47	3.55621e-05
1425.15	2.3125e-05
1433.82	2.23762e-05
1442.5	2.7714e-05
1451.18	3.46408e-05
1459.86	5.4041e-05
1468.54	3.61395e-05
1477.22	3.56709e-05
1485.89	2.81287e-05
1494.57	1.91755e-05
1503.25	9.32508e-06
1511.93	4.59489e-06
1520.61	2.85213e-06
1529.28	2.05988e-06
1537.96	1.68643e-06
1546.64	1.45898e-06
1555.32	1.28597e-06
1564	1.12817e-06
1572.67	1.06039e-06
1581.35	1.02543e-06
1590.03	9.89554e-07
1598.71	9.58903e-07
1607.39	9.08191e-07
1616.07	9.73227e-07
1624.74	9.57752e-07
1633.42	1.11099e-06
1642.1	1.22185e-06
1650.78	1.48291e-06
1659.46	1.57816e-06
1668.13	1.73431e-06
1676.81	1.69314e-06
1685.49	1.68259e-06
1694.17	1.57045e-06
1702.85	1.55906e-06
1711.53	1.66173e-06
1720.2	1.80961e-06
1728.88	1.88734e-06
1737.56	2.18403e-06
1746.24	2.93903e-06
1754.92	3.77746e-06
1763.59	3.9146e-06
1772.27	3.92233e-06
1780.95	3.36567e-06
1789.63	1.63961e-06
1798.31	6.59085e-07
1806.98	5.26816e-07
1815.66	5.93287e-07
1824.34	6.58725e-07
1833.02	7.18858e-07
1841.7	6.52778e-07
1850.38	6.03861e-07
1859.05	8.64317e-07
1867.73	9.7467e-07
1876.41	1.40711e-06
1885.09	1.86456e-06
1893.77	2.2783e-06
1902.44	2.39627e-06
1911.12	1.94384e-06
1919.8	1.48619e-06
1928.48	6.01358e-07
1937.16	2.59375e-07
1945.84	2.32888e-07
1954.51	3.33391e-07
1963.19	4.10728e-07
1971.87	4.64706e-07
1980.55	5.58943e-07
1989.23	5.03147e-07
1997.9	5.22188e-07
2006.58	5.85888e-07
2015.26	6.78131e-07
2023.94	7.73866e-07
2032.62	7.9535e-07
2041.3	7.78055e-07
2049.97	7.25476e-07
2058.65	8.67014e-07
2067.33	1.08381e-06
2076.01	1.27442e-06
2084.69	1.33582e-06
2093.36	1.23755e-06
2102.04	1.07111e-06
2110.72	8.63066e-07
2119.4	7.98529e-07
2128.08	7.95327e-07
2136.75	1.02607e-06
2145.43	9.77286e-07
2154.11	1.271e-06
2162.79	1.4693e-06
2171.47	1.44024e-06
2180.15	1.54369e-06
2188.82	1.67747e-06
2197.5	1.73762e-06
2206.18	1.41775e-06
2214.86	1.00909e-06
2223.54	5.49691e-07
2232.21	4.01068e-07
2240.89	3.9836e-07
2249.57	4.60522e-07
2258.25	5.40621e-07
2266.93	7.26264e-07
2275.61	9.43094e-07
2284.28	1.32766e-06
2292.96	1.73211e-06
2301.64	2.22865e-06
2310.32	2.60723e-06
2319	2.56357e-06
2327.67	2.33247e-06
2336.35	1.83746e-06
2345.03	1.20455e-06
2353.71	7.25535e-07
2362.39	4.51637e-07
2371.06	6.93127e-07
2379.74	1.03642e-06
2388.42	1.15016e-06
2397.1	1.19101e-06
2405.78	1.12985e-06
2414.46	1.21932e-06
2423.13	1.23502e-06
2431.81	1.32661e-06
2440.49	1.38839e-06
2449.17	1.41752e-06
2457.85	1.36842e-06
2466.52	1.26411e-06
2475.2	1.44551e-06
2483.88	1.69113e-06
2492.56	1.92339e-06
2501.24	2.08419e-06
2509.92	2.10028e-06
2518.59	1.89694e-06
2527.27	1.71051e-06
2535.95	1.6868e-06
2544.63	1.44042e-06
2553.31	1.34086e-06
2561.98	1.34476e-06
2570.66	1.50604e-06
2579.34	1.84841e-06
2588.02	2.29233e-06
2596.7	2.83663e-06
2605.38	3.97042e-06
2614.05	4.16229e-06
2622.73	5.13086e-06
2631.41	6.53229e-06
2640.09	8.51278e-06
2648.77	8.48039e-06
2657.44	8.85367e-06
2666.12	9.77634e-06
2674.8	7.21563e-06
2683.48	6.37302e-06
2692.16	5.25453e-06
2700.83	4.70712e-06
2709.51	4.98083e-06
2718.19	5.86122e-06
2726.87	6.40429e-06
2735.55	7.24682e-06
2744.23	7.14181e-06
2752.9	7.06813e-06
2761.58	7.89309e-06
2770.26	8.96551e-06
2778.94	9.35442e-06
2787.62	1.06258e-05
2796.29	1.19525e-05
2804.97	1.26562e-05
2813.65	1.48115e-05
2822.33	1.74792e-05
2831.01	1.99853e-05
2839.69	2.19685e-05
2848.36	3.21878e-05
2857.04	4.76253e-05
2865.72	7.65699e-05
2874.4	0.000100115
2883.08	0.000160217
2891.75	0.000154563
2900.43	0.000132927
2909.11	0.000120102
2917.79	0.000106253
2926.47	0.000107075
2935.14	0.000115303
2943.82	0.000135744
2952.5	0.000201935
2961.18	0.000271297
2969.86	0.000416245
2978.54	0.000475726
2987.21	0.000320021
2995.89	0.00025546
3004.57	0.000140699
3013.25	4.05113e-05
3021.93	9.67271e-06
3030.6	3.44591e-06
3039.28	2.01192e-06
3047.96	1.47627e-06
3056.64	1.22344e-06
3065.32	1.16105e-06
3074	1.14307e-06
3082.67	1.22332e-06
3091.35	1.27748e-06
3100.03	1.38272e-06
3108.71	1.48453e-06
3117.39	1.58084e-06
3126.06	1.6991e-06
3134.74	1.79683e-06
3143.42	1.97318e-06
3152.1	2.31583e-06
3160.78	2.89981e-06
3169.46	3.77083e-06
3178.13	4.63033e-06
3186.81	5.17467e-06
3195.49	5.13416e-06
3204.17	4.90071e-06
3212.85	4.58156e-06
3221.52	4.11924e-06
3230.2	3.55514e-06
3238.88	2.91924e-06
3247.56	2.21756e-06
3256.24	1.22591e-06
3264.91	7.36986e-07
3273.59	4.35939e-07
3282.27	3.10913e-07
3290.95	2.97529e-07
3299.63	3.55699e-07
3308.31	5.28812e-07
3316.98	9.07779e-07
3325.66	1.21295e-06
3334.34	1.70173e-06
3343.02	1.82882e-06
3351.7	1.77412e-06
3360.37	1.61952e-06
3369.05	1.41365e-06
3377.73	1.27328e-06
3386.41	1.3649e-06
3395.09	1.62406e-06
3403.77	1.83118e-06
3412.44	2.00945e-06
3421.12	2.39208e-06
3429.8	2.36732e-06
3438.48	2.52815e-06
3447.16	2.67228e-06
3455.83	2.52474e-06
3464.51	2.46003e-06
3473.19	2.08138e-06
3481.87	1.65027e-06
3490.55	1.2492e-06
3499.22	1.0403e-06
3507.9	8.32454e-07
3516.58	7.73071e-07
3525.26	8.63823e-07
3533.94	1.09338e-06
3542.62	1.23761e-06
3551.29	1.10622e-06
3559.97	9.96758e-07
3568.65	1.00878e-06
3577.33	9.50626e-07
3586.01	1.13042e-06
3594.68	1.5241e-06
3603.36	2.14309e-06
3612.04	4.53925e-06
3620.72	8.10598e-06
3629.4	1.36073e-05
3638.08	3.36586e-05
3646.75	4.79101e-05
3655.43	5.4428e-05
3664.11	4.90474e-05
3672.79	4.13293e-05
3681.47	1.92761e-05
3690.14	6.01035e-06
3698.82	2.60726e-06
3707.5	1.74926e-06
3716.18	1.50853e-06
3724.86	1.2434e-06
3733.54	1.14815e-06
3742.21	1.11618e-06
3750.89	1.06483e-06
3759.57	9.82555e-07
3768.25	1.15722e-06
3776.93	1.48654e-06
3785.6	1.99564e-06
3794.28	2.22532e-06
3802.96	2.4627e-06
3811.64	2.61542e-06
3820.32	2.76279e-06
3828.99	2.70694e-06
3837.67	2.57024e-06
3846.35	2.33415e-06
3855.03	2.36293e-06
3863.71	2.19494e-06
3872.39	2.1945e-06
3881.06	2.19743e-06
3889.74	2.13759e-06
3898.42	2.30318e-06
3907.1	1.86692e-06
3915.78	1.68377e-06
3924.45	1.4465e-06
3933.13	1.38544e-06
3941.81	1.14291e-06
3950.49	9.71653e-07
3959.17	8.80802e-07
3967.85	7.77292e-07
