Infrared Spectrum: Chloroform
Formula: C H Cl3
CAS: 67-66-3
State: gas
Melting point: -63.5 C
Boiling point: 61.7 C
Class: IUPAC A
Instrument: IFS66V (Bruker)
Instrument parameters: KBr Beam Splitter; MCT Detector; Multipass cell
Sampling: 1 L/min Flow
Resolution: 1.9290
Temperature: 23 C
Pressure: 101.3 Pa
Origin: NIST, Analytical Chemistry Division, 301-975-3108
cm-1	(micromol/mol)-1m-1 (base 10)
575.652	-9.29731e-07
584.33	-5.44503e-07
593.008	-4.12534e-07
601.687	5.06898e-07
610.365	1.42559e-06
619.043	1.09005e-06
627.721	3.33814e-06
636.399	1.97114e-06
645.077	4.69496e-07
653.756	1.05957e-06
662.434	4.59149e-06
671.112	2.85957e-05
679.79	2.13564e-05
688.468	3.61803e-05
697.146	2.87487e-06
705.825	6.33722e-09
714.503	4.18802e-07
723.181	8.19979e-07
731.859	5.0557e-06
740.537	2.54044e-05
749.216	0.000105553
757.894	0.000396671
766.572	0.00174097
775.25	0.00256234
783.928	0.000500463
792.606	8.06902e-05
801.285	1.30733e-05
809.963	1.81653e-06
818.641	1.56659e-07
827.319	3.4814e-07
835.997	9.5676e-07
844.676	2.35476e-06
853.354	5.10165e-06
862.032	2.26746e-06
870.71	3.88997e-07
879.388	4.05095e-07
888.066	-1.18159e-08
896.745	2.68768e-08
905.423	6.39103e-07
914.101	2.81163e-06
922.779	4.34409e-06
931.457	6.57658e-06
940.135	3.145e-06
948.814	2.33884e-06
957.492	4.26682e-07
966.17	1.7865e-07
974.848	-4.72127e-08
983.526	-1.08137e-07
992.205	-1.70738e-07
1000.88	-3.97622e-08
1009.56	1.98222e-07
1018.24	1.30745e-06
1026.92	1.98629e-06
1035.6	2.00217e-06
1044.27	3.7784e-07
1052.95	-7.73636e-08
1061.63	-1.95453e-07
1070.31	-1.42693e-07
1078.99	-2.53012e-07
1087.66	-2.89711e-07
1096.34	-2.74603e-07
1105.02	-1.53385e-07
1113.7	-2.32149e-07
1122.38	-3.06457e-07
1131.06	-2.21108e-07
1139.73	-2.07604e-07
1148.41	-2.83854e-07
1157.09	-2.31807e-07
1165.77	-2.37879e-07
1174.45	-8.6582e-10
1183.12	6.93708e-07
1191.8	2.79811e-06
1200.48	1.26888e-05
1209.16	8.43102e-05
1217.84	0.000463796
1226.52	0.000161996
1235.19	2.60209e-05
1243.87	4.06228e-06
1252.55	5.01957e-07
1261.23	-4.953e-08
1269.91	-2.27383e-07
1278.58	-3.40438e-07
1287.26	-2.24258e-07
1295.94	-2.96085e-07
1304.62	-2.94615e-07
1313.3	-2.49713e-07
1321.98	-2.31727e-07
1330.65	-1.07474e-07
1339.33	-2.06909e-07
1348.01	-1.33365e-07
1356.69	-9.35595e-08
1365.37	-4.09788e-07
1374.04	-6.51235e-07
1382.72	-1.72538e-07
1391.4	-1.79916e-07
1400.08	-3.87673e-07
1408.76	-1.04768e-07
1417.44	-7.93353e-08
1426.11	1.39876e-06
1434.79	4.58276e-06
1443.47	9.41569e-06
1452.15	3.61607e-06
1460.83	3.83024e-07
1469.5	1.2379e-06
1478.18	1.43476e-06
1486.86	8.42378e-07
1495.54	-7.96718e-07
1504.22	-2.12941e-07
1512.9	7.16368e-07
1521.57	5.51324e-07
1530.25	4.61346e-06
1538.93	3.18165e-06
1547.61	7.32586e-06
1556.29	4.23952e-06
1564.96	2.44284e-06
1573.64	2.83363e-07
1582.32	-6.12004e-08
1591	-1.69366e-07
1599.68	-2.63228e-07
1608.36	-3.02375e-07
1617.03	-2.40865e-06
1625.71	-2.86037e-07
1634.39	-1.21548e-06
1643.07	-2.78558e-07
1651.75	-2.452e-06
1660.42	-2.65516e-07
1669.1	-1.46e-06
1677.78	-2.0572e-07
1686.46	-4.95871e-07
1695.14	-2.24844e-06
1703.82	-6.50125e-07
1712.49	-2.74916e-07
1721.17	-2.83025e-07
1729.85	-5.54063e-07
1738.53	-4.23448e-07
1747.21	-5.28238e-07
1755.88	-4.77103e-07
1764.56	-2.18547e-07
1773.24	-1.37756e-06
1781.92	-1.6364e-07
1790.6	-3.99638e-07
1799.28	-2.82658e-07
1807.95	1.14623e-07
1816.63	4.07838e-07
1825.31	-1.13655e-07
1833.99	7.47574e-07
1842.67	-1.39768e-08
1851.34	-7.93826e-08
1860.02	-1.64258e-07
1868.7	-6.60133e-07
1877.38	-2.98592e-07
1886.06	-2.00412e-07
1894.74	-1.23438e-07
1903.41	-2.2161e-07
1912.09	-3.02313e-07
1920.77	-3.02211e-07
1929.45	-2.49811e-07
1938.13	-2.86637e-07
1946.8	-2.94841e-07
1955.48	-2.63126e-07
1964.16	-1.27767e-07
1972.84	-7.40204e-08
1981.52	-4.50954e-08
1990.19	-2.70223e-08
1998.87	-1.12066e-07
2007.55	-1.60359e-07
2016.23	-2.74509e-07
2024.91	-2.31298e-07
2033.59	-2.72355e-07
2042.26	-2.45897e-07
2050.94	-2.17128e-07
2059.62	-2.90661e-07
2068.3	-3.1916e-07
2076.98	-2.80002e-07
2085.65	-2.93371e-07
2094.33	-3.49246e-07
2103.01	-3.45775e-07
2111.69	-3.58581e-07
2120.37	-2.07309e-07
2129.05	-2.0975e-07
2137.72	-1.89091e-07
2146.4	-2.81348e-07
2155.08	-2.6585e-07
2163.76	-1.60872e-07
2172.44	-2.52317e-07
2181.11	-1.73466e-07
2189.79	-1.49696e-07
2198.47	-4.99847e-09
2207.15	1.7463e-07
2215.83	1.39823e-07
2224.51	-4.21887e-08
2233.18	1.10468e-07
2241.86	1.06736e-07
2250.54	-8.12379e-08
2259.22	-1.15885e-07
2267.9	-6.62134e-08
2276.57	5.46376e-08
2285.25	1.9458e-07
2293.93	2.1198e-07
2302.61	-6.82179e-08
2311.29	9.91873e-08
2319.97	4.33227e-07
2328.64	1.23314e-06
2337.32	1.58515e-06
2346	7.39549e-07
2354.68	1.34566e-06
2363.36	2.11035e-06
2372.03	8.83613e-07
2380.71	1.937e-07
2389.39	4.43296e-07
2398.07	2.29602e-06
2406.75	2.87659e-06
2415.43	2.01783e-06
2424.1	2.08131e-06
2432.78	5.54976e-07
2441.46	1.30405e-06
2450.14	6.50424e-07
2458.82	7.57807e-07
2467.49	2.69012e-07
2476.17	-9.93074e-08
2484.85	-2.44631e-07
2493.53	-2.43728e-07
2502.21	-1.47841e-07
2510.89	-3.09229e-07
2519.56	-2.82054e-07
2528.24	-2.73366e-07
2536.92	-2.78736e-07
2545.6	-3.60629e-07
2554.28	-3.22398e-07
2562.95	-3.00672e-07
2571.63	-4.07932e-07
2580.31	-2.72824e-07
2588.99	-2.9332e-07
2597.67	-3.4221e-07
2606.35	-2.91967e-07
2615.02	-2.59139e-07
2623.7	-3.21539e-07
2632.38	-3.37179e-07
2641.06	-2.42295e-07
2649.74	-3.39354e-07
2658.41	-3.71779e-07
2667.09	-2.89326e-07
2675.77	-2.2818e-07
2684.45	-2.57436e-07
2693.13	-3.04452e-07
2701.81	-3.24159e-07
2710.48	-1.25046e-07
2719.16	-2.49123e-07
2727.84	-2.81755e-07
2736.52	-2.47945e-07
2745.2	-2.67415e-07
2753.87	-2.30181e-07
2762.55	-2.67255e-07
2771.23	-4.04025e-07
2779.91	-3.21634e-07
2788.59	-3.08465e-07
2797.27	-2.20533e-07
2805.94	-3.61494e-07
2814.62	-4.95809e-07
2823.3	-3.39201e-07
2831.98	-1.59355e-07
2840.66	-2.69416e-07
2849.33	-3.59046e-07
2858.01	-3.43181e-07
2866.69	-4.44777e-07
2875.37	-4.41212e-07
2884.05	-4.17078e-07
2892.73	-3.57402e-07
2901.4	-2.93888e-07
2910.08	-3.58322e-07
2918.76	-4.36264e-07
2927.44	-4.92921e-07
2936.12	-4.55742e-07
2944.79	-3.78196e-07
2953.47	-4.06051e-07
2962.15	-5.39541e-07
2970.83	-6.14401e-07
2979.51	-5.33574e-07
2988.19	-3.14213e-07
2996.86	-4.27693e-07
3005.54	-3.76013e-07
3014.22	-1.716e-08
3022.9	8.06155e-07
3031.58	8.8752e-07
3040.25	8.00367e-07
3048.93	6.74812e-07
3057.61	-1.57452e-07
3066.29	-2.78005e-07
3074.97	-2.61201e-07
3083.65	-1.83812e-07
3092.32	-1.90124e-07
3101	-1.20727e-07
3109.68	-4.36548e-10
3118.36	-4.60049e-08
3127.04	6.66391e-08
3135.71	-2.8703e-08
3144.39	-3.95476e-08
3153.07	5.31243e-08
3161.75	1.23154e-07
3170.43	-6.84398e-08
3179.11	6.93384e-08
3187.78	1.27989e-07
3196.46	6.07093e-08
3205.14	8.178e-08
3213.82	2.04268e-08
3222.5	1.22033e-07
3231.17	2.4427e-07
3239.85	1.60693e-07
3248.53	1.77886e-07
3257.21	1.21415e-07
3265.89	1.04673e-07
3274.57	3.64518e-08
3283.24	1.04204e-07
3291.92	-5.12944e-09
3300.6	9.85798e-08
3309.28	-1.90371e-08
3317.96	-1.33744e-07
3326.63	-2.51237e-07
3335.31	-1.27035e-07
3343.99	-1.7734e-07
3352.67	-1.79701e-07
3361.35	-1.927e-07
3370.03	-1.88418e-07
3378.7	-3.60036e-07
3387.38	-1.47688e-07
3396.06	-2.4657e-07
3404.74	-1.76638e-07
3413.42	1.16376e-08
3422.09	-1.90266e-07
3430.77	-3.18735e-07
3439.45	-4.17249e-07
3448.13	-3.79975e-07
3456.81	-3.04936e-07
3465.49	-2.41538e-07
3474.16	-2.19253e-07
3482.84	-3.50392e-07
3491.52	-3.36517e-07
3500.2	-5.04409e-07
3508.88	-5.10099e-07
3517.55	-3.67952e-07
3526.23	-4.62788e-07
3534.91	-2.77859e-07
3543.59	-3.99529e-07
3552.27	-6.16217e-07
3560.95	-3.38365e-07
3569.62	-4.61006e-07
3578.3	-3.98743e-07
3586.98	-8.18498e-07
3595.66	-4.17071e-07
3604.34	-2.81421e-07
3613.01	-8.3866e-07
3621.69	-4.06717e-07
3630.37	-1.20058e-06
3639.05	-4.48993e-07
3647.73	-1.38123e-06
3656.41	-1.35953e-06
3665.08	-4.9411e-07
3673.76	-8.80859e-07
3682.44	-3.84664e-07
3691.12	-7.2818e-07
3699.8	1.11327e-07
3708.47	-5.81922e-07
3717.15	9.04637e-08
3725.83	-7.47683e-07
3734.51	-1.17739e-06
3743.19	-1.40264e-06
3751.87	-2.7605e-06
3760.54	-9.07976e-07
3769.22	-9.43555e-07
3777.9	-5.32036e-07
3786.58	-3.69953e-07
3795.26	-6.09359e-07
3803.93	-2.12835e-07
3812.61	-2.0748e-07
3821.29	-1.89051e-06
3829.97	-6.28615e-07
3838.65	-1.90488e-06
3847.33	-5.37438e-07
3856	-8.15704e-07
3864.68	-1.32973e-06
3873.36	-8.8354e-07
3882.04	-6.51981e-07
3890.72	-1.07744e-06
3899.39	-1.16559e-06
3908.07	-6.11869e-07
3916.75	-9.39269e-07
3925.43	-5.95441e-07
3934.11	-5.33978e-07
3942.79	-6.55873e-07
3951.46	-4.61879e-07
3960.14	-6.20146e-07
3968.82	-4.97519e-07
