Infrared Spectrum: Chloroform
Formula: C H Cl3
CAS: 67-66-3
State: gas
Melting point: -63.5 C
Boiling point: 61.7 C
Class: IUPAC A
Instrument: IFS66V (Bruker)
Instrument parameters: KBr Beam Splitter; MCT Detector; Multipass cell
Sampling: 1 L/min Flow
Resolution: 0.9640
Temperature: 23 C
Pressure: 101.3 Pa
Origin: NIST, Analytical Chemistry Division, 301-975-3108
cm-1	(micromol/mol)-1m-1 (base 10)
575.17	-2.40742e-06
583.848	-6.02229e-07
592.526	-2.51273e-07
601.205	2.666e-07
609.883	1.29094e-06
618.561	1.46465e-06
627.239	5.10762e-06
635.917	2.06099e-06
644.595	8.11834e-07
653.274	1.24724e-06
661.952	4.17334e-06
670.63	2.40199e-05
679.308	1.93624e-05
687.986	3.8376e-05
696.664	4.03898e-06
705.343	6.02353e-07
714.021	1.0768e-06
722.699	1.94556e-06
731.377	6.27345e-06
740.055	2.6056e-05
748.734	0.000103025
757.412	0.000373361
766.09	0.00160572
774.768	0.00254962
783.446	0.000567543
792.124	9.38847e-05
800.803	1.8522e-05
809.481	3.80257e-06
818.159	1.33567e-06
826.837	1.22867e-06
835.515	1.51881e-06
844.194	2.68418e-06
852.872	5.01674e-06
861.55	2.55674e-06
870.228	7.67189e-07
878.906	6.57998e-07
887.584	2.37311e-07
896.263	1.16282e-07
904.941	8.10564e-07
913.619	2.60084e-06
922.297	4.47253e-06
930.975	7.10254e-06
939.653	3.06079e-06
948.332	2.47437e-06
957.01	5.9703e-07
965.688	1.98236e-07
974.366	3.72812e-08
983.044	-9.82924e-08
991.723	-6.77741e-08
1000.4	-4.51936e-08
1009.08	1.945e-07
1017.76	1.30578e-06
1026.44	2.06279e-06
1035.11	2.02779e-06
1043.79	5.72456e-07
1052.47	-9.09802e-08
1061.15	-1.19749e-07
1069.83	1.03869e-07
1078.5	-1.20229e-07
1087.18	-2.5963e-07
1095.86	-1.80578e-07
1104.54	-1.58394e-07
1113.22	-1.71534e-07
1121.9	-2.2165e-07
1130.57	-1.24289e-07
1139.25	-2.51073e-07
1147.93	-9.98349e-08
1156.61	-2.93528e-07
1165.29	-1.82386e-07
1173.96	9.85252e-08
1182.64	9.02181e-07
1191.32	3.19741e-06
1200	1.23099e-05
1208.68	7.70336e-05
1217.36	0.000418213
1226.03	0.000179497
1234.71	2.98958e-05
1243.39	5.20343e-06
1252.07	8.99354e-07
1260.75	1.34399e-07
1269.42	-6.57732e-08
1278.1	-2.41706e-07
1286.78	-1.71483e-07
1295.46	-2.01874e-07
1304.14	-2.65105e-07
1312.82	-1.1128e-07
1321.49	-1.63149e-07
1330.17	-1.47808e-08
1338.85	-2.29777e-07
1347.53	-1.50402e-07
1356.21	-1.61825e-07
1364.88	-4.45741e-07
1373.56	-7.60623e-07
1382.24	-1.34035e-07
1390.92	-1.43679e-07
1399.6	-4.73545e-07
1408.28	-1.65743e-08
1416.95	4.96937e-08
1425.63	1.28878e-06
1434.31	4.35833e-06
1442.99	8.82545e-06
1451.67	4.14807e-06
1460.34	3.69116e-07
1469.02	1.19728e-06
1477.7	1.37739e-06
1486.38	1.20623e-06
1495.06	1.22615e-07
1503.73	1.68202e-07
1512.41	1.65153e-07
1521.09	-5.42542e-07
1529.77	4.46637e-06
1538.45	4.21326e-06
1547.13	7.25761e-06
1555.8	4.35407e-06
1564.48	2.53386e-06
1573.16	3.42075e-07
1581.84	-9.05692e-08
1590.52	-1.79796e-07
1599.19	-2.63697e-07
1607.87	-2.25881e-07
1616.55	-3.89222e-06
1625.23	-2.94724e-07
1633.91	-4.6189e-07
1642.59	-3.5197e-07
1651.26	-7.03177e-07
1659.94	-2.85946e-07
1668.62	-7.8889e-07
1677.3	-2.3905e-07
1685.98	-5.2938e-07
1694.65	-6.10283e-07
1703.33	-3.88801e-07
1712.01	-2.97005e-07
1720.69	-3.00374e-07
1729.37	-4.39498e-07
1738.05	-2.62893e-07
1746.72	-4.57251e-07
1755.4	-3.36127e-07
1764.08	-2.36092e-07
1772.76	-2.61395e-06
1781.44	-1.79825e-07
1790.11	-1.47557e-07
1798.79	-5.92359e-08
1807.47	8.70804e-08
1816.15	3.61644e-07
1824.83	-7.63486e-08
1833.51	7.81985e-07
1842.18	1.48208e-07
1850.86	-1.79603e-08
1859.54	-1.5353e-07
1868.22	-4.59034e-07
1876.9	-2.53212e-07
1885.57	-2.8324e-07
1894.25	-6.2099e-08
1902.93	-2.35107e-07
1911.61	-2.96347e-07
1920.29	-2.9017e-07
1928.97	-2.36824e-07
1937.64	-2.57978e-07
1946.32	-3.24428e-07
1955	-2.51735e-07
1963.68	-1.4827e-07
1972.36	-4.34875e-08
1981.03	-2.30243e-08
1989.71	-6.54604e-08
1998.39	-8.8652e-08
2007.07	-1.46815e-07
2015.75	-2.32269e-07
2024.43	-2.50673e-07
2033.1	-2.7819e-07
2041.78	-2.96471e-07
2050.46	-2.22279e-07
2059.14	-2.44922e-07
2067.82	-3.44036e-07
2076.49	-3.21252e-07
2085.17	-2.9921e-07
2093.85	-2.94732e-07
2102.53	-3.08778e-07
2111.21	-4.66772e-07
2119.89	-2.92807e-07
2128.56	-1.56644e-07
2137.24	-2.02114e-07
2145.92	-2.51939e-07
2154.6	-3.50093e-07
2163.28	-1.55844e-07
2171.95	-2.48512e-07
2180.63	-1.67671e-07
2189.31	-8.83682e-08
2197.99	-7.5581e-08
2206.67	1.49329e-07
2215.35	1.89746e-07
2224.02	-2.24822e-08
2232.7	1.16667e-07
2241.38	1.3342e-07
2250.06	-1.26064e-07
2258.74	-1.55455e-07
2267.41	-2.40247e-08
2276.09	5.09706e-08
2284.77	1.3004e-07
2293.45	2.73443e-07
2302.13	-2.50724e-08
2310.81	1.5213e-07
2319.48	6.44127e-07
2328.16	9.43584e-07
2336.84	5.46092e-07
2345.52	7.09001e-07
2354.2	1.73025e-06
2362.87	2.87397e-06
2371.55	1.18005e-06
2380.23	2.08237e-07
2388.91	4.57524e-07
2397.59	2.16221e-06
2406.27	1.80322e-06
2414.94	1.88353e-06
2423.62	2.22189e-06
2432.3	6.16158e-07
2440.98	1.25938e-06
2449.66	6.59548e-07
2458.33	7.4968e-07
2467.01	2.52772e-07
2475.69	-1.10141e-07
2484.37	-2.89035e-07
2493.05	-2.281e-07
2501.73	-1.39361e-07
2510.4	-2.89631e-07
2519.08	-2.42321e-07
2527.76	-2.90203e-07
2536.44	-3.39038e-07
2545.12	-3.97648e-07
2553.79	-3.75781e-07
2562.47	-2.49385e-07
2571.15	-4.00642e-07
2579.83	-3.0598e-07
2588.51	-2.74509e-07
2597.19	-2.8034e-07
2605.86	-3.39645e-07
2614.54	-1.94133e-07
2623.22	-3.55179e-07
2631.9	-2.82763e-07
2640.58	-2.50553e-07
2649.25	-3.67311e-07
2657.93	-3.3043e-07
2666.61	-2.79056e-07
2675.29	-3.16046e-07
2683.97	-2.17401e-07
2692.65	-3.50315e-07
2701.32	-2.81046e-07
2710	-8.85865e-08
2718.68	-3.29128e-07
2727.36	-3.14067e-07
2736.04	-2.23684e-07
2744.71	-3.2386e-07
2753.39	-2.07764e-07
2762.07	-3.5507e-07
2770.75	-4.21123e-07
2779.43	-3.06293e-07
2788.11	-3.50712e-07
2796.78	-3.45397e-07
2805.46	-1.8617e-07
2814.14	-5.16196e-07
2822.82	-3.13438e-07
2831.5	-1.19701e-07
2840.17	-2.30465e-07
2848.85	-3.12801e-07
2857.53	-4.06906e-07
2866.21	-4.25714e-07
2874.89	-4.98672e-07
2883.57	-3.09702e-07
2892.24	-3.85985e-07
2900.92	-2.49793e-07
2909.6	-3.77083e-07
2918.28	-3.87062e-07
2926.96	-3.73441e-07
2935.63	-5.13169e-07
2944.31	-2.92778e-07
2952.99	-4.15423e-07
2961.67	-7.34645e-07
2970.35	-7.07917e-07
2979.03	-5.37572e-07
2987.7	-2.61547e-07
2996.38	-4.66884e-07
3005.06	-2.8089e-07
3013.74	-4.47571e-08
3022.42	6.31081e-07
3031.09	4.88861e-08
3039.77	7.37952e-07
3048.45	6.92332e-07
3057.13	-3.12201e-07
3065.81	-2.96132e-07
3074.49	-1.85598e-07
3083.16	-2.44074e-07
3091.84	-2.89653e-07
3100.52	-7.91207e-08
3109.2	-7.24124e-08
3117.88	-6.9804e-08
3126.55	5.78244e-08
3135.23	-1.19811e-07
3143.91	-3.44291e-08
3152.59	-4.29636e-09
3161.27	2.23189e-07
3169.95	8.76006e-09
3178.62	1.08817e-07
3187.3	1.20538e-07
3195.98	1.30892e-08
3204.66	2.44973e-07
3213.34	6.38633e-08
3222.01	2.78187e-07
3230.69	3.18098e-07
3239.37	1.3083e-07
3248.05	2.39636e-07
3256.73	1.30339e-07
3265.41	6.88291e-08
3274.08	9.58332e-08
3282.76	7.1663e-08
3291.44	-9.35995e-08
3300.12	-4.89407e-08
3308.8	4.0337e-08
3317.47	-2.31916e-07
3326.15	-2.31974e-07
3334.83	-1.75685e-07
3343.51	-1.5803e-08
3352.19	-1.16868e-07
3360.86	-2.34932e-07
3369.54	-8.88994e-08
3378.22	-2.80999e-07
3386.9	-1.27341e-07
3395.58	-2.12792e-07
3404.26	-1.765e-07
3412.93	2.12606e-07
3421.61	-2.5215e-07
3430.29	-4.562e-07
3438.97	-4.08896e-07
3447.65	-4.83899e-07
3456.32	-2.2229e-07
3465	-3.92711e-07
3473.68	-1.0874e-07
3482.36	-2.53147e-07
3491.04	-4.75288e-07
3499.72	-4.64793e-07
3508.39	-4.9824e-07
3517.07	-3.74325e-07
3525.75	-5.2588e-07
3534.43	-2.7819e-07
3543.11	-5.38322e-07
3551.78	-5.37078e-07
3560.46	-2.8165e-07
3569.14	-3.83235e-07
3577.82	-4.93405e-07
3586.5	-1.11765e-06
3595.18	-5.36168e-07
3603.85	-3.87276e-07
3612.53	-1.25772e-06
3621.21	-5.94229e-07
3629.89	-2.11284e-06
3638.57	-4.36257e-07
3647.24	-1.63754e-06
3655.92	-1.47619e-06
3664.6	-5.68731e-07
3673.28	-6.91543e-07
3681.96	-3.53902e-07
3690.64	-5.29933e-07
3699.31	4.0046e-08
3707.99	-3.69174e-07
3716.67	1.63003e-07
3725.35	-5.72034e-07
3734.03	-7.74218e-07
3742.7	-7.62951e-07
3751.38	-1.29118e-06
3760.06	-1.31334e-06
3768.74	-5.31283e-07
3777.42	-4.60122e-07
3786.1	-4.86165e-07
3794.77	-5.58701e-07
3803.45	-3.34523e-07
3812.13	-2.09547e-07
3820.81	-1.94145e-06
3829.49	-4.77383e-07
3838.16	-3.40384e-06
3846.84	-5.81868e-07
3855.52	-8.21842e-07
3864.2	-7.8937e-07
3872.88	-7.04898e-07
3881.56	-7.57946e-07
3890.23	-5.74504e-07
3898.91	-1.19386e-06
3907.59	-5.41752e-07
3916.27	-6.6921e-07
3924.95	-6.491e-07
3933.62	-4.80548e-07
3942.3	-7.25907e-07
3950.98	-5.30766e-07
3959.66	-6.69599e-07
3968.34	-5.07465e-07
