Infrared Spectrum: Chloroform
Formula: C H Cl3
CAS: 67-66-3
State: gas
Melting point: -63.5 C
Boiling point: 61.7 C
Class: IUPAC A
Instrument: IFS66V (Bruker)
Instrument parameters: KBr Beam Splitter; MCT Detector; Multipass cell
Sampling: 1 L/min Flow
Resolution: 0.4820
Temperature: 23 C
Pressure: 101.3 Pa
Origin: NIST, Analytical Chemistry Division, 301-975-3108
cm-1	(micromol/mol)-1m-1 (base 10)
575.17	-5.98163e-06
583.848	-2.18339e-06
592.526	-1.78719e-06
601.205	-8.02346e-07
609.883	6.41547e-07
618.561	1.89106e-06
627.239	5.79396e-06
635.917	1.9357e-06
644.595	6.08064e-07
653.274	8.23006e-07
661.952	3.48711e-06
670.63	2.18924e-05
679.308	1.84312e-05
687.986	3.923e-05
696.664	2.9131e-06
705.343	-4.8483e-07
714.021	4.57328e-07
722.699	5.6553e-07
731.377	4.8692e-06
740.055	2.29186e-05
748.734	9.77191e-05
757.412	0.000363118
766.09	0.00161541
774.768	0.00251894
783.446	0.000553767
792.124	8.73974e-05
800.803	1.53216e-05
809.481	1.67084e-06
818.159	5.24265e-07
826.837	8.70997e-07
835.515	7.48178e-07
844.193	2.42494e-06
852.872	4.50105e-06
861.55	2.09396e-06
870.228	6.58282e-07
878.906	6.90164e-07
887.584	1.4178e-07
896.263	6.8621e-07
904.941	9.15056e-07
913.619	2.62312e-06
922.297	4.48235e-06
930.975	7.46977e-06
939.653	3.06598e-06
948.332	2.3418e-06
957.01	6.38761e-07
965.688	1.2538e-07
974.366	-2.12017e-08
983.044	-3.80852e-08
991.723	-8.54725e-08
1000.4	-4.11738e-08
1009.08	3.76086e-07
1017.76	1.09385e-06
1026.44	2.02761e-06
1035.11	2.37328e-06
1043.79	3.82991e-07
1052.47	-2.55617e-07
1061.15	-1.01159e-07
1069.83	4.86962e-07
1078.5	-1.04928e-07
1087.18	-1.25518e-07
1095.86	-2.58928e-07
1104.54	-1.04324e-07
1113.22	-1.98731e-07
1121.9	-3.84093e-07
1130.57	1.3282e-07
1139.25	-3.54091e-07
1147.93	-3.25734e-07
1156.61	-4.40768e-07
1165.29	-5.15258e-07
1173.96	2.6501e-07
1182.64	7.16917e-07
1191.32	2.92397e-06
1200	1.12515e-05
1208.68	7.50234e-05
1217.36	0.000426447
1226.03	0.00017793
1234.71	2.83151e-05
1243.39	4.26024e-06
1252.07	2.91345e-07
1260.75	-2.96543e-07
1269.42	-2.457e-07
1278.1	-5.89169e-07
1286.78	-4.23062e-07
1295.46	-3.60694e-07
1304.14	-3.45604e-07
1312.82	-2.67833e-07
1321.49	-2.73592e-07
1330.17	9.41052e-08
1338.85	-2.13457e-07
1347.53	-3.0076e-07
1356.21	-3.71237e-07
1364.88	-7.09682e-07
1373.56	-9.35166e-07
1382.24	-6.93857e-08
1390.92	-1.67031e-07
1399.6	2.08052e-07
1408.28	1.09202e-07
1416.95	3.5037e-07
1425.63	1.13171e-06
1434.31	4.34958e-06
1442.99	8.96586e-06
1451.67	4.47727e-06
1460.34	2.43772e-07
1469.02	1.08536e-06
1477.7	1.33872e-06
1486.38	1.29785e-06
1495.06	3.91209e-07
1503.73	3.33232e-07
1512.41	-7.87092e-07
1521.09	-2.46108e-06
1529.77	4.44614e-06
1538.45	4.59027e-06
1547.13	7.4383e-06
1555.8	4.56524e-06
1564.48	2.71978e-06
1573.16	3.05493e-07
1581.84	-1.86613e-07
1590.52	-3.33668e-08
1599.19	-2.96292e-07
1607.87	-3.48234e-07
1616.55	-6.44958e-06
1625.23	-1.78152e-07
1633.91	-2.35798e-07
1642.59	-2.61394e-07
1651.26	-8.33905e-07
1659.94	-3.35895e-07
1668.62	-2.67004e-07
1677.3	-2.39581e-07
1685.98	-6.32584e-07
1694.65	-4.19996e-08
1703.33	-5.96459e-07
1712.01	-3.86902e-07
1720.69	-4.45279e-09
1729.37	-3.09276e-07
1738.05	1.40881e-07
1746.72	-2.36645e-07
1755.4	-3.97852e-07
1764.08	-2.65294e-07
1772.76	-6.54845e-06
1781.44	-1.58703e-07
1790.11	-8.60254e-08
1798.79	4.72927e-08
1807.47	8.38536e-09
1816.15	5.05006e-07
1824.83	3.3648e-07
1833.51	9.1188e-07
1842.18	9.4178e-08
1850.86	4.58266e-08
1859.54	-2.54457e-07
1868.22	-3.10942e-07
1876.9	-1.80698e-07
1885.57	-3.93679e-07
1894.25	-2.89068e-08
1902.93	-1.45774e-07
1911.61	-1.69177e-07
1920.29	-3.61775e-07
1928.97	-2.99185e-07
1937.64	-1.9426e-07
1946.32	-3.25898e-07
1955	-2.75967e-07
1963.68	-1.25882e-07
1972.36	-8.12816e-08
1981.03	1.49663e-08
1989.71	-9.25846e-09
1998.39	-1.16769e-07
2007.07	-1.26603e-07
2015.75	-2.38886e-07
2024.43	-3.26425e-07
2033.1	-2.3172e-07
2041.78	-3.41533e-07
2050.46	-2.5056e-07
2059.14	-1.03938e-07
2067.82	-5.61768e-07
2076.49	-3.11291e-07
2085.17	-3.2111e-07
2093.85	-2.12843e-07
2102.53	-3.40919e-07
2111.21	-2.54704e-07
2119.89	-4.10675e-07
2128.56	1.75601e-08
2137.24	-1.16828e-07
2145.92	-2.12479e-07
2154.6	-7.35514e-07
2163.28	-2.66545e-07
2171.95	-2.69055e-07
2180.63	-3.50257e-08
2189.31	1.7742e-08
2197.99	-2.40065e-07
2206.67	3.93857e-07
2215.35	3.09629e-07
2224.02	1.92081e-09
2232.7	8.00847e-08
2241.38	-9.64262e-08
2250.06	-2.40174e-07
2258.74	-1.84289e-07
2267.41	-3.30831e-08
2276.09	1.90084e-07
2284.77	1.87643e-07
2293.45	1.94748e-07
2302.13	1.92423e-07
2310.81	-1.89451e-07
2319.48	-1.09115e-07
2328.16	2.82912e-07
2336.84	-2.94208e-07
2345.52	5.03846e-07
2354.2	1.71456e-06
2362.87	6.36999e-06
2371.55	2.16329e-06
2380.23	-8.37044e-08
2388.91	5.02903e-07
2397.59	2.20546e-06
2406.27	1.55163e-06
2414.94	1.89311e-06
2423.62	2.13764e-06
2432.3	5.47187e-07
2440.98	1.12375e-06
2449.66	5.49781e-07
2458.33	7.20442e-07
2467.01	2.16022e-07
2475.69	-2.70914e-08
2484.37	-6.02349e-07
2493.05	-3.53025e-07
2501.73	-2.23582e-07
2510.4	-4.29862e-07
2519.08	-9.62261e-08
2527.76	-4.51754e-07
2536.44	-3.34738e-07
2545.12	-4.44319e-07
2553.79	-1.8486e-07
2562.47	-1.89735e-07
2571.15	-2.93793e-07
2579.83	-5.44546e-07
2588.51	-1.09701e-07
2597.19	5.70787e-09
2605.86	-3.71506e-07
2614.54	-7.5792e-08
2623.22	-2.02322e-07
2631.9	-2.67284e-07
2640.58	-3.63568e-07
2649.25	-5.57323e-07
2657.93	-2.83181e-07
2666.61	-2.54573e-07
2675.29	-3.29281e-07
2683.97	-2.11642e-07
2692.65	-4.01606e-07
2701.32	-1.77886e-07
2710	-2.39101e-07
2718.68	-1.44836e-07
2727.36	-3.4452e-07
2736.04	-1.88458e-07
2744.71	-3.77807e-07
2753.39	-3.55015e-07
2762.07	-6.07799e-07
2770.75	-2.22258e-07
2779.43	-4.84368e-07
2788.11	-1.34148e-07
2796.78	-1.89276e-07
2805.46	3.65354e-08
2814.14	-4.4868e-07
2822.82	-3.94625e-07
2831.5	1.43486e-07
2840.17	-1.06394e-07
2848.85	-3.46932e-07
2857.53	-2.94284e-07
2866.21	-2.38261e-07
2874.89	-5.45499e-07
2883.57	-2.43383e-07
2892.24	-2.8778e-07
2900.92	-4.04505e-07
2909.6	-5.78386e-07
2918.28	-4.45213e-07
2926.96	-4.32495e-07
2935.63	-7.1791e-07
2944.31	-2.11566e-07
2952.99	-4.35744e-07
2961.67	-6.09254e-07
2970.35	-5.42931e-07
2979.03	-5.63205e-07
2987.7	-1.75514e-07
2996.38	-8.21063e-07
3005.06	-2.17194e-07
3013.74	-2.07993e-07
3022.42	5.62579e-07
3031.09	-6.1239e-07
3039.77	8.75497e-07
3048.45	8.18106e-07
3057.13	-1.84485e-07
3065.81	-3.74154e-07
3074.49	1.88963e-07
3083.16	-3.79691e-07
3091.84	-5.61259e-07
3100.52	-3.84399e-07
3109.2	1.00941e-07
3117.88	-1.50595e-07
3126.55	2.2507e-07
3135.23	7.71635e-08
3143.91	3.23955e-08
3152.59	7.8615e-08
3161.27	5.86033e-07
3169.95	2.78449e-07
3178.62	1.8112e-07
3187.3	-4.92463e-08
3195.98	4.43824e-10
3204.66	3.70182e-07
3213.34	2.504e-07
3222.01	3.8887e-07
3230.69	3.36891e-07
3239.37	3.09876e-08
3248.05	-2.45038e-07
3256.73	4.02806e-07
3265.4	-2.79307e-07
3274.08	1.5922e-07
3282.76	8.63274e-08
3291.44	-4.67354e-07
3300.12	-3.11419e-07
3308.8	5.48795e-07
3317.47	-1.30572e-07
3326.15	-2.69485e-07
3334.83	1.36912e-07
3343.51	2.7373e-07
3352.19	-3.16323e-07
3360.86	-2.51313e-07
3369.54	3.9027e-07
3378.22	-6.35141e-07
3386.9	6.16551e-08
3395.58	3.98496e-08
3404.26	-4.92459e-07
3412.93	8.06653e-07
3421.61	-1.5819e-07
3430.29	-9.1364e-07
3438.97	-5.25644e-07
3447.65	-8.22817e-07
3456.32	-1.69683e-07
3465	-2.25011e-07
3473.68	-1.10519e-07
3482.36	-1.47168e-07
3491.04	-6.72342e-07
3499.72	-2.81653e-07
3508.39	-4.44228e-07
3517.07	-3.92759e-07
3525.75	-7.08954e-07
3534.43	-6.1725e-07
3543.11	-7.72715e-07
3551.78	-2.65061e-07
3560.46	-2.2046e-07
3569.14	-2.07655e-07
3577.82	-5.16353e-07
3586.5	-2.26905e-06
3595.18	-6.62869e-07
3603.85	-6.05725e-07
3612.53	-2.59755e-06
3621.21	-1.15858e-06
3629.89	-1.45679e-06
3638.57	-3.41733e-07
3647.24	-1.98746e-06
3655.92	-3.48976e-07
3664.6	-6.66125e-07
3673.28	-6.52617e-07
3681.96	-4.49084e-07
3690.64	-6.12895e-07
3699.31	-3.24399e-07
3707.99	-1.80764e-07
3716.67	5.92243e-07
3725.35	-3.7478e-07
3734.03	-4.73858e-07
3742.7	-6.99845e-07
3751.38	-7.53093e-07
3760.06	-1.79219e-06
3768.74	-9.40012e-07
3777.42	-5.81729e-07
3786.1	-6.92063e-07
3794.77	-4.50434e-07
3803.45	-4.51016e-07
3812.13	-5.57344e-07
3820.81	-3.77697e-06
3829.49	-6.67118e-08
3838.16	-1.55315e-06
3846.84	-7.16921e-07
3855.52	-8.48198e-07
3864.2	-1.10767e-06
3872.88	-8.85006e-07
3881.56	-6.33999e-07
3890.23	-8.01433e-07
3898.91	-8.46939e-07
3907.59	-3.9329e-07
3916.27	-9.18472e-07
3924.95	-2.17608e-07
3933.62	-3.75264e-07
3942.3	-3.39289e-07
3950.98	-8.34345e-07
3959.66	-7.95292e-07
3968.34	-4.87111e-07
