Infrared Spectrum: 2-Propanol
Formula: C H3 C H( O H) C H3
CAS: 67-63-0
State: gas
Melting point: -89.5 C
Boiling point: 82.4 C
Class: IUPAC A
Instrument: IFS66V (Bruker)
Instrument parameters: KBr Beam splitter; MCT Detector; Multipass cell
Sampling: 1 L/min Flow
Resolution: 0.9640
Temperature: 23 C
Pressure: 101.3 kPa
Origin: NIST, Anayltical Chemistry Division, 301-975-3108
cm-1	(micromol/mol)-1m-1 (base 10)
575.169	2.5841e-06
583.847	2.8928e-06
592.525	3.26109e-06
601.203	3.55705e-06
609.882	3.91465e-06
618.56	4.04877e-06
627.238	4.29477e-06
635.916	4.14442e-06
644.594	4.116e-06
653.272	3.79801e-06
661.951	3.49527e-06
670.629	3.22253e-06
679.307	2.95907e-06
687.985	2.83723e-06
696.663	2.68042e-06
705.341	2.67837e-06
714.019	2.35832e-06
722.698	2.18786e-06
731.376	1.84943e-06
740.054	1.47025e-06
748.732	1.19086e-06
757.41	1.06536e-06
766.088	1.06987e-06
774.767	1.28868e-06
783.445	2.63474e-06
792.123	8.47773e-06
800.801	1.98225e-05
809.479	2.50107e-05
818.157	2.71057e-05
826.835	2.59435e-05
835.514	1.71463e-05
844.192	5.61966e-06
852.87	2.56704e-06
861.548	1.69723e-06
870.226	1.5454e-06
878.904	1.49548e-06
887.583	1.7744e-06
896.261	2.5874e-06
904.939	4.42144e-06
913.617	8.90922e-06
922.295	2.23037e-05
930.973	6.14086e-05
939.651	0.000125385
948.33	0.000148713
957.008	0.000178845
965.686	0.00014899
974.364	7.9944e-05
983.042	2.01422e-05
991.72	7.90693e-06
1000.4	5.58753e-06
1009.08	5.21233e-06
1017.75	5.25924e-06
1026.43	7.15053e-06
1035.11	1.1875e-05
1043.79	2.56107e-05
1052.47	5.66377e-05
1061.15	9.30337e-05
1069.82	0.00012726
1078.5	0.000127433
1087.18	0.000117139
1095.86	8.57072e-05
1104.54	6.19161e-05
1113.21	6.95548e-05
1121.89	9.20187e-05
1130.57	0.000117249
1139.25	0.000142628
1147.93	0.000173611
1156.61	0.000175491
1165.28	0.000148693
1173.96	0.000109703
1182.64	7.13373e-05
1191.32	3.52079e-05
1200	2.13167e-05
1208.67	1.9138e-05
1217.35	2.61421e-05
1226.03	4.72949e-05
1234.71	8.17201e-05
1243.39	9.75602e-05
1252.07	0.000124252
1260.74	9.74538e-05
1269.42	7.30914e-05
1278.1	3.72337e-05
1286.78	2.17814e-05
1295.46	1.58935e-05
1304.13	1.51041e-05
1312.81	1.72114e-05
1321.49	2.36006e-05
1330.17	3.46588e-05
1338.85	4.49284e-05
1347.52	5.57328e-05
1356.2	7.16982e-05
1364.88	9.42986e-05
1373.56	0.00014942
1382.24	0.000203075
1390.92	0.000181405
1399.59	0.000131855
1408.27	6.5881e-05
1416.95	3.43507e-05
1425.63	2.28581e-05
1434.31	2.25778e-05
1442.98	2.80394e-05
1451.66	3.48104e-05
1460.34	5.59206e-05
1469.02	3.70577e-05
1477.7	3.37486e-05
1486.38	2.78665e-05
1495.05	1.84564e-05
1503.73	8.8857e-06
1512.41	4.44588e-06
1521.09	2.8395e-06
1529.77	2.03666e-06
1538.44	1.70927e-06
1547.12	1.43944e-06
1555.8	1.26452e-06
1564.48	1.13112e-06
1573.16	1.0578e-06
1581.83	1.01786e-06
1590.51	9.97623e-07
1599.19	9.57682e-07
1607.87	9.00887e-07
1616.55	1.03832e-06
1625.23	9.51688e-07
1633.9	1.1279e-06
1642.58	1.22678e-06
1651.26	1.47519e-06
1659.94	1.58267e-06
1668.62	1.74835e-06
1677.29	1.67126e-06
1685.97	1.61807e-06
1694.65	1.56473e-06
1703.33	1.54948e-06
1712.01	1.67149e-06
1720.69	1.81461e-06
1729.36	1.89491e-06
1738.04	2.20419e-06
1746.72	2.99132e-06
1755.4	3.81261e-06
1764.08	3.91854e-06
1772.75	3.96698e-06
1781.43	3.33124e-06
1790.11	1.53395e-06
1798.79	6.41247e-07
1807.47	5.29616e-07
1816.15	6.03829e-07
1824.82	6.7464e-07
1833.5	7.20144e-07
1842.18	6.4696e-07
1850.86	6.07112e-07
1859.54	8.31768e-07
1868.21	9.88448e-07
1876.89	1.42368e-06
1885.57	1.89436e-06
1894.25	2.28611e-06
1902.93	2.40185e-06
1911.6	1.90306e-06
1920.28	1.4467e-06
1928.96	5.64011e-07
1937.64	2.58432e-07
1946.32	2.38399e-07
1955	3.45065e-07
1963.67	4.18476e-07
1972.35	4.64843e-07
1981.03	5.52701e-07
1989.71	5.00281e-07
1998.39	5.23083e-07
2007.06	5.99556e-07
2015.74	6.84978e-07
2024.42	7.83351e-07
2033.1	7.86183e-07
2041.78	7.8007e-07
2050.46	7.3587e-07
2059.13	8.74802e-07
2067.81	1.09688e-06
2076.49	1.28751e-06
2085.17	1.32829e-06
2093.85	1.22006e-06
2102.52	1.08931e-06
2111.2	9.33151e-07
2119.88	8.85422e-07
2128.56	7.59163e-07
2137.24	1.03836e-06
2145.91	9.91159e-07
2154.59	1.35512e-06
2163.27	1.41582e-06
2171.95	1.44087e-06
2180.63	1.49981e-06
2189.31	1.70026e-06
2197.98	1.69389e-06
2206.66	1.41141e-06
2215.34	9.86466e-07
2224.02	5.34211e-07
2232.7	3.87983e-07
2241.37	4.02066e-07
2250.05	4.60788e-07
2258.73	5.493e-07
2267.41	7.27009e-07
2276.09	9.5401e-07
2284.77	1.34517e-06
2293.44	1.75548e-06
2302.12	2.25449e-06
2310.8	2.61784e-06
2319.48	2.53242e-06
2328.16	2.34053e-06
2336.83	1.90129e-06
2345.51	1.20222e-06
2354.19	6.78218e-07
2362.87	4.07321e-07
2371.55	7.02413e-07
2380.23	1.05039e-06
2388.9	1.16509e-06
2397.58	1.17486e-06
2406.26	1.12805e-06
2414.94	1.21084e-06
2423.62	1.24241e-06
2432.29	1.35236e-06
2440.97	1.3819e-06
2449.65	1.41836e-06
2458.33	1.36701e-06
2467.01	1.27506e-06
2475.68	1.46301e-06
2484.36	1.70897e-06
2493.04	1.94045e-06
2501.72	2.10496e-06
2510.4	2.1123e-06
2519.08	1.88734e-06
2527.75	1.69997e-06
2536.43	1.67502e-06
2545.11	1.44118e-06
2553.79	1.33612e-06
2562.47	1.36025e-06
2571.14	1.51875e-06
2579.82	1.87053e-06
2588.5	2.32042e-06
2597.18	2.8941e-06
2605.86	4.12211e-06
2614.54	4.2013e-06
2623.21	5.20885e-06
2631.89	6.46575e-06
2640.57	8.54532e-06
2649.25	8.49944e-06
2657.93	8.91375e-06
2666.6	9.79926e-06
2675.28	7.11237e-06
2683.96	6.30737e-06
2692.64	5.20686e-06
2701.32	4.71057e-06
2709.99	5.03506e-06
2718.67	5.90077e-06
2727.35	6.45342e-06
2736.03	7.26379e-06
2744.71	7.12075e-06
2753.39	7.08767e-06
2762.06	7.93643e-06
2770.74	8.96921e-06
2779.42	9.39443e-06
2788.1	1.06673e-05
2796.78	1.19867e-05
2805.45	1.26688e-05
2814.13	1.49683e-05
2822.81	1.75454e-05
2831.49	2.00146e-05
2840.17	2.21793e-05
2848.85	3.31467e-05
2857.52	4.88194e-05
2866.2	7.81297e-05
2874.88	0.000101153
2883.56	0.000163584
2892.24	0.000152423
2900.91	0.000132699
2909.59	0.000119049
2918.27	0.000105375
2926.95	0.000108184
2935.63	0.000114824
2944.31	0.000138729
2952.98	0.000205992
2961.66	0.000275841
2970.34	0.000460356
2979.02	0.000492897
2987.7	0.00031348
2996.37	0.000251693
3005.05	0.000133153
3013.73	3.70514e-05
3022.41	8.92655e-06
3031.09	3.28773e-06
3039.76	1.97987e-06
3048.44	1.45622e-06
3057.12	1.20616e-06
3065.8	1.15659e-06
3074.48	1.14224e-06
3083.16	1.24316e-06
3091.83	1.25453e-06
3100.51	1.38296e-06
3109.19	1.51609e-06
3117.87	1.59706e-06
3126.55	1.69053e-06
3135.22	1.81078e-06
3143.9	1.96373e-06
3152.58	2.34632e-06
3161.26	2.94196e-06
3169.94	3.84301e-06
3178.62	4.658e-06
3187.29	5.21477e-06
3195.97	5.18443e-06
3204.65	4.85079e-06
3213.33	4.65632e-06
3222.01	4.10735e-06
3230.68	3.5472e-06
3239.36	2.85507e-06
3248.04	2.23501e-06
3256.72	1.17757e-06
3265.4	7.06068e-07
3274.07	4.39876e-07
3282.75	2.94043e-07
3291.43	2.99217e-07
3300.11	3.79756e-07
3308.79	5.25344e-07
3317.47	9.19601e-07
3326.14	1.22418e-06
3334.82	1.72113e-06
3343.5	1.83538e-06
3352.18	1.73943e-06
3360.86	1.61562e-06
3369.53	1.42133e-06
3378.21	1.25249e-06
3386.89	1.3861e-06
3395.57	1.63828e-06
3404.25	1.84218e-06
3412.93	2.0078e-06
3421.6	2.46e-06
3430.28	2.39866e-06
3438.96	2.5473e-06
3447.64	2.6764e-06
3456.32	2.54931e-06
3464.99	2.43748e-06
3473.67	2.05423e-06
3482.35	1.62052e-06
3491.03	1.23923e-06
3499.71	1.01273e-06
3508.39	8.46547e-07
3517.06	7.82957e-07
3525.74	8.8533e-07
3534.42	1.07995e-06
3543.1	1.24904e-06
3551.78	1.09051e-06
3560.45	9.88481e-07
3569.13	1.00459e-06
3577.81	9.74876e-07
3586.49	1.15236e-06
3595.17	1.56398e-06
3603.84	2.21109e-06
3612.52	4.69832e-06
3621.2	8.32535e-06
3629.88	1.36003e-05
3638.56	3.11851e-05
3647.24	4.85802e-05
3655.91	5.56371e-05
3664.59	4.82118e-05
3673.27	4.05189e-05
3681.95	1.80409e-05
3690.63	5.61382e-06
3699.3	2.5317e-06
3707.98	1.72334e-06
3716.66	1.47284e-06
3725.34	1.24177e-06
3734.02	1.13581e-06
3742.7	1.08873e-06
3751.37	1.03885e-06
3760.05	9.94611e-07
3768.73	1.17088e-06
3777.41	1.49585e-06
3786.09	2.02291e-06
3794.76	2.24596e-06
3803.44	2.45813e-06
3812.12	2.62848e-06
3820.8	2.78178e-06
3829.48	2.72221e-06
3838.16	2.6144e-06
3846.83	2.33131e-06
3855.51	2.2976e-06
3864.19	2.20711e-06
3872.87	2.18282e-06
3881.55	2.18585e-06
3890.22	2.12074e-06
3898.9	2.30955e-06
3907.58	1.86171e-06
3916.26	1.68816e-06
3924.94	1.43552e-06
3933.61	1.40779e-06
3942.29	1.15472e-06
3950.97	9.68186e-07
3959.65	8.9904e-07
3968.33	7.87901e-07
