Infrared Spectrum: Chloroform
Formula: C H Cl3
CAS: 67-66-3
State: gas
Melting point: -63.5 C
Boiling point: 61.7 C
Class: IUPAC A
Instrument: IFS66V (Bruker)
Instrument parameters: KBr Beam Splitter; MCT Detector; Multipass cell
Sampling: 1 L/min Flow
Resolution: 0.1250
Temperature: 23 C
Pressure: 101.3 Pa
Origin: NIST, Analytical Chemistry Division, 301-975-3108
cm-1	(micromol/mol)-1m-1 (base 10)
575.05	-2.35376e-06
583.608	-4.48502e-07
592.165	1.31995e-06
600.723	9.26933e-07
609.281	2.70894e-06
617.838	1.09507e-06
626.396	4.5535e-06
634.954	1.80389e-06
643.511	7.74243e-07
652.069	1.20616e-06
660.626	4.22153e-06
669.184	1.36292e-05
677.742	1.08673e-05
686.299	4.50753e-05
694.857	5.50471e-06
703.415	4.53442e-07
711.972	1.88491e-07
720.53	4.59972e-07
729.088	2.36181e-06
737.645	1.47338e-05
746.203	6.77832e-05
754.761	0.0002399
763.318	0.00101156
771.876	0.00281364
780.434	0.00110882
788.991	0.000160891
797.549	3.39101e-05
806.106	3.72962e-06
814.664	9.02076e-07
823.222	-1.45418e-07
831.779	-8.51887e-08
840.337	1.13062e-06
848.895	3.76929e-06
857.452	5.02084e-06
866.01	9.52784e-07
874.568	6.24653e-07
883.125	4.00758e-07
891.683	-2.68179e-07
900.241	1.20414e-08
908.798	1.01175e-06
917.356	3.80804e-06
925.914	4.3465e-06
934.471	5.84448e-06
943.029	3.64924e-06
951.586	1.77522e-06
960.144	3.09513e-08
968.702	-7.96082e-08
977.259	4.081e-08
985.817	-2.53194e-07
994.375	-3.75933e-07
1002.93	-8.0725e-08
1011.49	4.06601e-07
1020.05	1.97501e-06
1028.61	2.23811e-06
1037.16	2.08119e-06
1045.72	-8.29296e-08
1054.28	2.20857e-08
1062.84	-3.13572e-07
1071.39	2.24426e-07
1079.95	3.43891e-08
1088.51	-7.80293e-08
1097.07	-4.99491e-07
1105.62	1.02229e-07
1114.18	6.70392e-08
1122.74	-3.63364e-07
1131.3	2.00295e-07
1139.85	-2.71733e-07
1148.41	-6.52068e-07
1156.97	-3.76039e-07
1165.53	-4.99164e-07
1174.09	-9.98385e-08
1182.64	6.98699e-07
1191.2	2.80942e-06
1199.76	1.05761e-05
1208.32	6.85336e-05
1216.87	0.000385139
1225.43	0.000202025
1233.99	3.27141e-05
1242.55	5.3611e-06
1251.1	8.26302e-07
1259.66	2.24637e-07
1268.22	-5.56017e-08
1276.78	-1.08664e-07
1285.33	-1.38768e-07
1293.89	-2.42866e-07
1302.45	-3.22034e-07
1311.01	-3.17039e-07
1319.57	-1.05681e-08
1328.12	-1.86151e-07
1336.68	-4.85591e-07
1345.24	1.35952e-07
1353.8	-1.17118e-06
1362.35	-4.14615e-07
1370.91	7.39549e-08
1379.47	-2.21959e-07
1388.03	-7.29097e-07
1396.58	1.58358e-08
1405.14	-1.00164e-06
1413.7	-1.9525e-07
1422.26	5.2695e-07
1430.81	2.66159e-06
1439.37	7.78303e-06
1447.93	5.93944e-06
1456.49	-3.38601e-06
1465.05	-1.25067e-06
1473.6	-2.41119e-06
1482.16	1.15284e-06
1490.72	-1.12249e-06
1499.28	-1.24027e-07
1507.83	-1.48732e-07
1516.39	1.20054e-06
1524.95	2.74033e-06
1533.51	4.96189e-06
1542.06	1.22811e-06
1550.62	5.19122e-06
1559.18	3.8858e-06
1567.74	1.93092e-06
1576.29	-7.32979e-06
1584.85	-3.25221e-07
1593.41	-4.4752e-07
1601.97	-2.30606e-08
1610.53	-4.84456e-07
1619.08	-2.62365e-07
1627.64	-1.04825e-06
1636.2	-6.80327e-07
1644.76	-1.08198e-07
1653.31	-1.25089e-05
1661.87	-6.09057e-07
1670.43	-2.60997e-07
1678.99	-4.15565e-07
1687.54	-2.15618e-07
1696.1	-4.86823e-06
1704.66	-8.80856e-07
1713.22	-2.29853e-07
1721.77	-4.26606e-07
1730.33	-6.34588e-07
1738.89	-3.00712e-07
1747.45	-4.96417e-07
1756.01	-8.4523e-08
1764.56	-1.62821e-07
1773.12	-8.31842e-07
1781.68	-2.05141e-07
1790.24	-1.77359e-07
1798.79	1.0037e-08
1807.35	3.66664e-08
1815.91	2.57036e-07
1824.47	4.06415e-07
1833.02	8.64205e-07
1841.58	1.89265e-07
1850.14	-1.4911e-07
1858.7	-2.30374e-07
1867.25	-2.4331e-07
1875.81	-2.50626e-07
1884.37	-1.54072e-07
1892.93	-1.50162e-07
1901.49	-8.44648e-08
1910.04	-4.31939e-07
1918.6	-1.17551e-07
1927.16	-1.78421e-07
1935.72	-3.7848e-07
1944.27	-2.7851e-07
1952.83	-1.61334e-07
1961.39	-9.7754e-08
1969.95	-1.94719e-07
1978.5	9.0973e-08
1987.06	-6.39907e-08
1995.62	-1.01894e-07
2004.18	-8.07905e-08
2012.73	8.12016e-08
2021.29	-2.05967e-07
2029.85	-1.6726e-07
2038.41	-1.53232e-07
2046.97	-4.28763e-07
2055.52	-4.02374e-07
2064.08	-1.35032e-07
2072.64	-2.89435e-07
2081.2	-1.92569e-07
2089.75	-6.4261e-07
2098.31	-2.9256e-07
2106.87	-7.86005e-08
2115.43	-4.59027e-07
2123.98	-1.3203e-07
2132.54	-8.02448e-08
2141.1	5.18546e-08
2149.66	-2.28522e-07
2158.21	-5.39017e-07
2166.77	3.44764e-08
2175.33	-2.21304e-07
2183.89	-1.2032e-07
2192.45	1.16835e-07
2201	-1.07816e-07
2209.56	3.74726e-07
2218.12	-8.49813e-09
2226.68	-1.17035e-07
2235.23	2.91178e-08
2243.79	4.29552e-07
2252.35	-2.33022e-07
2260.91	-1.72222e-07
2269.46	1.01352e-07
2278.02	-1.07351e-07
2286.58	2.80184e-07
2295.14	5.51142e-08
2303.69	-2.00976e-07
2312.25	-1.31488e-07
2320.81	1.10534e-07
2329.37	1.36636e-07
2337.93	9.58154e-07
2346.48	6.1586e-08
2355.04	1.19039e-07
2363.6	4.00173e-07
2372.16	1.34377e-07
2380.71	5.25295e-07
2389.27	3.81634e-07
2397.83	2.20262e-06
2406.39	1.65269e-06
2414.94	1.99797e-06
2423.5	2.07875e-06
2432.06	6.75449e-07
2440.62	1.22917e-06
2449.17	5.12998e-07
2457.73	8.4101e-07
2466.29	3.34687e-07
2474.85	-1.14467e-07
2483.41	-2.06273e-07
2491.96	-1.28138e-07
2500.52	-2.1584e-07
2509.08	-3.80637e-07
2517.64	-2.95809e-07
2526.19	-3.53957e-07
2534.75	-6.71847e-08
2543.31	-4.30676e-07
2551.87	-3.53084e-07
2560.42	-5.40908e-07
2568.98	-3.43189e-07
2577.54	-2.92505e-07
2586.1	-2.27623e-07
2594.65	-4.72912e-07
2603.21	-6.33369e-07
2611.77	-5.21733e-07
2620.33	-5.63449e-07
2628.89	-3.37513e-07
2637.44	-5.07131e-07
2646	-4.20338e-07
2654.56	-3.2871e-07
2663.12	-4.25911e-07
2671.67	-2.47705e-08
2680.23	-3.28357e-08
2688.79	-3.86243e-07
2697.35	-3.58068e-07
2705.9	-5.20631e-07
2714.46	-4.04582e-07
2723.02	-5.61099e-07
2731.58	-1.68489e-07
2740.13	-4.87006e-07
2748.69	-3.77956e-07
2757.25	-2.90563e-07
2765.81	-2.40738e-07
2774.37	-4.58143e-07
2782.92	-2.88671e-07
2791.48	-5.60011e-07
2800.04	-6.33053e-07
2808.6	-7.72872e-08
2817.15	-5.20984e-07
2825.71	9.43562e-08
2834.27	-3.01087e-07
2842.83	-2.85186e-07
2851.38	-1.23423e-07
2859.94	-7.99174e-08
2868.5	-4.21265e-07
2877.06	-6.49001e-09
2885.61	-5.387e-07
2894.17	-7.57167e-07
2902.73	-5.80867e-07
2911.29	-1.23692e-07
2919.85	-2.63097e-07
2928.4	-3.91573e-07
2936.96	-5.11642e-07
2945.52	-9.33263e-07
2954.08	-4.7069e-07
2962.63	1.65528e-07
2971.19	-4.97872e-07
2979.75	-7.64043e-07
2988.31	-5.87313e-07
2996.86	9.43417e-08
3005.42	-5.86491e-07
3013.98	1.61708e-07
3022.54	7.62784e-07
3031.09	-1.27923e-07
3039.65	8.85356e-07
3048.21	6.25224e-07
3056.77	-2.79918e-07
3065.33	-3.81387e-07
3073.88	-5.19878e-07
3082.44	-3.74231e-07
3091	-1.00984e-07
3099.56	4.86314e-08
3108.11	-1.27883e-07
3116.67	-2.27514e-07
3125.23	-2.25259e-08
3133.79	-4.46807e-07
3142.34	-1.95246e-07
3150.9	-1.17857e-07
3159.46	4.27482e-07
3168.02	-7.37912e-08
3176.57	-4.24383e-07
3185.13	1.27687e-07
3193.69	-1.13652e-07
3202.25	2.50506e-08
3210.81	1.17657e-07
3219.36	3.56405e-08
3227.92	3.16465e-07
3236.48	-7.88624e-08
3245.04	2.20926e-07
3253.59	-1.27203e-07
3262.15	3.67915e-07
3270.71	1.11098e-07
3279.27	-2.02715e-07
3287.82	-4.10235e-07
3296.38	1.15209e-07
3304.94	2.80766e-07
3313.5	-1.11342e-07
3322.05	-1.51337e-09
3330.61	-1.466e-07
3339.17	-3.8043e-07
3347.73	7.57738e-08
3356.29	4.58364e-07
3364.84	-6.34675e-07
3373.4	-2.60907e-07
3381.96	-1.33396e-06
3390.52	1.48095e-07
3399.07	-2.08182e-07
3407.63	-9.00708e-08
3416.19	-6.78785e-07
3424.75	-6.39441e-07
3433.3	2.8253e-07
3441.86	-5.71467e-07
3450.42	-8.22409e-07
3458.98	-4.48917e-07
3467.53	-4.7977e-07
3476.09	-4.13142e-07
3484.65	-4.71908e-07
3493.21	-6.12015e-07
3501.77	-4.31429e-07
3510.32	-3.32777e-07
3518.88	-5.86735e-07
3527.44	-1.92045e-07
3536	-6.68475e-07
3544.55	-3.86036e-07
3553.11	-3.17625e-07
3561.67	-5.23126e-07
3570.23	-5.53215e-07
3578.78	3.0454e-07
3587.34	-1.24925e-08
3595.9	-4.69365e-07
3604.46	-6.09457e-08
3613.01	-7.47072e-07
3621.57	-3.80324e-07
3630.13	-2.31432e-07
3638.69	-2.1154e-07
3647.25	-1.91272e-06
3655.8	-7.97962e-07
3664.36	-7.50724e-07
3672.92	-1.15893e-07
3681.48	-5.94433e-09
3690.03	1.42533e-08
3698.59	1.95082e-07
3707.15	1.7431e-07
3715.71	-1.63105e-07
3724.26	-2.24829e-07
3732.82	-2.28082e-07
3741.38	-1.38723e-06
3749.94	-1.21342e-06
3758.49	-4.79835e-07
3767.05	-7.06753e-07
3775.61	-1.6822e-07
3784.17	-2.69801e-07
3792.73	-2.67749e-08
3801.28	-5.02775e-06
3809.84	-2.79438e-07
3818.4	-4.7682e-07
3826.96	-5.62729e-07
3835.51	-8.22526e-07
3844.07	-6.74267e-07
3852.63	-8.03387e-07
3861.19	-9.27584e-07
3869.74	-1.22942e-06
3878.3	-7.66869e-07
3886.86	-5.06279e-07
3895.42	-1.1522e-07
3903.97	-1.15866e-06
3912.53	-8.39722e-07
3921.09	-3.7753e-07
3929.65	-1.01442e-06
3938.21	-6.14343e-07
3946.76	-4.67637e-07
3955.32	4.30913e-07
3963.88	-1.14554e-07
3972.44	-6.2318e-07
