Infrared Spectrum: Chloroform
Formula: C H Cl3
CAS: 67-66-3
State: gas
Melting point: -63.5 C
Boiling point: 61.7 C
Class: IUPAC A
Instrument: IFS66V (Bruker)
Instrument parameters: KBr Beam Splitter; MCT Detector; Multipass cell
Sampling: 1 L/min Flow
Resolution: 1.9290
Temperature: 23 C
Pressure: 101.3 Pa
Origin: NIST, Analytical Chemistry Division, 301-975-3108
cm-1	(micromol/mol)-1m-1 (base 10)
575.652	-9.32448e-07
584.33	-5.40028e-07
593.008	-4.18653e-07
601.687	5.06858e-07
610.365	1.42201e-06
619.043	1.07386e-06
627.721	3.35195e-06
636.399	1.9822e-06
645.077	4.61588e-07
653.756	1.06408e-06
662.434	4.57605e-06
671.112	2.85626e-05
679.79	2.13677e-05
688.468	3.62011e-05
697.146	2.86169e-06
705.825	1.25398e-08
714.503	4.0974e-07
723.181	8.3448e-07
731.859	5.03731e-06
740.537	2.5406e-05
749.216	0.000105487
757.894	0.000396448
766.572	0.00174068
775.25	0.00256211
783.928	0.000500059
792.606	8.05934e-05
801.285	1.30944e-05
809.963	1.79566e-06
818.641	1.73732e-07
827.319	3.34909e-07
835.997	9.66776e-07
844.676	2.34544e-06
853.354	5.11043e-06
862.032	2.25808e-06
870.71	3.96004e-07
879.388	3.99776e-07
888.066	-5.55507e-09
896.745	2.11435e-08
905.423	6.45051e-07
914.101	2.80647e-06
922.779	4.3495e-06
931.457	6.59198e-06
940.135	3.14715e-06
948.814	2.33518e-06
957.492	4.30254e-07
966.17	1.75041e-07
974.848	-4.3542e-08
983.526	-1.09519e-07
992.205	-1.67431e-07
1000.88	-4.03807e-08
1009.56	1.99877e-07
1018.24	1.30499e-06
1026.92	1.98834e-06
1035.6	1.99931e-06
1044.27	3.79502e-07
1052.95	-7.91825e-08
1061.63	-1.92048e-07
1070.31	-1.43257e-07
1078.99	-2.50408e-07
1087.66	-2.92454e-07
1096.34	-2.71951e-07
1105.02	-1.53476e-07
1113.7	-2.27965e-07
1122.38	-3.09149e-07
1131.06	-2.18027e-07
1139.73	-2.08172e-07
1148.41	-2.81672e-07
1157.09	-2.32691e-07
1165.77	-2.36689e-07
1174.45	-3.65245e-09
1183.12	6.9637e-07
1191.8	2.79311e-06
1200.48	1.26818e-05
1209.16	8.42559e-05
1217.84	0.00046445
1226.52	0.000161884
1235.19	2.59934e-05
1243.87	4.06267e-06
1252.55	4.97705e-07
1261.23	-4.5612e-08
1269.91	-2.30275e-07
1278.58	-3.40969e-07
1287.26	-2.24833e-07
1295.94	-2.95841e-07
1304.62	-2.9638e-07
1313.3	-2.48556e-07
1321.98	-2.34645e-07
1330.65	-1.06965e-07
1339.33	-2.1094e-07
1348.01	-1.33184e-07
1356.69	-9.40361e-08
1365.37	-4.07052e-07
1374.04	-6.55724e-07
1382.72	-1.70763e-07
1391.4	-1.82914e-07
1400.08	-3.9011e-07
1408.76	-1.06103e-07
1417.44	-6.59806e-08
1426.11	1.40027e-06
1434.79	4.59718e-06
1443.47	9.42321e-06
1452.15	3.61161e-06
1460.83	3.88037e-07
1469.5	1.24857e-06
1478.18	1.4422e-06
1486.86	8.38856e-07
1495.54	-8.08407e-07
1504.22	-2.05236e-07
1512.9	7.15037e-07
1521.57	5.33298e-07
1530.25	4.61348e-06
1538.93	3.15852e-06
1547.61	7.33608e-06
1556.29	4.27588e-06
1564.96	2.44069e-06
1573.64	3.00705e-07
1582.32	-5.79845e-08
1591	-1.69461e-07
1599.68	-2.64399e-07
1608.36	-3.00563e-07
1617.03	-2.42901e-06
1625.71	-2.74239e-07
1634.39	-1.2236e-06
1643.07	-2.77594e-07
1651.75	-2.45963e-06
1660.42	-2.60317e-07
1669.1	-1.46448e-06
1677.78	-1.95097e-07
1686.46	-4.77227e-07
1695.14	-2.27014e-06
1703.82	-6.53672e-07
1712.49	-2.67233e-07
1721.17	-2.80377e-07
1729.85	-5.57028e-07
1738.53	-4.26573e-07
1747.21	-5.25156e-07
1755.88	-4.7981e-07
1764.56	-2.15898e-07
1773.24	-1.3862e-06
1781.92	-1.64353e-07
1790.6	-3.91805e-07
1799.28	-2.82221e-07
1807.95	1.14034e-07
1816.63	4.08649e-07
1825.31	-1.18061e-07
1833.99	7.49062e-07
1842.67	-1.13211e-08
1851.34	-7.95827e-08
1860.02	-1.64611e-07
1868.7	-6.63822e-07
1877.38	-2.98788e-07
1886.06	-1.99575e-07
1894.74	-1.24423e-07
1903.41	-2.21348e-07
1912.09	-3.02702e-07
1920.77	-2.99781e-07
1929.45	-2.49484e-07
1938.13	-2.85226e-07
1946.8	-2.94928e-07
1955.48	-2.635e-07
1964.16	-1.2828e-07
1972.84	-7.24051e-08
1981.52	-4.50372e-08
1990.19	-2.45813e-08
1998.87	-1.1224e-07
2007.55	-1.59787e-07
2016.23	-2.76018e-07
2024.91	-2.30737e-07
2033.59	-2.7329e-07
2042.26	-2.453e-07
2050.94	-2.16979e-07
2059.62	-2.90483e-07
2068.3	-3.2123e-07
2076.98	-2.79787e-07
2085.65	-2.9463e-07
2094.33	-3.49464e-07
2103.01	-3.4699e-07
2111.69	-3.58268e-07
2120.37	-2.08663e-07
2129.05	-2.08219e-07
2137.72	-1.89124e-07
2146.4	-2.80937e-07
2155.08	-2.66734e-07
2163.76	-1.58416e-07
2172.44	-2.53631e-07
2181.11	-1.72222e-07
2189.79	-1.51529e-07
2198.47	-4.79839e-09
2207.15	1.74288e-07
2215.83	1.40128e-07
2224.51	-4.4055e-08
2233.18	1.11072e-07
2241.86	1.05634e-07
2250.54	-8.06704e-08
2259.22	-1.16169e-07
2267.9	-6.67191e-08
2276.57	5.43502e-08
2285.25	1.947e-07
2293.93	2.11937e-07
2302.61	-6.90764e-08
2311.29	9.57241e-08
2319.97	4.39131e-07
2328.64	1.2292e-06
2337.32	1.58909e-06
2346	7.38003e-07
2354.68	1.34689e-06
2363.36	2.1101e-06
2372.03	8.84315e-07
2380.71	1.94777e-07
2389.39	4.43056e-07
2398.07	2.3031e-06
2406.75	2.79617e-06
2415.43	2.01316e-06
2424.1	2.08428e-06
2432.78	5.52335e-07
2441.46	1.30881e-06
2450.14	6.48783e-07
2458.82	7.59906e-07
2467.49	2.67553e-07
2476.17	-9.80705e-08
2484.85	-2.46122e-07
2493.53	-2.41953e-07
2502.21	-1.4708e-07
2510.89	-3.07519e-07
2519.56	-2.82938e-07
2528.24	-2.71053e-07
2536.92	-2.8006e-07
2545.6	-3.59264e-07
2554.28	-3.23533e-07
2562.95	-3.00662e-07
2571.63	-4.09286e-07
2580.31	-2.72966e-07
2588.99	-2.94332e-07
2597.67	-3.41944e-07
2606.35	-2.9368e-07
2615.02	-2.57516e-07
2623.7	-3.2302e-07
2632.38	-3.36378e-07
2641.06	-2.43918e-07
2649.74	-3.3926e-07
2658.41	-3.73561e-07
2667.09	-2.87096e-07
2675.77	-2.28453e-07
2684.45	-2.5661e-07
2693.13	-3.06519e-07
2701.81	-3.22802e-07
2710.48	-1.25326e-07
2719.16	-2.47617e-07
2727.84	-2.83534e-07
2736.52	-2.46337e-07
2745.2	-2.68713e-07
2753.87	-2.26838e-07
2762.55	-2.67771e-07
2771.23	-4.05018e-07
2779.91	-3.22245e-07
2788.59	-3.07104e-07
2797.27	-2.21439e-07
2805.94	-3.59697e-07
2814.62	-4.97468e-07
2823.3	-3.38245e-07
2831.98	-1.59889e-07
2840.66	-2.68317e-07
2849.33	-3.61236e-07
2858.01	-3.42054e-07
2866.69	-4.46563e-07
2875.37	-4.41292e-07
2884.05	-4.17445e-07
2892.73	-3.55361e-07
2901.4	-2.95947e-07
2910.08	-3.56078e-07
2918.76	-4.37156e-07
2927.44	-4.90178e-07
2936.12	-4.57579e-07
2944.79	-3.7677e-07
2953.47	-4.06852e-07
2962.15	-5.38384e-07
2970.83	-6.17068e-07
2979.51	-5.33065e-07
2988.19	-3.15733e-07
2996.86	-4.2749e-07
3005.54	-3.7792e-07
3014.22	-1.51664e-08
3022.9	8.03568e-07
3031.58	8.35346e-07
3040.25	8.04369e-07
3048.93	6.73437e-07
3057.61	-1.56673e-07
3066.29	-2.77117e-07
3074.97	-2.62525e-07
3083.65	-1.8088e-07
3092.32	-1.92452e-07
3101	-1.18905e-07
3109.68	-1.08773e-09
3118.36	-4.48735e-08
3127.04	6.8629e-08
3135.71	-2.72188e-08
3144.39	-4.13302e-08
3153.07	5.42338e-08
3161.75	1.21604e-07
3170.43	-6.83525e-08
3179.11	6.78905e-08
3187.78	1.29204e-07
3196.46	5.85811e-08
3205.14	8.36426e-08
3213.82	1.72909e-08
3222.5	1.24358e-07
3231.17	2.45395e-07
3239.85	1.61093e-07
3248.53	1.75994e-07
3257.21	1.22233e-07
3265.89	1.02752e-07
3274.57	3.6972e-08
3283.24	1.05619e-07
3291.92	-4.03807e-09
3300.6	9.77904e-08
3309.28	-1.74692e-08
3317.96	-1.35723e-07
3326.63	-2.52212e-07
3335.31	-1.29145e-07
3343.99	-1.78279e-07
3352.67	-1.79308e-07
3361.35	-1.91899e-07
3370.03	-1.89411e-07
3378.7	-3.59541e-07
3387.38	-1.50045e-07
3396.06	-2.45867e-07
3404.74	-1.78992e-07
3413.42	1.58176e-08
3422.09	-1.93034e-07
3430.77	-3.19531e-07
3439.45	-4.18711e-07
3448.13	-3.77148e-07
3456.81	-3.06391e-07
3465.49	-2.40745e-07
3474.16	-2.19031e-07
3482.84	-3.48598e-07
3491.52	-3.36451e-07
3500.2	-5.04057e-07
3508.88	-5.14133e-07
3517.55	-3.65547e-07
3526.23	-4.63592e-07
3534.91	-2.7425e-07
3543.59	-4.01413e-07
3552.27	-6.16049e-07
3560.95	-3.3875e-07
3569.62	-4.58499e-07
3578.3	-3.99409e-07
3586.98	-8.18091e-07
3595.66	-4.19668e-07
3604.34	-2.79282e-07
3613.01	-8.45273e-07
3621.69	-3.95283e-07
3630.37	-1.20432e-06
3639.05	-4.47946e-07
3647.73	-1.38427e-06
3656.41	-1.36836e-06
3665.08	-4.98662e-07
3673.76	-8.6988e-07
3682.44	-3.83777e-07
3691.12	-7.24095e-07
3699.8	1.15307e-07
3708.47	-5.87295e-07
3717.15	9.24463e-08
3725.83	-7.51805e-07
3734.51	-1.16214e-06
3743.19	-1.39365e-06
3751.87	-2.76612e-06
3760.54	-9.11061e-07
3769.22	-9.52184e-07
3777.9	-5.25789e-07
3786.58	-3.70742e-07
3795.26	-6.06569e-07
3803.93	-2.01634e-07
3812.61	-2.11744e-07
3821.29	-1.90873e-06
3829.97	-6.2171e-07
3838.65	-1.92167e-06
3847.33	-5.35022e-07
3856	-7.88657e-07
3864.68	-1.33657e-06
3873.36	-8.91424e-07
3882.04	-6.47823e-07
3890.72	-1.08814e-06
3899.39	-1.16037e-06
3908.07	-6.10367e-07
3916.75	-9.41161e-07
3925.43	-5.975e-07
3934.11	-5.30395e-07
3942.79	-6.60192e-07
3951.46	-4.5947e-07
3960.14	-6.2048e-07
3968.82	-4.97898e-07
