Infrared Spectrum: 2-Propanol
Formula: C H3 C H( O H) C H3
CAS: 67-63-0
State: gas
Melting point: -89.5 C
Boiling point: 82.4 C
Class: IUPAC A
Instrument: IFS66V (Bruker)
Instrument parameters: KBr Beam splitter; MCT Detector; Multipass cell
Sampling: 1 L/min Flow
Resolution: 1.9290
Temperature: 23 C
Pressure: 101.3 kPa
Origin: NIST, Anayltical Chemistry Division, 301-975-3108
cm-1	(micromol/mol)-1m-1 (base 10)
574.687	2.55039e-06
583.365	2.84801e-06
592.043	3.17207e-06
600.721	3.4904e-06
609.4	3.9852e-06
618.078	3.9745e-06
626.756	4.41313e-06
635.434	4.06603e-06
644.112	4.20793e-06
652.79	3.79914e-06
661.469	3.59969e-06
670.147	3.15201e-06
678.825	2.98918e-06
687.503	2.87707e-06
696.181	2.67991e-06
704.859	2.67124e-06
713.537	2.42964e-06
722.216	2.13528e-06
730.894	1.9475e-06
739.572	1.44982e-06
748.25	1.25242e-06
756.928	1.00841e-06
765.606	1.10382e-06
774.285	1.18467e-06
782.963	2.52786e-06
791.641	7.84054e-06
800.319	1.92627e-05
808.997	2.46464e-05
817.675	2.79781e-05
826.353	2.57667e-05
835.032	1.8147e-05
843.71	5.8582e-06
852.388	2.69002e-06
861.066	1.65876e-06
869.744	1.65018e-06
878.422	1.43586e-06
887.101	1.83174e-06
895.779	2.41366e-06
904.457	4.37578e-06
913.135	8.38029e-06
921.813	2.11903e-05
930.491	5.7943e-05
939.169	0.000123037
947.848	0.000146065
956.526	0.000171811
965.204	0.000149307
973.882	8.51836e-05
982.56	2.17175e-05
991.238	8.09998e-06
999.917	5.69822e-06
1008.59	5.21087e-06
1017.27	5.22993e-06
1025.95	6.95904e-06
1034.63	1.13967e-05
1043.31	2.43531e-05
1051.99	5.45352e-05
1060.66	9.19168e-05
1069.34	0.000126872
1078.02	0.000127987
1086.7	0.000117718
1095.38	8.77953e-05
1104.05	6.22881e-05
1112.73	6.85441e-05
1121.41	9.07067e-05
1130.09	0.000114748
1138.77	0.000140862
1147.45	0.00017163
1156.12	0.000176515
1164.8	0.000151884
1173.48	0.000111862
1182.16	7.36386e-05
1190.84	3.64732e-05
1199.51	2.17164e-05
1208.19	1.89327e-05
1216.87	2.55491e-05
1225.55	4.55013e-05
1234.23	7.99606e-05
1242.9	9.77853e-05
1251.58	0.000126848
1260.26	9.82015e-05
1268.94	7.52014e-05
1277.62	3.87142e-05
1286.3	2.22671e-05
1294.97	1.60566e-05
1303.65	1.50439e-05
1312.33	1.70404e-05
1321.01	2.30784e-05
1329.69	3.39987e-05
1338.36	4.43275e-05
1347.04	5.57589e-05
1355.72	7.04466e-05
1364.4	9.26186e-05
1373.08	0.000149089
1381.76	0.000203013
1390.43	0.000179385
1399.11	0.000136504
1407.79	6.82032e-05
1416.47	3.53591e-05
1425.15	2.31444e-05
1433.82	2.23871e-05
1442.5	2.77735e-05
1451.18	3.46449e-05
1459.86	5.39077e-05
1468.54	3.43362e-05
1477.22	3.47652e-05
1485.89	2.81879e-05
1494.57	1.9115e-05
1503.25	9.28655e-06
1511.93	4.63206e-06
1520.61	2.84791e-06
1529.28	2.06671e-06
1537.96	1.62393e-06
1546.64	1.47862e-06
1555.32	1.23816e-06
1564	1.13534e-06
1572.67	1.03246e-06
1581.35	1.04153e-06
1590.03	9.58762e-07
1598.71	9.90205e-07
1607.39	8.74184e-07
1616.07	1.00744e-06
1624.74	9.11994e-07
1633.42	1.12426e-06
1642.1	1.19541e-06
1650.78	1.48515e-06
1659.46	1.55133e-06
1668.13	1.73854e-06
1676.81	1.6386e-06
1685.49	1.71523e-06
1694.17	1.48002e-06
1702.85	1.58417e-06
1711.53	1.62862e-06
1720.2	1.84767e-06
1728.88	1.83376e-06
1737.56	2.21627e-06
1746.24	2.89412e-06
1754.92	3.81757e-06
1763.59	3.85687e-06
1772.27	4.10618e-06
1780.95	3.35942e-06
1789.63	1.64401e-06
1798.31	6.09153e-07
1806.98	5.61237e-07
1815.66	5.53271e-07
1824.34	6.87359e-07
1833.02	6.87239e-07
1841.7	7.00151e-07
1850.38	5.57502e-07
1859.05	8.71979e-07
1867.73	9.2552e-07
1876.41	1.43977e-06
1885.09	1.81934e-06
1893.77	2.31342e-06
1902.44	2.36011e-06
1911.12	1.95933e-06
1919.8	1.46432e-06
1928.48	6.36722e-07
1937.16	2.1393e-07
1945.84	2.78963e-07
1954.51	2.98638e-07
1963.19	4.54342e-07
1971.87	4.12602e-07
1980.55	6.00081e-07
1989.23	4.62135e-07
1997.9	5.68476e-07
2006.58	5.26215e-07
2015.26	7.14176e-07
2023.94	7.22862e-07
2032.62	8.3952e-07
2041.3	7.28272e-07
2049.97	7.66058e-07
2058.65	8.04035e-07
2067.33	1.12258e-06
2076.01	1.21913e-06
2084.69	1.35568e-06
2093.36	1.14789e-06
2102.04	1.03681e-06
2110.72	7.39318e-07
2119.4	9.78941e-07
2128.08	8.25319e-07
2136.75	1.04031e-06
2145.43	9.20204e-07
2154.11	1.36573e-06
2162.79	1.45325e-06
2171.47	1.40444e-06
2180.15	1.56892e-06
2188.82	1.67388e-06
2197.5	1.69096e-06
2206.18	1.48643e-06
2214.86	9.63508e-07
2223.54	5.94611e-07
2232.21	3.3897e-07
2240.89	4.52477e-07
2249.57	4.14297e-07
2258.25	5.75023e-07
2266.93	6.61048e-07
2275.61	9.77756e-07
2284.28	1.26435e-06
2292.96	1.7852e-06
2301.64	2.18458e-06
2310.32	2.69642e-06
2319	2.42913e-06
2327.67	2.44669e-06
2336.35	1.74077e-06
2345.03	1.27149e-06
2353.71	6.53725e-07
2362.39	5.08998e-07
2371.06	6.16203e-07
2379.74	1.08919e-06
2388.42	1.08933e-06
2397.1	1.25273e-06
2405.78	1.06352e-06
2414.46	1.25885e-06
2423.13	1.16643e-06
2431.81	1.39905e-06
2440.49	1.30696e-06
2449.17	1.48213e-06
2457.85	1.30579e-06
2466.52	1.33196e-06
2475.2	1.38484e-06
2483.88	1.76729e-06
2492.56	1.86777e-06
2501.24	2.15653e-06
2509.92	2.05174e-06
2518.59	1.97261e-06
2527.27	1.6512e-06
2535.95	1.80792e-06
2544.63	1.38368e-06
2553.31	1.42617e-06
2561.98	1.27887e-06
2570.66	1.57169e-06
2579.34	1.7577e-06
2588.02	2.35205e-06
2596.7	2.77107e-06
2605.38	3.98213e-06
2614.05	4.06235e-06
2622.73	5.22785e-06
2631.41	6.42154e-06
2640.09	8.66315e-06
2648.77	8.38372e-06
2657.44	8.92113e-06
2666.12	9.80878e-06
2674.8	7.2755e-06
2683.48	6.27487e-06
2692.16	5.32298e-06
2700.83	4.61105e-06
2709.51	5.07457e-06
2718.19	5.75593e-06
2726.87	6.50301e-06
2735.55	7.13137e-06
2744.23	7.25149e-06
2752.9	6.93693e-06
2761.58	8.0119e-06
2770.26	8.83365e-06
2778.94	9.49531e-06
2787.62	1.0492e-05
2796.29	1.21319e-05
2804.97	1.24832e-05
2813.65	1.49282e-05
2822.33	1.7332e-05
2831.01	2.01759e-05
2839.69	2.17405e-05
2848.36	3.22888e-05
2857.04	4.72583e-05
2865.72	7.68023e-05
2874.4	9.97308e-05
2883.08	0.000165537
2891.75	0.000154505
2900.43	0.000133281
2909.11	0.000119698
2917.79	0.000106658
2926.47	0.000106402
2935.14	0.000114636
2943.82	0.000134639
2952.5	0.000202784
2961.18	0.000270185
2969.86	0.000413739
2978.54	0.000468108
2987.21	0.000316721
2995.89	0.000257145
3004.57	0.000139788
3013.25	4.06728e-05
3021.93	9.14772e-06
3030.6	3.79246e-06
3039.28	1.72634e-06
3047.96	1.74043e-06
3056.64	9.68515e-07
3065.32	1.39524e-06
3074	9.57772e-07
3082.67	1.40928e-06
3091.35	1.09843e-06
3100.03	1.52961e-06
3108.71	1.34444e-06
3117.39	1.72427e-06
3126.06	1.58913e-06
3134.74	1.89929e-06
3143.42	1.88941e-06
3152.1	2.39266e-06
3160.78	2.80435e-06
3169.46	3.85945e-06
3178.13	4.55296e-06
3186.81	5.22858e-06
3195.49	5.03179e-06
3204.17	4.94369e-06
3212.85	4.42425e-06
3221.52	4.14043e-06
3230.2	3.48541e-06
3238.88	2.95119e-06
3247.56	2.12413e-06
3256.24	1.26456e-06
3264.91	6.6638e-07
3273.59	5.26701e-07
3282.27	2.71129e-07
3290.95	3.13754e-07
3299.63	3.38874e-07
3308.31	5.44583e-07
3316.98	8.78813e-07
3325.66	1.27317e-06
3334.34	1.6571e-06
3343.02	1.87913e-06
3351.7	1.74518e-06
3360.37	1.66311e-06
3369.05	1.40861e-06
3377.73	1.32542e-06
3386.41	1.34297e-06
3395.09	1.6744e-06
3403.77	1.8007e-06
3412.44	2.05379e-06
3421.12	2.40001e-06
3429.8	2.41013e-06
3438.48	2.51132e-06
3447.16	2.66989e-06
3455.83	2.48374e-06
3464.51	2.50234e-06
3473.19	2.03823e-06
3481.87	1.70314e-06
3490.55	1.20091e-06
3499.22	1.08921e-06
3507.9	7.74534e-07
3516.58	8.3049e-07
3525.26	8.02204e-07
3533.94	1.13564e-06
3542.62	1.19198e-06
3551.29	1.17515e-06
3559.97	9.09951e-07
3568.65	1.08776e-06
3577.33	8.59409e-07
3586.01	1.23077e-06
3594.68	1.40913e-06
3603.36	2.27661e-06
3612.04	4.33053e-06
3620.72	8.43131e-06
3629.4	1.31056e-05
3638.08	2.69248e-05
3646.75	4.89393e-05
3655.43	5.48112e-05
3664.11	4.89553e-05
3672.79	4.13333e-05
3681.47	1.93235e-05
3690.14	5.81147e-06
3698.82	2.68343e-06
3707.5	1.66535e-06
3716.18	1.54775e-06
3724.86	1.16357e-06
3733.54	1.15941e-06
3742.21	1.08597e-06
3750.89	1.0361e-06
3759.57	9.30002e-07
3768.25	1.21431e-06
3776.93	1.43989e-06
3785.6	2.05594e-06
3794.28	2.16932e-06
3802.96	2.47326e-06
3811.64	2.60989e-06
3820.32	2.81929e-06
3828.99	2.69469e-06
3837.67	2.69449e-06
3846.35	2.27134e-06
3855.03	2.35231e-06
3863.71	2.1705e-06
3872.39	2.19714e-06
3881.06	2.17342e-06
3889.74	2.17008e-06
3898.42	2.22587e-06
3907.1	1.88868e-06
3915.78	1.62344e-06
3924.45	1.44071e-06
3933.13	1.36013e-06
3941.81	1.15581e-06
3950.49	9.22304e-07
3959.17	9.3859e-07
3967.85	7.42262e-07
