Infrared Spectrum: Chloroform
Formula: C H Cl3
CAS: 67-66-3
State: gas
Melting point: -63.5 C
Boiling point: 61.7 C
Class: IUPAC A
Instrument: IFS66V (Bruker)
Instrument parameters: KBr Beam Splitter; MCT Detector; Multipass cell
Sampling: 1 L/min Flow
Resolution: 0.4820
Temperature: 23 C
Pressure: 101.3 Pa
Origin: NIST, Analytical Chemistry Division, 301-975-3108
cm-1	(micromol/mol)-1m-1 (base 10)
575.17	-3.76575e-06
583.848	-1.12129e-06
592.526	-6.74987e-07
601.205	-1.59591e-07
609.883	9.89956e-07
618.561	1.39584e-06
627.239	5.73106e-06
635.917	1.89694e-06
644.595	7.7699e-07
653.274	8.15883e-07
661.952	3.60042e-06
670.63	2.29576e-05
679.308	1.82723e-05
687.986	3.89296e-05
696.664	3.22273e-06
705.343	-2.0059e-07
714.021	3.94934e-07
722.699	7.48665e-07
731.377	4.73405e-06
740.055	2.30265e-05
748.734	9.81412e-05
757.412	0.000363813
766.09	0.00161525
774.768	0.00256355
783.446	0.000552983
792.124	8.67515e-05
800.803	1.50469e-05
809.481	1.88556e-06
818.159	2.13916e-07
826.837	5.72515e-07
835.515	7.34696e-07
844.193	2.24754e-06
852.872	4.52151e-06
861.55	2.10852e-06
870.228	5.1083e-07
878.906	4.68871e-07
887.584	8.09506e-08
896.263	1.12677e-07
904.941	7.65058e-07
913.619	2.40492e-06
922.297	4.42767e-06
930.975	7.3707e-06
939.653	2.94505e-06
948.332	2.37664e-06
957.01	5.08142e-07
965.688	9.20061e-08
974.366	-3.17734e-08
983.044	-1.14346e-07
991.723	-9.45781e-08
1000.4	-7.03788e-08
1009.08	1.7642e-07
1017.76	1.22762e-06
1026.44	2.05795e-06
1035.11	2.08718e-06
1043.79	5.01135e-07
1052.47	-2.22243e-07
1061.15	-1.59922e-07
1069.83	3.0307e-07
1078.5	-1.17082e-07
1087.18	-2.05214e-07
1095.86	-2.13403e-07
1104.54	-1.37862e-07
1113.22	-1.82804e-07
1121.9	-3.00018e-07
1130.57	-9.79359e-08
1139.25	-3.655e-07
1147.93	-2.0994e-07
1156.61	-4.5867e-07
1165.29	-4.36668e-07
1173.96	1.78075e-08
1182.64	6.51173e-07
1191.32	2.75663e-06
1200	1.12387e-05
1208.68	7.51636e-05
1217.36	0.000426025
1226.03	0.000177962
1234.71	2.8419e-05
1243.39	4.4498e-06
1252.07	4.7408e-07
1260.75	-1.08489e-07
1269.42	-1.97218e-07
1278.1	-4.24728e-07
1286.78	-3.28721e-07
1295.46	-3.09593e-07
1304.14	-3.56041e-07
1312.82	-1.81164e-07
1321.49	-2.19023e-07
1330.17	1.40423e-08
1338.85	-2.7747e-07
1347.53	-2.17339e-07
1356.21	-2.82763e-07
1364.88	-6.20593e-07
1373.56	-9.60839e-07
1382.24	-1.11451e-07
1390.92	-1.38917e-07
1399.6	-2.37893e-07
1408.28	-1.55302e-08
1416.95	2.19824e-07
1425.63	1.19501e-06
1434.31	4.40245e-06
1442.99	8.84459e-06
1451.67	4.25535e-06
1460.34	3.24981e-07
1469.02	1.18035e-06
1477.7	1.37635e-06
1486.38	1.26438e-06
1495.06	2.51666e-07
1503.73	2.10736e-07
1512.41	-3.25014e-07
1521.09	-1.9223e-06
1529.77	4.5096e-06
1538.45	4.87984e-06
1547.13	7.42075e-06
1555.8	4.52629e-06
1564.48	2.6281e-06
1573.16	3.1326e-07
1581.84	-1.45989e-07
1590.52	-1.32641e-07
1599.19	-2.56607e-07
1607.87	-2.3121e-07
1616.55	-5.66096e-06
1625.23	-2.51521e-07
1633.91	-3.66755e-07
1642.59	-3.37004e-07
1651.26	-5.2711e-07
1659.94	-3.10731e-07
1668.62	-5.65635e-07
1677.3	-2.24371e-07
1685.98	-3.83518e-07
1694.65	-3.36066e-07
1703.33	-3.35618e-07
1712.01	-3.01949e-07
1720.69	-1.87847e-07
1729.37	-3.42479e-07
1738.05	-1.19305e-07
1746.72	-3.97924e-07
1755.4	-3.5205e-07
1764.08	-2.30974e-07
1772.76	-4.4064e-06
1781.44	-1.13804e-07
1790.11	-9.87035e-08
1798.79	-3.73394e-08
1807.47	4.71472e-08
1816.15	3.68628e-07
1824.83	5.76425e-08
1833.51	8.42203e-07
1842.18	1.49951e-07
1850.86	1.3875e-08
1859.54	-1.78017e-07
1868.22	-3.85395e-07
1876.9	-2.24036e-07
1885.57	-3.51803e-07
1894.25	-6.62789e-08
1902.93	-2.34561e-07
1911.61	-2.62034e-07
1920.29	-2.77208e-07
1928.97	-2.47526e-07
1937.64	-2.40447e-07
1946.32	-3.36462e-07
1955	-2.8153e-07
1963.68	-1.74459e-07
1972.36	-1.91572e-08
1981.03	-9.6659e-09
1989.71	-4.63214e-08
1998.39	-8.96961e-08
2007.07	-1.30193e-07
2015.75	-2.30868e-07
2024.43	-2.82381e-07
2033.1	-2.68979e-07
2041.78	-3.20961e-07
2050.46	-2.47927e-07
2059.14	-2.08717e-07
2067.82	-4.1448e-07
2076.49	-3.74696e-07
2085.17	-3.14627e-07
2093.85	-2.70667e-07
2102.53	-3.25887e-07
2111.21	-4.73473e-07
2119.89	-3.57849e-07
2128.56	-9.09657e-08
2137.24	-1.95599e-07
2145.92	-2.25026e-07
2154.6	-4.96217e-07
2163.28	-2.07295e-07
2171.95	-2.61485e-07
2180.63	-1.42013e-07
2189.31	-4.11774e-08
2197.99	-1.32467e-07
2206.67	2.62944e-07
2215.35	1.99612e-07
2224.02	1.1714e-08
2232.7	1.03855e-07
2241.38	6.28775e-08
2250.06	-1.77446e-07
2258.74	-1.77613e-07
2267.41	-1.12884e-08
2276.09	9.77067e-08
2284.77	1.13812e-07
2293.45	2.41778e-07
2302.13	-3.10022e-08
2310.81	5.62165e-08
2319.48	4.76107e-07
2328.16	2.90181e-07
2336.84	2.11962e-07
2345.52	4.67812e-07
2354.2	2.10267e-06
2362.87	4.47697e-06
2371.55	1.75449e-06
2380.23	5.34844e-08
2388.91	4.72178e-07
2397.59	2.19344e-06
2406.27	1.48153e-06
2414.94	1.83746e-06
2423.62	2.21212e-06
2432.3	5.75752e-07
2440.98	1.24876e-06
2449.66	6.42642e-07
2458.33	7.33623e-07
2467.01	2.15407e-07
2475.69	-1.14368e-07
2484.37	-3.9082e-07
2493.05	-2.81101e-07
2501.73	-1.38961e-07
2510.4	-3.43385e-07
2519.08	-1.83179e-07
2527.76	-3.22398e-07
2536.44	-3.46168e-07
2545.12	-4.55381e-07
2553.79	-3.23162e-07
2562.47	-2.23855e-07
2571.15	-3.66649e-07
2579.83	-3.49973e-07
2588.51	-2.07862e-07
2597.19	-1.66692e-07
2605.86	-3.40133e-07
2614.54	-7.12701e-08
2623.22	-3.16268e-07
2631.9	-2.65992e-07
2640.58	-2.86124e-07
2649.25	-4.54225e-07
2657.93	-2.72853e-07
2666.61	-2.98461e-07
2675.29	-3.22078e-07
2683.97	-2.02984e-07
2692.65	-3.99132e-07
2701.32	-2.4211e-07
2710	-9.94093e-08
2718.68	-3.17672e-07
2727.36	-3.12175e-07
2736.04	-1.81138e-07
2744.71	-3.59246e-07
2753.39	-1.87257e-07
2762.07	-4.4457e-07
2770.75	-3.61414e-07
2779.43	-3.78087e-07
2788.11	-3.09e-07
2796.78	-3.35342e-07
2805.46	-6.21026e-08
2814.14	-5.62918e-07
2822.82	-3.28157e-07
2831.5	1.95355e-09
2840.17	-2.35041e-07
2848.85	-3.23082e-07
2857.53	-3.77363e-07
2866.21	-4.15274e-07
2874.89	-5.61714e-07
2883.57	-2.74792e-07
2892.24	-3.7991e-07
2900.92	-2.75935e-07
2909.6	-5.16025e-07
2918.28	-3.75177e-07
2926.96	-3.53662e-07
2935.63	-5.47639e-07
2944.31	-2.43285e-07
2952.99	-4.6476e-07
2961.67	-8.13027e-07
2970.35	-7.01296e-07
2979.03	-5.38598e-07
2987.7	-1.96599e-07
2996.38	-6.24296e-07
3005.06	-2.38235e-07
3013.74	-9.01799e-08
3022.42	6.29469e-07
3031.09	-2.75149e-07
3039.77	7.34914e-07
3048.45	7.1683e-07
3057.13	-3.89841e-07
3065.81	-3.33723e-07
3074.49	-2.71315e-08
3083.16	-3.14624e-07
3091.84	-3.78713e-07
3100.52	-1.80829e-07
3109.2	-6.59224e-08
3117.88	-6.77959e-08
3126.55	9.31921e-08
3135.23	-9.41634e-08
3143.91	2.95325e-08
3152.59	-3.54695e-08
3161.27	3.55397e-07
3169.95	1.00522e-07
3178.62	1.61981e-07
3187.3	5.9647e-08
3195.98	2.50651e-08
3204.66	3.17214e-07
3213.34	1.12975e-07
3222.01	3.89244e-07
3230.69	3.48929e-07
3239.37	3.41599e-08
3248.05	9.95111e-08
3256.73	2.1643e-07
3265.4	-3.97513e-08
3274.08	1.4114e-07
3282.76	6.53367e-08
3291.44	-2.77852e-07
3300.12	-1.45334e-07
3308.8	1.87945e-07
3317.47	-2.1874e-07
3326.15	-2.762e-07
3334.83	-8.69094e-08
3343.51	1.22277e-07
3352.19	-2.17164e-07
3360.86	-3.02539e-07
3369.54	8.70258e-08
3378.22	-3.49497e-07
3386.9	-5.13708e-08
3395.58	-4.31855e-08
3404.26	-2.41236e-07
3412.93	5.34971e-07
3421.61	-2.21614e-07
3430.29	-6.48525e-07
3438.97	-4.13713e-07
3447.65	-6.67813e-07
3456.32	-1.40165e-07
3465	-3.80677e-07
3473.68	-1.1304e-07
3482.36	-2.19893e-07
3491.04	-5.89711e-07
3499.72	-3.95756e-07
3508.39	-5.05654e-07
3517.07	-4.12196e-07
3525.75	-5.96823e-07
3534.43	-3.69094e-07
3543.11	-6.86919e-07
3551.78	-4.20308e-07
3560.46	-2.36005e-07
3569.14	-3.22835e-07
3577.82	-5.08466e-07
3586.5	-1.5964e-06
3595.18	-6.50238e-07
3603.85	-4.54592e-07
3612.53	-1.85398e-06
3621.21	-7.75437e-07
3629.89	-2.17002e-06
3638.57	-3.94232e-07
3647.24	-1.97718e-06
3655.92	-1.17979e-06
3664.6	-6.26181e-07
3673.28	-5.72547e-07
3681.96	-3.43189e-07
3690.64	-3.84279e-07
3699.31	-5.74752e-08
3707.99	-3.24846e-07
3716.67	3.48351e-07
3725.35	-4.59871e-07
3734.03	-7.13232e-07
3742.7	-7.20337e-07
3751.38	-1.12054e-06
3760.06	-1.68019e-06
3768.74	-5.62678e-07
3777.42	-4.81756e-07
3786.1	-5.51426e-07
3794.77	-5.66821e-07
3803.45	-2.33673e-07
3812.13	-2.82112e-07
3820.81	-2.83103e-06
3829.49	-3.33763e-07
3838.16	-3.46287e-06
3846.84	-6.43108e-07
3855.52	-5.52914e-07
3864.2	-8.6801e-07
3872.88	-7.10369e-07
3881.56	-6.47761e-07
3890.23	-5.21973e-07
3898.91	-1.01876e-06
3907.59	-4.33292e-07
3916.27	-7.36074e-07
3924.95	-5.26804e-07
3933.62	-4.04549e-07
3942.3	-6.91397e-07
3950.98	-6.31183e-07
3959.66	-7.94896e-07
3968.34	-5.07367e-07
