Infrared Spectrum: 2-Propanol
Formula: C H3 C H( O H) C H3
CAS: 67-63-0
State: gas
Melting point: -89.5 C
Boiling point: 82.4 C
Class: IUPAC A
Instrument: IFS66V (Bruker)
Instrument parameters: KBr Beam splitter; MCT Detector; Multipass cell
Sampling: 1 L/min Flow
Resolution: 0.4820
Temperature: 23 C
Pressure: 101.3 kPa
Origin: NIST, Anayltical Chemistry Division, 301-975-3108
cm-1	(micromol/mol)-1m-1 (base 10)
574.928	2.63201e-06
583.606	2.86299e-06
592.284	3.20844e-06
600.962	3.75929e-06
609.641	4.04161e-06
618.319	4.00042e-06
626.997	4.24028e-06
635.675	4.18563e-06
644.353	4.07658e-06
653.031	3.93074e-06
661.71	3.44901e-06
670.388	3.20154e-06
679.066	2.83097e-06
687.744	2.94297e-06
696.422	2.66834e-06
705.1	2.65852e-06
713.778	2.25748e-06
722.457	2.20392e-06
731.135	1.81463e-06
739.813	1.52699e-06
748.491	1.12167e-06
757.169	1.12861e-06
765.847	1.06394e-06
774.526	1.22057e-06
783.204	2.54461e-06
791.882	8.26848e-06
800.56	1.96022e-05
809.238	2.48124e-05
817.916	2.74454e-05
826.594	2.59605e-05
835.273	1.75858e-05
843.951	5.77317e-06
852.629	2.63713e-06
861.307	1.65285e-06
869.985	1.5029e-06
878.663	1.45337e-06
887.342	1.78879e-06
896.02	2.53793e-06
904.698	4.37296e-06
913.376	8.72119e-06
922.054	2.16311e-05
930.732	5.97944e-05
939.41	0.000124343
948.089	0.000147195
956.767	0.000182095
965.445	0.000148828
974.123	8.25939e-05
982.801	2.07842e-05
991.479	8.03401e-06
1000.16	5.59251e-06
1008.84	5.21389e-06
1017.51	5.24248e-06
1026.19	7.09797e-06
1034.87	1.1653e-05
1043.55	2.48835e-05
1052.23	5.54298e-05
1060.9	9.25544e-05
1069.58	0.000127494
1078.26	0.000126806
1086.94	0.000117341
1095.62	8.66525e-05
1104.3	6.21048e-05
1112.97	6.89849e-05
1121.65	9.12179e-05
1130.33	0.000115666
1139.01	0.000141895
1147.69	0.000172458
1156.36	0.000176362
1165.04	0.000150648
1173.72	0.0001106
1182.4	7.2269e-05
1191.08	3.57817e-05
1199.76	2.15027e-05
1208.43	1.90773e-05
1217.11	2.57798e-05
1225.79	4.65075e-05
1234.47	8.0815e-05
1243.15	9.75737e-05
1251.82	0.000125701
1260.5	9.79419e-05
1269.18	7.41738e-05
1277.86	3.78272e-05
1286.54	2.20086e-05
1295.21	1.58792e-05
1303.89	1.50766e-05
1312.57	1.7121e-05
1321.25	2.33232e-05
1329.93	3.43054e-05
1338.61	4.47525e-05
1347.28	5.58714e-05
1355.96	7.10752e-05
1364.64	9.33554e-05
1373.32	0.000148547
1382	0.000204042
1390.67	0.000180145
1399.35	0.000134646
1408.03	6.71723e-05
1416.71	3.47933e-05
1425.39	2.29533e-05
1434.07	2.24758e-05
1442.74	2.7862e-05
1451.42	3.45057e-05
1460.1	5.49528e-05
1468.78	3.55049e-05
1477.46	3.42005e-05
1486.13	2.80335e-05
1494.81	1.88649e-05
1503.49	9.10596e-06
1512.17	4.60315e-06
1520.85	2.73829e-06
1529.52	2.03303e-06
1538.2	1.62452e-06
1546.88	1.47299e-06
1555.56	1.26495e-06
1564.24	1.11745e-06
1572.92	1.06319e-06
1581.59	1.01564e-06
1590.27	9.70679e-07
1598.95	9.8044e-07
1607.63	9.24418e-07
1616.31	9.02229e-07
1624.98	9.42154e-07
1633.66	1.1181e-06
1642.34	1.20736e-06
1651.02	1.44116e-06
1659.7	1.60067e-06
1668.38	1.7562e-06
1677.05	1.66111e-06
1685.73	1.59449e-06
1694.41	1.5452e-06
1703.09	1.52621e-06
1711.77	1.68489e-06
1720.44	1.8306e-06
1729.12	1.8484e-06
1737.8	2.17604e-06
1746.48	2.96037e-06
1755.16	3.81885e-06
1763.84	3.89311e-06
1772.51	4.12213e-06
1781.19	3.36185e-06
1789.87	1.56051e-06
1798.55	6.71013e-07
1807.23	5.25389e-07
1815.9	5.9889e-07
1824.58	6.4849e-07
1833.26	7.36478e-07
1841.94	6.33412e-07
1850.62	6.03153e-07
1859.29	8.41529e-07
1867.97	9.88597e-07
1876.65	1.42403e-06
1885.33	1.89993e-06
1894.01	2.28876e-06
1902.69	2.38953e-06
1911.36	1.91294e-06
1920.04	1.50487e-06
1928.72	5.7461e-07
1937.4	2.56376e-07
1946.08	2.46013e-07
1954.75	3.23115e-07
1963.43	4.28069e-07
1972.11	4.3957e-07
1980.79	5.41253e-07
1989.47	4.87686e-07
1998.15	5.20631e-07
2006.82	5.87417e-07
2015.5	6.73179e-07
2024.18	7.57628e-07
2032.86	7.93723e-07
2041.54	7.61236e-07
2050.21	7.34029e-07
2058.89	8.73244e-07
2067.57	1.09947e-06
2076.25	1.25963e-06
2084.93	1.32327e-06
2093.6	1.22067e-06
2102.28	1.03725e-06
2110.96	8.73334e-07
2119.64	1.38942e-06
2128.32	7.6758e-07
2137	1.04858e-06
2145.67	9.64427e-07
2154.35	1.31649e-06
2163.03	1.46207e-06
2171.71	1.44025e-06
2180.39	1.51826e-06
2189.06	1.66984e-06
2197.74	1.72539e-06
2206.42	1.58418e-06
2215.1	9.88778e-07
2223.78	5.33158e-07
2232.46	3.94963e-07
2241.13	4.15701e-07
2249.81	4.45084e-07
2258.49	5.83139e-07
2267.17	7.10553e-07
2275.85	9.1695e-07
2284.52	1.32594e-06
2293.2	1.71971e-06
2301.88	2.24076e-06
2310.56	2.58651e-06
2319.24	2.25758e-06
2327.92	2.47556e-06
2336.59	1.91056e-06
2345.27	1.32915e-06
2353.95	8.9872e-07
2362.63	1.20185e-07
2371.31	4.47273e-07
2379.98	1.06225e-06
2388.66	1.15663e-06
2397.34	1.18852e-06
2406.02	1.14417e-06
2414.7	1.16459e-06
2423.37	1.21327e-06
2432.05	1.38127e-06
2440.73	1.33508e-06
2449.41	1.42169e-06
2458.09	1.3365e-06
2466.77	1.26431e-06
2475.44	1.45037e-06
2484.12	1.72408e-06
2492.8	1.95082e-06
2501.48	2.1023e-06
2510.16	2.11539e-06
2518.83	1.9072e-06
2527.51	1.7022e-06
2536.19	1.73194e-06
2544.87	1.47288e-06
2553.55	1.35001e-06
2562.23	1.35075e-06
2570.9	1.51776e-06
2579.58	1.86938e-06
2588.26	2.27249e-06
2596.94	2.88824e-06
2605.62	3.99401e-06
2614.29	4.16975e-06
2622.97	5.17922e-06
2631.65	6.51239e-06
2640.33	8.58895e-06
2649.01	8.46321e-06
2657.68	8.81719e-06
2666.36	9.88405e-06
2675.04	7.09473e-06
2683.72	6.30867e-06
2692.4	5.20057e-06
2701.08	4.76146e-06
2709.75	5.03061e-06
2718.43	5.88525e-06
2727.11	6.40422e-06
2735.79	7.27975e-06
2744.47	7.12932e-06
2753.14	7.10312e-06
2761.82	7.89928e-06
2770.5	9.01866e-06
2779.18	9.40889e-06
2787.86	1.07074e-05
2796.54	1.19935e-05
2805.21	1.26192e-05
2813.89	1.48728e-05
2822.57	1.75536e-05
2831.25	1.99968e-05
2839.93	2.20666e-05
2848.6	3.25624e-05
2857.28	4.81284e-05
2865.96	7.74153e-05
2874.64	0.00010044
2883.32	0.000165554
2892	0.000153606
2900.67	0.00013294
2909.35	0.00011931
2918.03	0.000105748
2926.71	0.000107596
2935.39	0.000114211
2944.06	0.000136621
2952.74	0.000203952
2961.42	0.000274332
2970.1	0.000429873
2978.78	0.00048384
2987.45	0.000313122
2996.13	0.000254016
3004.81	0.000137048
3013.49	3.8494e-05
3022.17	9.25126e-06
3030.85	3.30411e-06
3039.52	2.01352e-06
3048.2	1.56046e-06
3056.88	1.22186e-06
3065.56	1.20223e-06
3074.24	1.11811e-06
3082.91	1.30247e-06
3091.59	1.18878e-06
3100.27	1.41947e-06
3108.95	1.54011e-06
3117.63	1.60778e-06
3126.31	1.72524e-06
3134.98	1.88235e-06
3143.66	1.95523e-06
3152.34	2.27495e-06
3161.02	2.92668e-06
3169.7	3.73576e-06
3178.37	4.64096e-06
3187.05	5.17008e-06
3195.73	5.18671e-06
3204.41	4.82794e-06
3213.09	4.54278e-06
3221.77	4.08761e-06
3230.44	3.54997e-06
3239.12	2.88614e-06
3247.8	2.17691e-06
3256.48	1.23265e-06
3265.16	6.6186e-07
3273.83	4.83657e-07
3282.51	2.59191e-07
3291.19	3.24404e-07
3299.87	4.49224e-07
3308.55	5.46722e-07
3317.22	9.69425e-07
3325.9	1.15568e-06
3334.58	1.8103e-06
3343.26	1.88154e-06
3351.94	1.74552e-06
3360.62	1.55588e-06
3369.29	1.55261e-06
3377.97	1.17672e-06
3386.65	1.40421e-06
3395.33	1.67662e-06
3404.01	1.82861e-06
3412.68	1.99033e-06
3421.36	2.48056e-06
3430.04	2.37214e-06
3438.72	2.5418e-06
3447.4	2.67185e-06
3456.08	2.62482e-06
3464.75	2.48964e-06
3473.43	2.13181e-06
3482.11	1.60366e-06
3490.79	1.181e-06
3499.47	1.03529e-06
3508.14	8.43317e-07
3516.82	8.04039e-07
3525.5	8.39715e-07
3534.18	1.1084e-06
3542.86	1.30123e-06
3551.53	1.20649e-06
3560.21	9.8036e-07
3568.89	1.08256e-06
3577.57	9.15442e-07
3586.25	1.06672e-06
3594.93	1.58696e-06
3603.6	2.15036e-06
3612.28	4.56474e-06
3620.96	8.27753e-06
3629.64	1.34387e-05
3638.32	3.0639e-05
3646.99	4.8563e-05
3655.67	5.56742e-05
3664.35	4.83871e-05
3673.03	4.10585e-05
3681.71	1.86322e-05
3690.39	5.77493e-06
3699.06	2.4342e-06
3707.74	1.69168e-06
3716.42	1.45765e-06
3725.1	1.33604e-06
3733.78	1.16971e-06
3742.45	1.12593e-06
3751.13	9.99875e-07
3759.81	1.04382e-06
3768.49	1.1219e-06
3777.17	1.44206e-06
3785.85	2.07613e-06
3794.52	2.29289e-06
3803.2	2.44306e-06
3811.88	2.70332e-06
3820.56	2.77916e-06
3829.24	2.7251e-06
3837.91	2.88356e-06
3846.59	2.37033e-06
3855.27	2.17453e-06
3863.95	2.25465e-06
3872.63	2.15211e-06
3881.3	2.15215e-06
3889.98	2.11538e-06
3898.66	2.29942e-06
3907.34	1.89474e-06
3916.02	1.76837e-06
3924.7	1.32922e-06
3933.37	1.39452e-06
3942.05	1.09403e-06
3950.73	9.62086e-07
3959.41	8.4758e-07
3968.09	7.73281e-07
