Infrared Spectrum: 2-Propanol
Formula: C H3 C H( O H) C H3
CAS: 67-63-0
State: gas
Melting point: -89.5 C
Boiling point: 82.4 C
Class: IUPAC A
Instrument: IFS66V (Bruker)
Instrument parameters: KBr Beam splitter; MCT Detector; Multipass cell
Sampling: 1 L/min Flow
Resolution: 0.2410
Temperature: 23 C
Pressure: 101.3 kPa
Origin: NIST, Anayltical Chemistry Division, 301-975-3108
cm-1	(micromol/mol)-1m-1 (base 10)
575.048	2.34203e-06
583.606	2.92888e-06
592.163	3.31748e-06
600.721	3.44419e-06
609.279	3.88909e-06
617.836	3.9754e-06
626.394	4.28449e-06
634.951	4.07146e-06
643.509	4.22692e-06
652.067	3.70472e-06
660.624	3.4644e-06
669.182	3.13423e-06
677.74	3.1689e-06
686.297	2.88642e-06
694.855	2.60607e-06
703.412	2.76382e-06
711.97	2.5199e-06
720.528	2.32264e-06
729.085	1.88925e-06
737.643	1.57209e-06
746.201	1.35815e-06
754.758	1.12403e-06
763.316	1.13713e-06
771.873	1.08318e-06
780.431	2.08809e-06
788.989	5.44577e-06
797.546	1.54769e-05
806.104	2.39e-05
814.662	2.88134e-05
823.219	2.48354e-05
831.777	2.35444e-05
840.334	9.27417e-06
848.892	3.4152e-06
857.45	1.95188e-06
866.007	1.61493e-06
874.565	1.48753e-06
883.123	1.54371e-06
891.68	2.08108e-06
900.238	3.26447e-06
908.795	5.91336e-06
917.353	1.29934e-05
925.911	3.40936e-05
934.468	8.75591e-05
943.026	0.000138455
951.584	0.000166562
960.141	0.00014466
968.699	0.000138479
977.256	5.16936e-05
985.814	1.36749e-05
994.372	6.77192e-06
1002.93	5.41431e-06
1011.49	5.12912e-06
1020.04	5.73705e-06
1028.6	7.88777e-06
1037.16	1.39518e-05
1045.72	3.14085e-05
1054.28	6.43604e-05
1062.83	9.66801e-05
1071.39	0.000137966
1079.95	0.000124834
1088.51	0.000116124
1097.06	8.05117e-05
1105.62	6.12816e-05
1114.18	7.16953e-05
1122.74	9.41993e-05
1131.29	0.000120168
1139.85	0.000144149
1148.41	0.000175755
1156.97	0.000174556
1165.52	0.00014665
1174.08	0.000109176
1182.64	7.12929e-05
1191.2	3.55076e-05
1199.75	2.15052e-05
1208.31	1.9041e-05
1216.87	2.55123e-05
1225.43	4.51428e-05
1233.99	7.90369e-05
1242.54	9.88034e-05
1251.1	0.000126252
1259.66	9.80308e-05
1268.22	7.89199e-05
1276.77	4.14254e-05
1285.33	2.34654e-05
1293.89	1.64211e-05
1302.45	1.50629e-05
1311	1.65178e-05
1319.56	2.16599e-05
1328.12	3.16281e-05
1336.68	4.23764e-05
1345.23	4.99178e-05
1353.79	6.52457e-05
1362.35	8.55589e-05
1370.91	0.000130998
1379.46	0.00018933
1388.02	0.000185245
1396.58	0.000158684
1405.14	8.2992e-05
1413.7	4.35084e-05
1422.25	2.53673e-05
1430.81	2.14468e-05
1439.37	2.54789e-05
1447.93	3.16638e-05
1456.48	4.41277e-05
1465.04	4.5195e-05
1473.6	7.81843e-05
1482.16	2.96896e-05
1490.71	2.41651e-05
1499.27	1.34372e-05
1507.83	6.25343e-06
1516.39	3.47313e-06
1524.94	2.32915e-06
1533.5	1.85555e-06
1542.06	1.73498e-06
1550.62	1.32397e-06
1559.18	1.23267e-06
1567.73	1.07894e-06
1576.29	1.36341e-06
1584.85	1.00436e-06
1593.41	1.00061e-06
1601.96	9.22639e-07
1610.52	8.99954e-07
1619.08	9.35682e-07
1627.64	1.01738e-06
1636.19	1.11805e-06
1644.75	1.31618e-06
1653.31	1.89145e-06
1661.87	1.64298e-06
1670.42	1.69403e-06
1678.98	1.65987e-06
1687.54	1.59598e-06
1696.1	1.79041e-06
1704.65	1.60007e-06
1713.21	1.67493e-06
1721.77	1.83159e-06
1730.33	1.961e-06
1738.89	2.23721e-06
1747.44	3.04285e-06
1756	3.83036e-06
1764.56	3.93405e-06
1773.12	3.78035e-06
1781.67	3.29859e-06
1790.23	1.51706e-06
1798.79	6.28117e-07
1807.35	5.26585e-07
1815.9	5.98964e-07
1824.46	6.50277e-07
1833.02	7.25137e-07
1841.58	6.48202e-07
1850.13	5.85191e-07
1858.69	8.66564e-07
1867.25	9.39864e-07
1875.81	1.38659e-06
1884.36	1.81e-06
1892.92	2.24663e-06
1901.48	2.38161e-06
1910.04	2.05362e-06
1918.6	1.58826e-06
1927.15	6.80353e-07
1935.71	2.89596e-07
1944.27	2.17861e-07
1952.83	2.92751e-07
1961.38	3.76115e-07
1969.94	4.16455e-07
1978.5	5.38629e-07
1987.06	5.38259e-07
1995.61	5.17506e-07
2004.17	5.32104e-07
2012.73	6.33914e-07
2021.29	7.24745e-07
2029.84	7.76731e-07
2038.4	8.06385e-07
2046.96	7.15225e-07
2055.52	8.08944e-07
2064.08	1.00122e-06
2072.63	1.23089e-06
2081.19	1.33169e-06
2089.75	1.26695e-06
2098.31	1.13746e-06
2106.86	8.8146e-07
2115.42	9.45243e-07
2123.98	8.27126e-07
2132.54	7.7405e-07
2141.09	9.68858e-07
2149.65	1.12536e-06
2158.21	1.69383e-06
2166.77	1.4075e-06
2175.32	1.38365e-06
2183.88	1.55194e-06
2192.44	1.74434e-06
2201	1.52451e-06
2209.55	1.40138e-06
2218.11	7.56709e-07
2226.67	4.63698e-07
2235.23	3.93626e-07
2243.79	3.86343e-07
2252.34	4.86826e-07
2260.9	5.69498e-07
2269.46	7.88789e-07
2278.02	1.08777e-06
2286.57	1.43278e-06
2295.13	1.91021e-06
2303.69	2.29521e-06
2312.25	2.70384e-06
2320.8	2.59087e-06
2329.36	2.43335e-06
2337.92	1.70842e-06
2346.48	1.21896e-06
2355.03	8.49913e-07
2363.59	7.57099e-07
2372.15	8.73315e-07
2380.71	1.04345e-06
2389.26	1.18422e-06
2397.82	1.15903e-06
2406.38	1.11636e-06
2414.94	1.20392e-06
2423.5	1.24198e-06
2432.05	1.37186e-06
2440.61	1.32832e-06
2449.17	1.43897e-06
2457.73	1.36459e-06
2466.28	1.26974e-06
2474.84	1.44277e-06
2483.4	1.68325e-06
2491.96	1.90962e-06
2500.51	2.06653e-06
2509.07	2.10783e-06
2517.63	1.91511e-06
2526.19	1.68471e-06
2534.74	1.65483e-06
2543.3	1.42838e-06
2551.86	1.30897e-06
2560.42	1.32357e-06
2568.98	1.48706e-06
2577.53	1.76326e-06
2586.09	2.18577e-06
2594.65	2.66978e-06
2603.21	3.50438e-06
2611.76	3.99491e-06
2620.32	4.74582e-06
2628.88	6.70896e-06
2637.44	7.73939e-06
2645.99	8.42963e-06
2654.55	8.64174e-06
2663.11	9.32555e-06
2671.67	8.19568e-06
2680.22	6.767e-06
2688.78	5.63248e-06
2697.34	4.77802e-06
2705.9	4.6632e-06
2714.45	5.62178e-06
2723.01	6.24628e-06
2731.57	6.98496e-06
2740.13	7.1493e-06
2748.69	6.99016e-06
2757.24	7.38521e-06
2765.8	8.41142e-06
2774.36	8.89177e-06
2782.92	9.86926e-06
2791.47	1.10406e-05
2800.03	1.2156e-05
2808.59	1.32805e-05
2817.15	1.55248e-05
2825.7	1.79052e-05
2834.26	2.04104e-05
2842.82	2.37293e-05
2851.38	3.79757e-05
2859.93	5.6509e-05
2868.49	8.56647e-05
2877.05	0.000108274
2885.61	0.00015305
2894.16	0.000143634
2902.72	0.000131332
2911.28	0.000115327
2919.84	0.00010256
2928.4	0.000112172
2936.95	0.000118389
2945.51	0.000148391
2954.07	0.000215003
2962.63	0.00028396
2971.18	0.00046468
2979.74	0.00052278
2988.3	0.000307313
2996.86	0.000247348
3005.41	0.000127691
3013.97	3.54889e-05
3022.53	8.68147e-06
3031.09	3.2549e-06
3039.64	2.01324e-06
3048.2	1.52002e-06
3056.76	1.2077e-06
3065.32	1.18273e-06
3073.88	1.16351e-06
3082.43	1.21277e-06
3090.99	1.26371e-06
3099.55	1.37436e-06
3108.11	1.43153e-06
3116.66	1.57849e-06
3125.22	1.75844e-06
3133.78	1.85084e-06
3142.34	1.95e-06
3150.89	2.30791e-06
3159.45	2.83885e-06
3168.01	3.60381e-06
3176.57	4.4428e-06
3185.12	5.09223e-06
3193.68	5.09854e-06
3202.24	5.15343e-06
3210.8	4.49465e-06
3219.35	4.16645e-06
3227.91	3.74516e-06
3236.47	3.22902e-06
3245.03	2.36659e-06
3253.59	1.38085e-06
3262.14	8.71164e-07
3270.7	4.25484e-07
3279.26	3.48018e-07
3287.82	2.80162e-07
3296.37	3.17343e-07
3304.93	4.92241e-07
3313.49	7.47722e-07
3322.05	1.09066e-06
3330.6	1.56216e-06
3339.16	1.86425e-06
3347.72	1.73324e-06
3356.28	1.6434e-06
3364.83	1.47295e-06
3373.39	1.31574e-06
3381.95	1.31862e-06
3390.51	1.46355e-06
3399.06	1.80022e-06
3407.62	1.88079e-06
3416.18	2.10188e-06
3424.74	2.59428e-06
3433.3	2.48803e-06
3441.85	2.52337e-06
3450.41	3.34437e-06
3458.97	2.59262e-06
3467.53	2.26225e-06
3476.08	1.91501e-06
3484.64	1.52016e-06
3493.2	1.22298e-06
3501.76	9.06071e-07
3510.31	7.90403e-07
3518.87	8.20448e-07
3527.43	9.17507e-07
3535.99	1.0856e-06
3544.54	1.23385e-06
3553.1	1.15353e-06
3561.66	9.89164e-07
3570.22	9.73109e-07
3578.78	1.02122e-06
3587.33	1.07288e-06
3595.89	1.62871e-06
3604.45	2.32548e-06
3613.01	4.84246e-06
3621.56	8.55506e-06
3630.12	1.3595e-05
3638.68	3.14903e-05
3647.24	4.87842e-05
3655.79	5.57577e-05
3664.35	4.83694e-05
3672.91	4.12814e-05
3681.47	1.92003e-05
3690.02	6.00088e-06
3698.58	2.65494e-06
3707.14	1.78947e-06
3715.7	1.55898e-06
3724.25	1.22724e-06
3732.81	1.13294e-06
3741.37	1.15675e-06
3749.93	1.04848e-06
3758.49	9.34398e-07
3767.04	1.11141e-06
3775.6	1.41468e-06
3784.16	1.93293e-06
3792.72	2.16563e-06
3801.27	2.63632e-06
3809.83	2.54403e-06
3818.39	2.64355e-06
3826.95	2.66348e-06
3835.5	2.57691e-06
3844.06	2.44773e-06
3852.62	2.31949e-06
3861.18	2.17997e-06
3869.73	2.46171e-06
3878.29	2.21203e-06
3886.85	2.14487e-06
3895.41	2.55227e-06
3903.96	2.06383e-06
3912.52	1.90038e-06
3921.08	1.47936e-06
3929.64	1.36224e-06
3938.2	1.16408e-06
3946.75	1.12259e-06
3955.31	8.99743e-07
3963.87	8.20538e-07
3972.43	8.05477e-07
