Infrared Spectrum: Chloroform
Formula: C H Cl3
CAS: 67-66-3
State: gas
Melting point: -63.5 C
Boiling point: 61.7 C
Class: IUPAC A
Instrument: IFS66V (Bruker)
Instrument parameters: KBr Beam Splitter; MCT Detector; Multipass cell
Sampling: 1 L/min Flow
Resolution: 0.4820
Temperature: 23 C
Pressure: 101.3 Pa
Origin: NIST, Analytical Chemistry Division, 301-975-3108
cm-1	(micromol/mol)-1m-1 (base 10)
575.17	-3.43841e-06
583.848	-1.02268e-06
592.526	-6.08151e-07
601.205	-3.89765e-08
609.883	1.04403e-06
618.561	1.47043e-06
627.239	5.49286e-06
635.917	1.96689e-06
644.595	8.86553e-07
653.274	9.35333e-07
661.952	3.84667e-06
670.63	2.32368e-05
679.308	1.87419e-05
687.986	3.87214e-05
696.664	3.57248e-06
705.343	1.76304e-07
714.021	8.03015e-07
722.699	1.31452e-06
731.377	5.62841e-06
740.055	2.4502e-05
748.734	0.000100599
757.412	0.000368493
766.09	0.00161094
774.768	0.00254406
783.446	0.000560072
792.124	9.03687e-05
800.803	1.67348e-05
809.481	2.80755e-06
818.159	8.17938e-07
826.837	9.34762e-07
835.515	1.04213e-06
844.193	2.4584e-06
852.872	4.71017e-06
861.55	2.28567e-06
870.228	6.4082e-07
878.906	5.69299e-07
887.584	1.73477e-07
896.263	1.88039e-07
904.941	8.17192e-07
913.619	2.49889e-06
922.297	4.45927e-06
930.975	7.25301e-06
939.653	3.00734e-06
948.332	2.43316e-06
957.01	5.43975e-07
965.688	1.33402e-07
974.366	6.7483e-09
983.044	-9.93692e-08
991.723	-7.79893e-08
1000.4	-4.76056e-08
1009.08	2.11999e-07
1017.76	1.24077e-06
1026.44	2.06808e-06
1035.11	2.08908e-06
1043.79	5.23774e-07
1052.47	-1.87261e-07
1061.15	-1.43217e-07
1069.83	2.72868e-07
1078.5	-1.12109e-07
1087.18	-1.90546e-07
1095.86	-2.04534e-07
1104.54	-1.22863e-07
1113.22	-1.75885e-07
1121.9	-2.74181e-07
1130.57	-8.03867e-08
1139.25	-3.25505e-07
1147.93	-1.8192e-07
1156.61	-3.89001e-07
1165.29	-3.51421e-07
1173.96	1.10243e-07
1182.64	7.91145e-07
1191.32	2.99582e-06
1200	1.17615e-05
1208.68	7.60211e-05
1217.36	0.000422065
1226.03	0.000178696
1234.71	2.91506e-05
1243.39	4.80285e-06
1252.07	6.71054e-07
1260.75	6.47182e-09
1269.42	-1.22936e-07
1278.1	-3.6053e-07
1286.78	-2.86121e-07
1295.46	-2.87201e-07
1304.14	-3.23573e-07
1312.82	-1.69726e-07
1321.49	-2.00012e-07
1330.17	1.89535e-08
1338.85	-2.46337e-07
1347.53	-1.95264e-07
1356.21	-2.72879e-07
1364.88	-6.03553e-07
1373.56	-9.04175e-07
1382.24	-1.0002e-07
1390.92	-1.31536e-07
1399.6	-2.17601e-07
1408.28	-2.00703e-08
1416.95	2.23254e-07
1425.63	1.20194e-06
1434.31	4.38558e-06
1442.99	8.82051e-06
1451.67	4.26083e-06
1460.34	3.47001e-07
1469.02	1.18068e-06
1477.7	1.35808e-06
1486.38	1.23748e-06
1495.06	1.89302e-07
1503.73	1.65223e-07
1512.41	-2.16528e-07
1521.09	-1.59921e-06
1529.77	4.47047e-06
1538.45	4.76117e-06
1547.13	7.37646e-06
1555.8	4.45077e-06
1564.48	2.6442e-06
1573.16	3.32628e-07
1581.84	-1.43817e-07
1590.52	-1.29789e-07
1599.19	-2.52419e-07
1607.87	-2.36911e-07
1616.55	-5.23726e-06
1625.23	-2.75615e-07
1633.91	-4.24503e-07
1642.59	-3.43993e-07
1651.26	-6.29651e-07
1659.94	-3.24701e-07
1668.62	-6.41646e-07
1677.3	-2.6139e-07
1685.98	-4.9064e-07
1694.65	-4.85045e-07
1703.33	-3.6781e-07
1712.01	-2.99363e-07
1720.69	-2.20868e-07
1729.37	-3.63986e-07
1738.05	-1.70334e-07
1746.72	-4.00031e-07
1755.4	-3.52396e-07
1764.08	-2.52216e-07
1772.76	-4.12157e-06
1781.44	-1.38699e-07
1790.11	-1.36938e-07
1798.79	-6.51512e-08
1807.47	4.73436e-08
1816.15	3.76301e-07
1824.83	9.19989e-08
1833.51	8.31293e-07
1842.18	1.38968e-07
1850.86	2.7648e-09
1859.54	-1.77766e-07
1868.22	-3.79229e-07
1876.9	-2.29657e-07
1885.57	-3.35622e-07
1894.25	-6.4027e-08
1902.93	-2.29526e-07
1911.61	-2.60059e-07
1920.29	-2.86987e-07
1928.97	-2.44216e-07
1937.64	-2.49978e-07
1946.32	-3.34876e-07
1955	-2.78932e-07
1963.68	-1.72622e-07
1972.36	-2.86667e-08
1981.03	-1.52319e-08
1989.71	-4.60704e-08
1998.39	-1.00501e-07
2007.07	-1.32969e-07
2015.75	-2.32611e-07
2024.43	-2.76222e-07
2033.1	-2.65676e-07
2041.78	-3.12645e-07
2050.46	-2.52692e-07
2059.14	-2.16695e-07
2067.82	-4.02857e-07
2076.49	-3.6216e-07
2085.17	-3.18596e-07
2093.85	-2.73712e-07
2102.53	-3.22405e-07
2111.21	-4.37035e-07
2119.89	-3.41941e-07
2128.56	-1.05288e-07
2137.24	-1.99812e-07
2145.92	-2.30894e-07
2154.6	-4.82768e-07
2163.28	-2.23243e-07
2171.95	-2.63569e-07
2180.63	-1.49714e-07
2189.31	-5.0836e-08
2197.99	-1.17562e-07
2206.67	2.47108e-07
2215.35	1.94897e-07
2224.02	1.25908e-08
2232.7	1.02774e-07
2241.38	5.2735e-08
2250.06	-1.66125e-07
2258.74	-1.74106e-07
2267.41	-2.19183e-08
2276.09	9.39888e-08
2284.77	1.22983e-07
2293.45	2.27431e-07
2302.13	-3.53604e-08
2310.81	4.51391e-08
2319.48	4.23801e-07
2328.16	3.90823e-07
2336.84	4.18497e-07
2345.52	4.87198e-07
2354.2	2.00074e-06
2362.87	4.3095e-06
2371.55	1.70231e-06
2380.23	7.09427e-08
2388.91	4.72461e-07
2397.59	2.18134e-06
2406.27	1.62614e-06
2414.94	1.85943e-06
2423.62	2.20916e-06
2432.3	5.91235e-07
2440.98	1.23357e-06
2449.66	6.48125e-07
2458.33	7.35107e-07
2467.01	2.25863e-07
2475.69	-1.05608e-07
2484.37	-3.74136e-07
2493.05	-2.78052e-07
2501.73	-1.41747e-07
2510.4	-3.41726e-07
2519.08	-1.85009e-07
2527.76	-3.24915e-07
2536.44	-3.36357e-07
2545.12	-4.39127e-07
2553.79	-3.13463e-07
2562.47	-2.29406e-07
2571.15	-3.61007e-07
2579.83	-3.4918e-07
2588.51	-2.13996e-07
2597.19	-1.66147e-07
2605.86	-3.35924e-07
2614.54	-8.13544e-08
2623.22	-3.05482e-07
2631.9	-2.69557e-07
2640.58	-2.81755e-07
2649.25	-4.37712e-07
2657.93	-2.83891e-07
2666.61	-3.03132e-07
2675.29	-3.19138e-07
2683.97	-2.11944e-07
2692.65	-3.82442e-07
2701.32	-2.46781e-07
2710	-1.02909e-07
2718.68	-3.03139e-07
2727.36	-3.11139e-07
2736.04	-1.77941e-07
2744.71	-3.55816e-07
2753.39	-1.9927e-07
2762.07	-4.28428e-07
2770.75	-3.54266e-07
2779.43	-3.74795e-07
2788.11	-2.99115e-07
2796.78	-3.2155e-07
2805.46	-9.12895e-08
2814.14	-5.47675e-07
2822.82	-3.35851e-07
2831.5	-1.73746e-08
2840.17	-2.33291e-07
2848.85	-3.21128e-07
2857.53	-3.68654e-07
2866.21	-4.183e-07
2874.89	-5.42764e-07
2883.57	-2.94812e-07
2892.24	-3.69356e-07
2900.92	-2.85582e-07
2909.6	-4.99509e-07
2918.28	-3.86581e-07
2926.96	-3.65827e-07
2935.63	-5.38267e-07
2944.31	-2.64996e-07
2952.99	-4.60616e-07
2961.67	-7.72795e-07
2970.35	-6.79793e-07
2979.03	-5.35077e-07
2987.7	-2.16102e-07
2996.38	-6.07133e-07
3005.06	-2.46646e-07
3013.74	-8.25585e-08
3022.42	6.39696e-07
3031.09	-9.81542e-08
3039.77	7.31083e-07
3048.45	7.08547e-07
3057.13	-3.68534e-07
3065.81	-3.29314e-07
3074.49	-4.63287e-08
3083.16	-3.24242e-07
3091.84	-3.64772e-07
3100.52	-1.88385e-07
3109.2	-4.66161e-08
3117.88	-7.98555e-08
3126.55	9.45381e-08
3135.23	-7.43478e-08
3143.91	2.98853e-08
3152.59	-9.19661e-09
3161.27	3.30671e-07
3169.95	9.86453e-08
3178.62	1.53025e-07
3187.3	6.16879e-08
3195.98	2.59382e-08
3204.66	2.92775e-07
3213.34	1.10399e-07
3222.01	3.51126e-07
3230.69	3.25396e-07
3239.37	4.10937e-08
3248.05	1.01021e-07
3256.73	2.11548e-07
3265.4	-3.68374e-08
3274.08	1.28254e-07
3282.76	6.44272e-08
3291.44	-2.61372e-07
3300.12	-1.14146e-07
3308.8	1.84532e-07
3317.47	-2.0481e-07
3326.15	-2.71362e-07
3334.83	-8.39336e-08
3343.51	1.03189e-07
3352.19	-2.19664e-07
3360.86	-2.74956e-07
3369.54	7.30927e-08
3378.22	-3.4954e-07
3386.9	-3.44473e-08
3395.58	-6.36014e-08
3404.26	-2.57843e-07
3412.93	4.7531e-07
3421.61	-2.15069e-07
3430.29	-6.22597e-07
3438.97	-4.01642e-07
3447.65	-6.35159e-07
3456.32	-1.40514e-07
3465	-3.50992e-07
3473.68	-1.27348e-07
3482.36	-2.38577e-07
3491.04	-5.77604e-07
3499.72	-3.96255e-07
3508.39	-5.02521e-07
3517.07	-4.08893e-07
3525.75	-5.93509e-07
3534.43	-3.63128e-07
3543.11	-6.56379e-07
3551.78	-4.17787e-07
3560.46	-2.57647e-07
3569.14	-3.48649e-07
3577.82	-5.01739e-07
3586.5	-1.50713e-06
3595.18	-6.09501e-07
3603.85	-4.40873e-07
3612.53	-1.75864e-06
3621.21	-7.53791e-07
3629.89	-2.01922e-06
3638.57	-3.92253e-07
3647.24	-1.86997e-06
3655.92	-1.09559e-06
3664.6	-6.31823e-07
3673.28	-6.01025e-07
3681.96	-3.51228e-07
3690.64	-4.45606e-07
3699.31	-5.46631e-08
3707.99	-3.22584e-07
3716.67	3.25425e-07
3725.35	-4.71519e-07
3734.03	-7.62577e-07
3742.7	-7.88908e-07
3751.38	-1.2729e-06
3760.06	-1.58408e-06
3768.74	-5.79296e-07
3777.42	-4.8718e-07
3786.1	-5.40832e-07
3794.77	-5.62659e-07
3803.45	-2.37817e-07
3812.13	-2.82021e-07
3820.81	-2.71571e-06
3829.49	-3.51756e-07
3838.16	-3.16907e-06
3846.84	-6.48285e-07
3855.52	-6.34282e-07
3864.2	-8.9014e-07
3872.88	-7.26285e-07
3881.56	-6.72415e-07
3890.23	-5.46504e-07
3898.91	-9.71359e-07
3907.59	-4.63909e-07
3916.27	-7.40782e-07
3924.95	-5.14792e-07
3933.62	-4.12156e-07
3942.3	-6.58514e-07
3950.98	-6.31827e-07
3959.66	-7.67735e-07
3968.34	-5.12082e-07
