Infrared Spectrum: 2-Propanone
Formula: C H3 C O C H3
CAS: 67-64-1
State: gas
Melting point: -95.35 C
Boiling point: 56.2 C
Class: IUPAC A
Instrument: IFS66V (Bruker)
Instrument parameters: KBr Beam splitter; MCT Detector; Multipass cell
Sampling: 1 L/min Flow
Resolution: 0.9640
Temperature: 23 C
Pressure: 101.3 kPa
Origin: NIST, Anayltical Chemistry Division, 301-975-3108
cm-1	(micromol/mol)-1m-1 (base 10)
575.169	2.55412e-07
583.847	1.71453e-07
592.525	2.22517e-07
601.203	7.22718e-08
609.882	4.60433e-08
618.56	-1.84597e-08
627.238	2.17757e-08
635.916	-1.81041e-08
644.594	2.40403e-08
653.272	-3.65875e-08
661.951	-5.31173e-08
670.629	-7.87591e-08
679.307	-7.10977e-08
687.985	-4.36105e-08
696.663	-5.27926e-08
705.341	8.50045e-08
714.019	8.79476e-08
722.698	2.73408e-07
731.376	5.25898e-07
740.054	1.01753e-06
748.732	2.06539e-06
757.41	3.81682e-06
766.088	5.48065e-06
774.767	5.86221e-06
783.445	5.83997e-06
792.123	5.32185e-06
800.801	2.77787e-06
809.479	1.06504e-06
818.157	4.7102e-07
826.835	4.3767e-07
835.514	5.3243e-07
844.192	8.0226e-07
852.87	1.42254e-06
861.548	3.2992e-06
870.226	8.21743e-06
878.904	1.34621e-05
887.583	1.95074e-05
896.261	2.26896e-05
904.939	2.20511e-05
913.617	1.81139e-05
922.295	1.24895e-05
930.973	8.53691e-06
939.651	5.57207e-06
948.33	4.13264e-06
957.008	3.77577e-06
965.686	3.4655e-06
974.364	3.2571e-06
983.042	3.0324e-06
991.72	2.57633e-06
1000.4	2.21159e-06
1009.08	1.80029e-06
1017.75	1.71426e-06
1026.43	1.646e-06
1035.11	1.84299e-06
1043.79	2.22139e-06
1052.47	2.50049e-06
1061.15	3.01142e-06
1069.82	4.20893e-06
1078.5	5.80726e-06
1087.18	8.42709e-06
1095.86	1.04391e-05
1104.54	1.01787e-05
1113.21	1.0417e-05
1121.89	7.59453e-06
1130.57	4.71693e-06
1139.25	3.2059e-06
1147.93	2.59524e-06
1156.61	2.78698e-06
1165.28	4.26004e-06
1173.96	8.63845e-06
1182.64	2.20192e-05
1191.32	7.86235e-05
1200	0.000203834
1208.67	0.000249105
1217.35	0.000379212
1226.03	0.000266975
1234.71	0.000203629
1243.39	4.24966e-05
1252.07	9.10918e-06
1260.74	4.42577e-06
1269.42	3.36072e-06
1278.1	3.31734e-06
1286.78	3.99232e-06
1295.46	5.08997e-06
1304.13	7.41946e-06
1312.81	1.14833e-05
1321.49	1.91936e-05
1330.17	3.71409e-05
1338.85	8.57733e-05
1347.52	0.000182854
1356.2	0.000238701
1364.88	0.000331106
1373.56	0.000282975
1382.24	0.000200712
1390.92	8.63878e-05
1399.59	5.47506e-05
1408.27	5.52092e-05
1416.95	6.65693e-05
1425.63	7.58435e-05
1434.31	8.38716e-05
1442.98	7.81766e-05
1451.66	6.80241e-05
1460.34	5.40848e-05
1469.02	4.14898e-05
1477.7	3.29791e-05
1486.38	2.22862e-05
1495.05	1.83785e-05
1503.73	1.68575e-05
1512.41	1.67329e-05
1521.09	1.82939e-05
1529.77	1.62245e-05
1538.44	1.66846e-05
1547.12	1.50406e-05
1555.8	1.4074e-05
1564.48	1.30028e-05
1573.16	1.0785e-05
1581.83	8.87677e-06
1590.51	7.38984e-06
1599.19	5.74648e-06
1607.87	4.50548e-06
1616.55	5.77604e-06
1625.23	3.47003e-06
1633.9	3.47973e-06
1642.58	3.99382e-06
1651.26	5.27492e-06
1659.94	6.21466e-06
1668.62	8.9937e-06
1677.29	1.23457e-05
1685.97	1.83463e-05
1694.65	3.31981e-05
1703.33	8.42145e-05
1712.01	0.000206485
1720.69	0.000336863
1729.36	0.000396084
1738.04	0.000511391
1746.72	0.000446143
1755.4	0.000340075
1764.08	0.000225625
1772.75	0.000134076
1781.43	7.79069e-05
1790.11	5.46758e-05
1798.79	3.47721e-05
1807.47	2.1615e-05
1816.15	1.25539e-05
1824.82	8.19417e-06
1833.5	5.56446e-06
1842.18	4.38899e-06
1850.86	2.85048e-06
1859.54	2.08343e-06
1868.21	1.82543e-06
1876.89	1.41612e-06
1885.57	1.20476e-06
1894.25	9.63206e-07
1902.93	7.78216e-07
1911.6	5.48878e-07
1920.28	4.11947e-07
1928.96	4.0485e-07
1937.64	4.40439e-07
1946.32	5.20897e-07
1955	6.64091e-07
1963.67	8.59762e-07
1972.35	1.04223e-06
1981.03	1.16708e-06
1989.71	1.04845e-06
1998.39	8.97418e-07
2007.06	5.94538e-07
2015.74	2.45008e-07
2024.42	1.72149e-07
2033.1	1.80932e-07
2041.78	2.08598e-07
2050.46	2.37975e-07
2059.13	3.55846e-07
2067.81	5.09081e-07
2076.49	8.46408e-07
2085.17	1.51053e-06
2093.85	2.45074e-06
2102.52	3.10764e-06
2111.2	4.2134e-06
2119.88	5.35879e-06
2128.56	5.6931e-06
2137.24	5.47652e-06
2145.91	5.2482e-06
2154.59	3.82317e-06
2163.27	2.01532e-06
2171.95	9.64484e-07
2180.63	7.00911e-07
2189.31	5.69224e-07
2197.98	6.0384e-07
2206.66	6.65882e-07
2215.34	9.07752e-07
2224.02	1.26105e-06
2232.7	1.76086e-06
2241.37	2.10266e-06
2250.05	2.11124e-06
2258.73	2.24141e-06
2267.41	1.80397e-06
2276.09	1.35863e-06
2284.77	1.01549e-06
2293.44	8.37302e-07
2302.12	7.02141e-07
2310.8	7.30737e-07
2319.48	7.47372e-07
2328.16	7.99996e-07
2336.83	6.47405e-07
2345.51	6.38231e-07
2354.19	5.95809e-07
2362.87	6.38403e-07
2371.55	3.71987e-07
2380.23	1.90821e-07
2388.9	1.49612e-07
2397.58	2.61263e-07
2406.26	4.91518e-07
2414.94	7.43494e-07
2423.62	9.71071e-07
2432.29	9.93565e-07
2440.97	9.9089e-07
2449.65	1.08179e-06
2458.33	3.64669e-07
2467.01	2.91409e-07
2475.68	2.86949e-07
2484.36	3.82929e-07
2493.04	4.75855e-07
2501.72	5.5364e-07
2510.4	6.42143e-07
2519.08	6.06557e-07
2527.75	6.75205e-07
2536.43	8.81242e-07
2545.11	1.20518e-06
2553.79	1.91841e-06
2562.47	2.53777e-06
2571.14	2.76881e-06
2579.82	2.51086e-06
2588.5	2.44362e-06
2597.18	1.18515e-06
2605.86	5.60432e-07
2614.54	4.74243e-07
2623.21	4.71604e-07
2631.89	5.2021e-07
2640.57	5.93357e-07
2649.25	5.74346e-07
2657.93	5.38173e-07
2666.6	4.34532e-07
2675.28	3.17974e-07
2683.96	3.50088e-07
2692.64	3.7067e-07
2701.32	3.97722e-07
2709.99	5.38019e-07
2718.67	5.52112e-07
2727.35	4.76461e-07
2736.03	4.71974e-07
2744.71	5.26451e-07
2753.39	6.55001e-07
2762.06	9.85165e-07
2770.74	1.49111e-06
2779.42	2.16312e-06
2788.1	2.55694e-06
2796.78	3.0163e-06
2805.45	3.05232e-06
2814.13	3.12371e-06
2822.81	3.55172e-06
2831.49	4.91498e-06
2840.17	6.87173e-06
2848.85	8.15509e-06
2857.52	9.13445e-06
2866.2	9.68498e-06
2874.88	8.99359e-06
2883.56	8.55731e-06
2892.24	9.67384e-06
2900.91	1.27299e-05
2909.59	2.00492e-05
2918.27	3.11686e-05
2926.95	3.69325e-05
2935.63	3.99029e-05
2944.31	4.8602e-05
2952.98	4.62175e-05
2961.66	3.92286e-05
2970.34	0.000121532
2979.02	3.81267e-05
2987.7	4.50895e-05
2996.37	5.23214e-05
3005.05	5.80267e-05
3013.73	5.78579e-05
3022.41	5.62521e-05
3031.09	5.32707e-05
3039.76	3.36435e-05
3048.44	2.38926e-05
3057.12	2.16264e-05
3065.8	2.05084e-05
3074.48	1.94818e-05
3083.16	1.74945e-05
3091.83	1.4775e-05
3100.51	1.13084e-05
3109.19	8.23447e-06
3117.87	5.5387e-06
3126.55	3.77382e-06
3135.22	2.79859e-06
3143.9	2.26398e-06
3152.58	2.08769e-06
3161.26	1.80792e-06
3169.94	1.70356e-06
3178.62	1.53467e-06
3187.29	1.29096e-06
3195.97	1.12328e-06
3204.65	9.19021e-07
3213.33	7.63945e-07
3222.01	7.25516e-07
3230.68	6.73062e-07
3239.36	5.96321e-07
3248.04	5.35163e-07
3256.72	5.29778e-07
3265.4	4.64927e-07
3274.07	4.41186e-07
3282.75	4.76569e-07
3291.43	5.05841e-07
3300.11	5.2718e-07
3308.79	4.95308e-07
3317.47	4.74708e-07
3326.14	3.90579e-07
3334.82	3.4127e-07
3343.5	2.78983e-07
3352.18	2.86419e-07
3360.86	2.61369e-07
3369.53	3.20907e-07
3378.21	5.75123e-07
3386.89	6.6558e-07
3395.57	6.39806e-07
3404.25	7.23864e-07
3412.93	1.02174e-06
3421.6	2.11023e-06
3430.28	4.54495e-06
3438.96	7.58013e-06
3447.64	9.76717e-06
3456.32	1.15981e-05
3464.99	1.10488e-05
3473.67	8.71639e-06
3482.35	5.66177e-06
3491.03	3.53012e-06
3499.71	2.40932e-06
3508.39	1.47594e-06
3517.06	7.68491e-07
3525.74	5.11319e-07
3534.42	2.13118e-07
3543.1	1.63284e-07
3551.78	1.37588e-07
3560.45	1.20845e-07
3569.13	5.81358e-08
3577.81	-6.85611e-08
3586.49	4.02443e-07
3595.17	1.39125e-07
3603.84	-1.38341e-08
3612.52	5.63128e-07
3621.2	1.86979e-07
3629.88	1.12221e-06
3638.56	1.29953e-07
3647.24	7.46841e-07
3655.91	7.38052e-07
3664.59	1.02759e-07
3673.27	2.38844e-07
3681.95	1.69792e-07
3690.63	4.89706e-07
3699.3	2.56062e-07
3707.98	2.7959e-07
3716.66	3.01402e-07
3725.34	4.42838e-07
3734.02	5.9713e-07
3742.7	4.85897e-07
3751.37	7.98199e-07
3760.05	8.81034e-07
3768.73	4.99783e-07
3777.41	5.1281e-07
3786.09	5.8078e-07
3794.76	6.93032e-07
3803.44	9.28099e-07
3812.12	7.7237e-07
3820.8	1.58423e-06
3829.48	6.8937e-07
3838.16	2.3433e-06
3846.83	4.76597e-07
3855.51	6.25532e-07
3864.19	5.67487e-07
3872.87	3.88537e-07
3881.55	4.42134e-07
3890.22	3.82976e-07
3898.9	8.12573e-07
3907.58	5.0115e-07
3916.26	6.7693e-07
3924.94	8.27168e-07
3933.61	6.88641e-07
3942.29	7.5959e-07
3950.97	6.83975e-07
3959.65	7.43113e-07
3968.33	8.63388e-07
