Infrared Spectrum: Chloroform
Formula: C H Cl3
CAS: 67-66-3
State: gas
Melting point: -63.5 C
Boiling point: 61.7 C
Class: IUPAC A
Instrument: IFS66V (Bruker)
Instrument parameters: KBr Beam Splitter; MCT Detector; Multipass cell
Sampling: 1 L/min Flow
Resolution: 0.2410
Temperature: 23 C
Pressure: 101.3 Pa
Origin: NIST, Analytical Chemistry Division, 301-975-3108
cm-1	(micromol/mol)-1m-1 (base 10)
575.05	-2.43572e-06
583.608	-5.35895e-07
592.165	1.56529e-06
600.723	2.74556e-07
609.281	2.14999e-06
617.838	1.50031e-06
626.396	4.62829e-06
634.954	1.98017e-06
643.511	8.68731e-07
652.069	1.24378e-06
660.626	4.25257e-06
669.184	1.34766e-05
677.742	1.09243e-05
686.299	4.47091e-05
694.857	5.69916e-06
703.415	2.67382e-07
711.972	1.90299e-07
720.53	5.31515e-07
729.088	2.53101e-06
737.645	1.48298e-05
746.203	6.77133e-05
754.761	0.000240021
763.318	0.0010113
771.876	0.00281166
780.434	0.00111
788.991	0.000161235
797.549	3.3984e-05
806.106	3.69526e-06
814.664	8.32071e-07
823.222	-1.63098e-07
831.779	1.33129e-07
840.337	1.34909e-06
848.895	3.7456e-06
857.452	5.08396e-06
866.01	9.25002e-07
874.568	7.32488e-07
883.125	4.24554e-07
891.683	-3.30158e-07
900.241	1.21626e-07
908.798	1.08034e-06
917.356	3.69205e-06
925.914	4.53744e-06
934.471	5.92539e-06
943.029	3.69736e-06
951.586	1.63389e-06
960.144	8.55198e-08
968.702	5.17382e-08
977.259	-4.61722e-08
985.817	-3.09836e-07
994.375	-2.20439e-07
1002.93	-1.16646e-07
1011.49	3.54852e-07
1020.05	1.80709e-06
1028.61	2.17812e-06
1037.16	2.1376e-06
1045.72	-8.74187e-09
1054.28	4.88934e-09
1062.84	-1.92736e-07
1071.39	1.36556e-07
1079.95	-9.13659e-08
1088.51	-2.09987e-07
1097.07	-4.92448e-07
1105.62	7.2969e-08
1114.18	-3.61607e-09
1122.74	-3.7088e-07
1131.3	1.05135e-09
1139.85	-2.52379e-07
1148.41	-4.65804e-07
1156.97	-3.82365e-07
1165.53	-3.79498e-07
1174.09	-7.72072e-08
1182.64	6.85184e-07
1191.2	2.86776e-06
1199.76	1.05697e-05
1208.32	6.85022e-05
1216.87	0.000385154
1225.43	0.000202289
1233.99	3.27406e-05
1242.55	5.39265e-06
1251.1	8.82114e-07
1259.66	1.52177e-07
1268.22	-9.78559e-08
1276.78	-8.02484e-08
1285.33	-1.9967e-07
1293.89	-1.49208e-07
1302.45	-2.79442e-07
1311.01	-3.30314e-07
1319.57	-7.57484e-08
1328.12	-1.74561e-07
1336.68	-4.46534e-07
1345.24	1.04139e-07
1353.8	-1.00158e-06
1362.35	-5.12511e-07
1370.91	-3.00345e-08
1379.47	-2.44423e-07
1388.03	-6.45927e-07
1396.58	-2.34172e-08
1405.14	-1.07553e-06
1413.7	-1.49787e-07
1422.26	5.43713e-07
1430.81	2.77829e-06
1439.37	7.72357e-06
1447.93	6.19545e-06
1456.49	-2.84243e-06
1465.05	-1.45722e-06
1473.6	-2.35673e-06
1482.16	1.1925e-06
1490.72	-1.05031e-06
1499.28	-1.01537e-07
1507.83	-1.49841e-07
1516.39	1.16275e-06
1524.95	2.78097e-06
1533.51	4.89328e-06
1542.06	1.39741e-06
1550.62	5.21313e-06
1559.18	3.8814e-06
1567.74	1.88661e-06
1576.29	-7.45312e-06
1584.85	-2.98097e-07
1593.41	-3.72881e-07
1601.97	-1.34802e-07
1610.53	-4.63512e-07
1619.08	-2.23884e-07
1627.64	-1.15227e-06
1636.2	-7.15415e-07
1644.76	-1.55935e-07
1653.31	-1.12608e-05
1661.87	-5.20413e-07
1670.43	-2.5852e-07
1678.99	-3.98928e-07
1687.54	-2.07397e-07
1696.1	-5.66664e-06
1704.66	-1.05136e-06
1713.22	-2.65629e-07
1721.77	-4.10246e-07
1730.33	-6.3083e-07
1738.89	-2.85491e-07
1747.45	-4.81214e-07
1756.01	-1.30393e-07
1764.56	-1.70552e-07
1773.12	-8.09902e-07
1781.68	-1.45392e-07
1790.24	-1.7212e-07
1798.79	-1.14703e-08
1807.35	7.09099e-08
1815.91	2.61678e-07
1824.47	3.85777e-07
1833.02	8.45859e-07
1841.58	2.09085e-07
1850.14	-1.36501e-07
1858.7	-2.22938e-07
1867.25	-2.77062e-07
1875.81	-2.90625e-07
1884.37	-1.32802e-07
1892.93	-1.52042e-07
1901.49	-1.0555e-07
1910.04	-4.13411e-07
1918.6	-1.60009e-07
1927.16	-1.40503e-07
1935.72	-4.00038e-07
1944.27	-2.6628e-07
1952.83	-1.75158e-07
1961.39	-1.32187e-07
1969.95	-2.3017e-07
1978.5	7.34674e-08
1987.06	-6.37469e-08
1995.62	-5.24258e-08
2004.18	-9.95548e-08
2012.73	2.44103e-08
2021.29	-2.16906e-07
2029.85	-1.43479e-07
2038.41	-1.71716e-07
2046.97	-4.49819e-07
2055.52	-4.10548e-07
2064.08	-1.9995e-07
2072.64	-2.56454e-07
2081.2	-2.03864e-07
2089.75	-5.2858e-07
2098.31	-3.17356e-07
2106.87	-7.38785e-08
2115.43	-4.21145e-07
2123.98	-2.31218e-07
2132.54	-1.35781e-07
2141.1	5.73697e-09
2149.66	-1.77624e-07
2158.21	-5.0673e-07
2166.77	-2.99399e-09
2175.33	-2.46013e-07
2183.89	-8.64656e-08
2192.45	5.76462e-08
2201	-9.96384e-08
2209.56	3.42501e-07
2218.12	-4.26289e-08
2226.68	-1.24882e-07
2235.23	1.87243e-08
2243.79	4.2586e-07
2252.35	-2.32222e-07
2260.91	-1.42329e-07
2269.46	7.75346e-08
2278.02	-8.32679e-08
2286.58	3.09563e-07
2295.14	9.83688e-09
2303.69	-1.88116e-07
2312.25	-1.74143e-07
2320.81	2.27078e-07
2329.37	9.68809e-08
2337.93	1.19894e-06
2346.48	5.23021e-08
2355.04	1.25875e-07
2363.6	4.44184e-07
2372.16	1.12597e-07
2380.71	5.10557e-07
2389.27	3.54779e-07
2397.83	2.2165e-06
2406.39	1.64068e-06
2414.94	1.94536e-06
2423.5	2.15949e-06
2432.06	6.20196e-07
2440.62	1.25563e-06
2449.17	5.70721e-07
2457.73	8.11739e-07
2466.29	3.62648e-07
2474.85	-1.2908e-07
2483.41	-2.13858e-07
2491.96	-1.67984e-07
2500.52	-2.86416e-07
2509.08	-2.82541e-07
2517.64	-2.67269e-07
2526.19	-3.75213e-07
2534.75	-1.80025e-07
2543.31	-4.43213e-07
2551.87	-3.06264e-07
2560.42	-4.56014e-07
2568.98	-3.11884e-07
2577.54	-2.73748e-07
2586.1	-2.52576e-07
2594.65	-3.03346e-07
2603.21	-4.87828e-07
2611.77	-4.66688e-07
2620.33	-4.80367e-07
2628.89	-2.86594e-07
2637.44	-3.99714e-07
2646	-3.67912e-07
2654.56	-3.27469e-07
2663.12	-3.4512e-07
2671.67	-4.74419e-08
2680.23	-1.88436e-07
2688.79	-2.81442e-07
2697.35	-4.00569e-07
2705.9	-4.13036e-07
2714.46	-3.03754e-07
2723.02	-4.70129e-07
2731.58	-2.2503e-07
2740.13	-4.68369e-07
2748.69	-4.07172e-07
2757.25	-3.80764e-07
2765.81	-3.10178e-07
2774.37	-4.42856e-07
2782.92	-2.92273e-07
2791.48	-4.47986e-07
2800.04	-5.98991e-07
2808.6	-1.54229e-07
2817.15	-5.03678e-07
2825.71	-2.01576e-08
2834.27	-3.17065e-07
2842.83	-2.88849e-07
2851.38	-7.44351e-08
2859.94	-2.2822e-07
2868.5	-4.60762e-07
2877.06	-1.17588e-07
2885.61	-4.7738e-07
2894.17	-6.98622e-07
2902.73	-5.01143e-07
2911.29	-2.23101e-07
2919.85	-3.45248e-07
2928.4	-4.41721e-07
2936.96	-5.83566e-07
2945.52	-8.76588e-07
2954.08	-4.44148e-07
2962.63	1.11636e-07
2971.19	-4.55978e-07
2979.75	-6.9242e-07
2988.31	-5.79026e-07
2996.86	-7.92589e-08
3005.42	-5.07065e-07
3013.98	1.92474e-07
3022.54	6.24693e-07
3031.09	-2.13152e-07
3039.65	8.32581e-07
3048.21	6.66252e-07
3056.77	-2.38581e-07
3065.33	-3.50115e-07
3073.88	-5.30944e-07
3082.44	-4.57673e-07
3091	-1.41678e-07
3099.56	4.81585e-08
3108.11	-4.82422e-08
3116.67	-1.69432e-07
3125.23	-9.30902e-08
3133.79	-2.46242e-07
3142.34	-1.09137e-07
3150.9	-5.48159e-08
3159.46	3.70378e-07
3168.02	-1.32645e-07
3176.57	-3.07715e-07
3185.13	2.25754e-07
3193.69	-5.68058e-08
3202.25	1.21251e-07
3210.81	1.28825e-07
3219.36	1.23361e-07
3227.92	2.26074e-07
3236.48	-8.66875e-08
3245.04	1.34057e-07
3253.59	-1.00715e-07
3262.15	2.82778e-07
3270.71	1.26519e-07
3279.27	-1.93558e-07
3287.82	-1.71683e-07
3296.38	3.0733e-08
3304.94	2.26634e-07
3313.5	-1.01788e-07
3322.05	-1.06678e-07
3330.61	-2.41688e-07
3339.17	-3.10327e-07
3347.73	5.31461e-08
3356.29	2.53012e-07
3364.84	-6.29077e-07
3373.4	-3.59541e-07
3381.96	-1.08262e-06
3390.52	-1.07151e-07
3399.07	-2.08343e-07
3407.63	-2.39192e-07
3416.19	-5.08517e-07
3424.75	-5.10987e-07
3433.3	6.66354e-08
3441.86	-6.14489e-07
3450.42	-6.37669e-07
3458.98	-3.69076e-07
3467.53	-4.97978e-07
3476.09	-4.00267e-07
3484.65	-2.69303e-07
3493.21	-5.28772e-07
3501.77	-4.87879e-07
3510.32	-3.15504e-07
3518.88	-5.97893e-07
3527.44	-3.30005e-07
3536	-6.57394e-07
3544.55	-3.71313e-07
3553.11	-2.9575e-07
3561.67	-5.3205e-07
3570.23	-5.50956e-07
3578.78	1.9505e-07
3587.34	-2.07662e-07
3595.9	-4.99655e-07
3604.46	-2.10052e-07
3613.01	-6.81582e-07
3621.57	-2.90905e-07
3630.13	-3.47325e-07
3638.69	-2.36282e-07
3647.25	-1.98865e-06
3655.8	-7.26379e-07
3664.36	-7.23153e-07
3672.92	-2.79322e-07
3681.48	-1.75903e-07
3690.03	-7.68506e-08
3698.59	2.28791e-07
3707.15	1.24383e-07
3715.71	-7.20413e-08
3724.26	-2.74916e-07
3732.82	-3.29448e-07
3741.38	-1.36673e-06
3749.94	-1.28583e-06
3758.49	-5.83785e-07
3767.05	-6.13394e-07
3775.61	-2.06185e-07
3784.17	-3.36127e-07
3792.73	-1.67103e-07
3801.28	-5.24532e-06
3809.84	-1.85049e-07
3818.4	-4.32961e-07
3826.96	-6.80957e-07
3835.51	-7.27573e-07
3844.07	-6.75263e-07
3852.63	-9.22051e-07
3861.19	-8.29245e-07
3869.74	-1.32248e-06
3878.3	-7.43881e-07
3886.86	-5.60739e-07
3895.42	-2.30235e-07
3903.97	-1.4706e-06
3912.53	-8.91511e-07
3921.09	-3.62084e-07
3929.65	-9.89756e-07
3938.21	-5.57425e-07
3946.76	-4.33347e-07
3955.32	2.80591e-07
3963.88	-2.66607e-07
3972.44	-4.82484e-07
