Infrared Spectrum: 2-Propanol
Formula: C H3 C H( O H) C H3
CAS: 67-63-0
State: gas
Melting point: -89.5 C
Boiling point: 82.4 C
Class: IUPAC A
Instrument: IFS66V (Bruker)
Instrument parameters: KBr Beam splitter; MCT Detector; Multipass cell
Sampling: 1 L/min Flow
Resolution: 0.2410
Temperature: 23 C
Pressure: 101.3 kPa
Origin: NIST, Anayltical Chemistry Division, 301-975-3108
cm-1	(micromol/mol)-1m-1 (base 10)
575.048	2.32034e-06
583.606	3.03842e-06
592.163	3.27194e-06
600.721	3.48127e-06
609.279	3.86775e-06
617.836	3.96949e-06
626.394	4.27344e-06
634.951	4.08019e-06
643.509	4.22515e-06
652.067	3.68534e-06
660.624	3.48861e-06
669.182	3.11039e-06
677.74	3.19295e-06
686.297	2.9147e-06
694.855	2.61797e-06
703.412	2.75744e-06
711.97	2.51956e-06
720.528	2.33956e-06
729.085	1.8748e-06
737.643	1.55751e-06
746.201	1.36238e-06
754.758	1.14948e-06
763.316	1.15715e-06
771.873	1.09025e-06
780.431	2.12171e-06
788.989	5.46478e-06
797.546	1.54776e-05
806.104	2.38604e-05
814.662	2.87483e-05
823.219	2.48282e-05
831.777	2.35118e-05
840.334	9.30349e-06
848.892	3.4433e-06
857.45	1.98786e-06
866.007	1.6408e-06
874.565	1.51027e-06
883.123	1.56732e-06
891.68	2.11904e-06
900.238	3.31412e-06
908.795	5.98029e-06
917.353	1.31081e-05
925.911	3.4203e-05
934.468	8.75293e-05
943.026	0.000138317
951.584	0.000166238
960.141	0.000144706
968.699	0.000138092
977.256	5.18406e-05
985.814	1.38311e-05
994.372	6.86993e-06
1002.93	5.48129e-06
1011.49	5.19119e-06
1020.04	5.79893e-06
1028.6	7.95202e-06
1037.16	1.40576e-05
1045.72	3.14784e-05
1054.28	6.43904e-05
1062.83	9.66545e-05
1071.39	0.000137492
1079.95	0.000124759
1088.51	0.000115985
1097.06	8.05529e-05
1105.62	6.14155e-05
1114.18	7.17838e-05
1122.74	9.42196e-05
1131.29	0.000120111
1139.85	0.000144068
1148.41	0.000175457
1156.97	0.000174331
1165.52	0.000146601
1174.08	0.000109158
1182.64	7.13176e-05
1191.2	3.56434e-05
1199.75	2.16313e-05
1208.31	1.91472e-05
1216.87	2.56163e-05
1225.43	4.52028e-05
1233.99	7.89747e-05
1242.54	9.87624e-05
1251.1	0.000125846
1259.66	9.79801e-05
1268.22	7.88538e-05
1276.77	4.15041e-05
1285.33	2.35447e-05
1293.89	1.65042e-05
1302.45	1.51184e-05
1311	1.65727e-05
1319.56	2.17256e-05
1328.12	3.16624e-05
1336.68	4.24182e-05
1345.23	5.00328e-05
1353.79	6.52821e-05
1362.35	8.56116e-05
1370.91	0.000130901
1379.46	0.00018896
1388.02	0.000184998
1396.58	0.000158419
1405.14	8.30813e-05
1413.7	4.36234e-05
1422.25	2.5479e-05
1430.81	2.15356e-05
1439.37	2.55276e-05
1447.93	3.16953e-05
1456.48	4.42188e-05
1465.04	4.5353e-05
1473.6	7.71695e-05
1482.16	2.97193e-05
1490.71	2.4153e-05
1499.27	1.34568e-05
1507.83	6.28995e-06
1516.39	3.50072e-06
1524.94	2.3526e-06
1533.5	1.87387e-06
1542.06	1.74275e-06
1550.62	1.33664e-06
1559.18	1.24998e-06
1567.73	1.09532e-06
1576.29	1.35729e-06
1584.85	1.0171e-06
1593.41	1.00861e-06
1601.96	9.28532e-07
1610.52	9.07814e-07
1619.08	9.38513e-07
1627.64	1.0157e-06
1636.19	1.13082e-06
1644.75	1.32542e-06
1653.31	1.90435e-06
1661.87	1.65002e-06
1670.42	1.70309e-06
1678.98	1.66059e-06
1687.54	1.59723e-06
1696.1	1.76125e-06
1704.65	1.60596e-06
1713.21	1.6772e-06
1721.77	1.83141e-06
1730.33	1.96057e-06
1738.89	2.24246e-06
1747.44	3.04034e-06
1756	3.82986e-06
1764.56	3.9337e-06
1773.12	3.78153e-06
1781.67	3.30109e-06
1790.23	1.52069e-06
1798.79	6.32132e-07
1807.35	5.28376e-07
1815.9	6.02719e-07
1824.46	6.5576e-07
1833.02	7.26644e-07
1841.58	6.48803e-07
1850.13	5.88599e-07
1858.69	8.69277e-07
1867.25	9.41613e-07
1875.81	1.3876e-06
1884.36	1.81323e-06
1892.92	2.24467e-06
1901.48	2.38092e-06
1910.04	2.05375e-06
1918.6	1.58834e-06
1927.15	6.84492e-07
1935.71	2.89609e-07
1944.27	2.20065e-07
1952.83	2.9361e-07
1961.38	3.7267e-07
1969.94	4.14062e-07
1978.5	5.37296e-07
1987.06	5.3638e-07
1995.61	5.16621e-07
2004.17	5.35346e-07
2012.73	6.34797e-07
2021.29	7.27539e-07
2029.84	7.78839e-07
2038.4	8.15065e-07
2046.96	7.25161e-07
2055.52	8.09385e-07
2064.08	1.00904e-06
2072.63	1.2325e-06
2081.19	1.33181e-06
2089.75	1.27218e-06
2098.31	1.1388e-06
2106.86	8.93699e-07
2115.42	8.83954e-07
2123.98	8.0805e-07
2132.54	7.82932e-07
2141.09	9.74622e-07
2149.65	1.12777e-06
2158.21	1.68547e-06
2166.77	1.41597e-06
2175.32	1.38725e-06
2183.88	1.55387e-06
2192.44	1.74979e-06
2201	1.52356e-06
2209.55	1.41235e-06
2218.11	7.65236e-07
2226.67	4.68757e-07
2235.23	3.92133e-07
2243.79	3.86429e-07
2252.34	4.8118e-07
2260.9	5.66366e-07
2269.46	7.865e-07
2278.02	1.08961e-06
2286.57	1.43684e-06
2295.13	1.92072e-06
2303.69	2.29893e-06
2312.25	2.69666e-06
2320.8	2.59035e-06
2329.36	2.42389e-06
2337.92	1.76567e-06
2346.48	1.21061e-06
2355.03	8.39655e-07
2363.59	7.30747e-07
2372.15	8.56525e-07
2380.71	1.05184e-06
2389.26	1.18148e-06
2397.82	1.16491e-06
2406.38	1.11707e-06
2414.94	1.21355e-06
2423.5	1.24587e-06
2432.05	1.3705e-06
2440.61	1.33456e-06
2449.17	1.44489e-06
2457.73	1.37074e-06
2466.28	1.27518e-06
2474.84	1.44976e-06
2483.4	1.68446e-06
2491.96	1.91455e-06
2500.51	2.07597e-06
2509.07	2.1103e-06
2517.63	1.92305e-06
2526.19	1.68813e-06
2534.74	1.65306e-06
2543.3	1.43307e-06
2551.86	1.30706e-06
2560.42	1.32437e-06
2568.98	1.50485e-06
2577.53	1.77376e-06
2586.09	2.19208e-06
2594.65	2.68155e-06
2603.21	3.51056e-06
2611.76	4.00309e-06
2620.32	4.74537e-06
2628.88	6.69415e-06
2637.44	7.73066e-06
2645.99	8.42249e-06
2654.55	8.64212e-06
2663.11	9.32191e-06
2671.67	8.1914e-06
2680.22	6.77602e-06
2688.78	5.63883e-06
2697.34	4.78656e-06
2705.9	4.676e-06
2714.45	5.64392e-06
2723.01	6.25755e-06
2731.57	7.00362e-06
2740.13	7.16221e-06
2748.69	7.01039e-06
2757.24	7.39872e-06
2765.8	8.4303e-06
2774.36	8.92218e-06
2782.92	9.88977e-06
2791.47	1.10702e-05
2800.03	1.21689e-05
2808.59	1.33116e-05
2817.15	1.55642e-05
2825.7	1.7955e-05
2834.26	2.04619e-05
2842.82	2.38135e-05
2851.38	3.80191e-05
2859.93	5.6543e-05
2868.49	8.56651e-05
2877.05	0.000108337
2885.61	0.000153055
2894.16	0.000143589
2902.72	0.00013128
2911.28	0.000115381
2919.84	0.000102661
2928.4	0.000112268
2936.95	0.000118552
2945.51	0.00014858
2954.07	0.000215018
2962.63	0.000283941
2971.18	0.000462118
2979.74	0.000521128
2988.3	0.000307349
2996.86	0.000247111
3005.41	0.000127837
3013.97	3.58138e-05
3022.53	8.88567e-06
3031.09	3.3728e-06
3039.64	2.09394e-06
3048.2	1.57967e-06
3056.76	1.26104e-06
3065.32	1.21878e-06
3073.88	1.20377e-06
3082.43	1.2516e-06
3090.99	1.28222e-06
3099.55	1.402e-06
3108.11	1.45502e-06
3116.66	1.58675e-06
3125.22	1.77172e-06
3133.78	1.87852e-06
3142.34	1.95063e-06
3150.89	2.32096e-06
3159.45	2.8417e-06
3168.01	3.61663e-06
3176.57	4.43443e-06
3185.12	5.09143e-06
3193.68	5.10998e-06
3202.24	5.15645e-06
3210.8	4.50417e-06
3219.35	4.17734e-06
3227.91	3.76701e-06
3236.47	3.22347e-06
3245.03	2.36466e-06
3253.59	1.39688e-06
3262.14	8.9595e-07
3270.7	4.37915e-07
3279.26	3.47367e-07
3287.82	2.96794e-07
3296.37	3.30758e-07
3304.93	5.00467e-07
3313.49	7.33649e-07
3322.05	1.10003e-06
3330.6	1.5553e-06
3339.16	1.86534e-06
3347.72	1.73634e-06
3356.28	1.642e-06
3364.83	1.48336e-06
3373.39	1.32697e-06
3381.95	1.3199e-06
3390.51	1.46741e-06
3399.06	1.81813e-06
3407.62	1.88253e-06
3416.18	2.11095e-06
3424.74	2.5737e-06
3433.3	2.49521e-06
3441.85	2.53098e-06
3450.41	3.33399e-06
3458.97	2.57449e-06
3467.53	2.26753e-06
3476.08	1.92505e-06
3484.64	1.50636e-06
3493.2	1.22964e-06
3501.76	9.19238e-07
3510.31	7.87364e-07
3518.87	8.28997e-07
3527.43	9.14056e-07
3535.99	1.08742e-06
3544.54	1.24006e-06
3553.1	1.14543e-06
3561.66	9.94059e-07
3570.22	9.76119e-07
3578.78	1.01596e-06
3587.33	1.09249e-06
3595.89	1.64088e-06
3604.45	2.36019e-06
3613.01	4.86115e-06
3621.56	8.59678e-06
3630.12	1.36675e-05
3638.68	3.15775e-05
3647.24	4.8668e-05
3655.79	5.557e-05
3664.35	4.83289e-05
3672.91	4.12115e-05
3681.47	1.92042e-05
3690.02	6.05338e-06
3698.58	2.68274e-06
3707.14	1.80362e-06
3715.7	1.58178e-06
3724.25	1.23156e-06
3732.81	1.12984e-06
3741.37	1.17411e-06
3749.93	1.05105e-06
3758.49	9.50467e-07
3767.04	1.11435e-06
3775.6	1.41023e-06
3784.16	1.93382e-06
3792.72	2.18496e-06
3801.27	2.60945e-06
3809.83	2.55745e-06
3818.39	2.64749e-06
3826.95	2.66311e-06
3835.5	2.58351e-06
3844.06	2.46419e-06
3852.62	2.34592e-06
3861.18	2.1843e-06
3869.73	2.46703e-06
3878.29	2.20351e-06
3886.85	2.14918e-06
3895.41	2.54176e-06
3903.96	2.07288e-06
3912.52	1.8952e-06
3921.08	1.49462e-06
3929.64	1.3644e-06
3938.2	1.16732e-06
3946.75	1.12352e-06
3955.31	9.03135e-07
3963.87	8.2585e-07
3972.43	8.15997e-07
