Infrared Spectrum: 2-Propanone
Formula: C H3 C O C H3
CAS: 67-64-1
State: gas
Melting point: -95.35 C
Boiling point: 56.2 C
Class: IUPAC A
Instrument: IFS66V (Bruker)
Instrument parameters: KBr Beam splitter; MCT Detector; Multipass cell
Sampling: 1 L/min Flow
Resolution: 0.4820
Temperature: 23 C
Pressure: 101.3 kPa
Origin: NIST, Anayltical Chemistry Division, 301-975-3108
cm-1	(micromol/mol)-1m-1 (base 10)
574.928	4.09621e-08
583.606	2.54525e-07
592.284	9.58974e-08
600.962	1.69656e-07
609.641	-4.43681e-08
618.319	-1.66026e-08
626.997	5.45788e-08
635.675	-1.03653e-07
644.353	3.93814e-08
653.031	-4.26182e-08
661.71	-1.25164e-07
670.388	-2.81839e-08
679.066	-8.00188e-08
687.744	-7.52504e-08
696.422	-2.44286e-08
705.1	6.03613e-08
713.778	7.15388e-08
722.457	2.35816e-07
731.135	5.74787e-07
739.813	9.80115e-07
748.491	2.017e-06
757.169	3.76032e-06
765.847	5.42719e-06
774.526	5.90195e-06
783.204	5.75287e-06
791.882	5.40583e-06
800.56	2.85851e-06
809.238	1.08285e-06
817.916	4.55297e-07
826.594	4.36415e-07
835.273	4.76634e-07
843.951	7.64874e-07
852.629	1.35225e-06
861.307	3.17727e-06
869.985	8.00914e-06
878.663	1.35619e-05
887.342	2.00486e-05
896.02	2.2787e-05
904.698	2.21526e-05
913.376	1.82912e-05
922.054	1.25982e-05
930.732	8.63525e-06
939.41	5.61344e-06
948.089	4.1413e-06
956.767	3.75568e-06
965.445	3.45914e-06
974.123	3.25023e-06
982.801	3.04489e-06
991.479	2.59776e-06
1000.16	2.20977e-06
1008.84	1.80166e-06
1017.51	1.70675e-06
1026.19	1.63886e-06
1034.87	1.80636e-06
1043.55	2.18226e-06
1052.23	2.46141e-06
1060.9	2.9546e-06
1069.58	4.13481e-06
1078.26	5.70499e-06
1086.94	8.05223e-06
1095.62	1.05622e-05
1104.3	1.00953e-05
1112.97	1.04635e-05
1121.65	7.63897e-06
1130.33	4.70541e-06
1139.01	3.18338e-06
1147.69	2.49363e-06
1156.36	2.66964e-06
1165.04	4.03119e-06
1173.72	8.17624e-06
1182.4	2.08983e-05
1191.08	7.57725e-05
1199.76	0.000200751
1208.43	0.00025101
1217.11	0.000382417
1225.79	0.00026481
1234.47	0.000210258
1243.15	4.38679e-05
1251.82	8.91965e-06
1260.5	4.2562e-06
1269.18	3.192e-06
1277.86	3.14728e-06
1286.54	3.81368e-06
1295.21	4.90714e-06
1303.89	7.19675e-06
1312.57	1.11889e-05
1321.25	1.86077e-05
1329.93	3.59685e-05
1338.61	8.34569e-05
1347.28	0.000180182
1355.96	0.000240316
1364.64	0.000301466
1373.32	0.000284821
1382	0.000205462
1390.67	8.77375e-05
1399.35	5.49447e-05
1408.03	5.45906e-05
1416.71	6.61058e-05
1425.39	7.58477e-05
1434.07	8.36225e-05
1442.74	7.85435e-05
1451.42	6.86756e-05
1460.1	5.43129e-05
1468.78	4.16689e-05
1477.46	3.32102e-05
1486.13	2.23925e-05
1494.81	1.83125e-05
1503.49	1.67978e-05
1512.17	1.69102e-05
1520.85	1.70826e-05
1529.52	1.61956e-05
1538.2	1.62233e-05
1546.88	1.50246e-05
1555.56	1.40363e-05
1564.24	1.2887e-05
1572.92	1.08219e-05
1581.59	8.88286e-06
1590.27	7.39022e-06
1598.95	5.73552e-06
1607.63	4.48068e-06
1616.31	4.53362e-06
1624.98	3.40713e-06
1633.66	3.35503e-06
1642.34	3.87893e-06
1651.02	5.0391e-06
1659.7	6.06009e-06
1668.38	8.78644e-06
1677.05	1.19865e-05
1685.73	1.78625e-05
1694.41	3.18851e-05
1703.09	8.13591e-05
1711.77	0.000202314
1720.44	0.00033499
1729.12	0.000398078
1737.8	0.000512679
1746.48	0.000450297
1755.16	0.000344555
1763.84	0.000229447
1772.51	0.000134308
1781.19	7.82248e-05
1789.87	5.50974e-05
1798.55	3.50257e-05
1807.23	2.1722e-05
1815.9	1.25719e-05
1824.58	7.9588e-06
1833.26	5.51035e-06
1841.94	4.32489e-06
1850.62	2.8088e-06
1859.29	2.03253e-06
1867.97	1.92111e-06
1876.65	1.38237e-06
1885.33	1.17387e-06
1894.01	9.38965e-07
1902.69	7.48484e-07
1911.36	5.25054e-07
1920.04	3.78643e-07
1928.72	3.86551e-07
1937.4	4.21127e-07
1946.08	4.98461e-07
1954.75	6.30067e-07
1963.43	8.35081e-07
1972.11	1.01536e-06
1980.79	1.17073e-06
1989.47	1.03464e-06
1998.15	8.93453e-07
2006.82	5.94426e-07
2015.5	2.3358e-07
2024.18	1.4703e-07
2032.86	1.81674e-07
2041.54	1.97985e-07
2050.21	2.40416e-07
2058.89	3.45606e-07
2067.57	4.80732e-07
2076.25	8.25689e-07
2084.93	1.47258e-06
2093.6	2.44769e-06
2102.28	3.07955e-06
2110.96	4.15633e-06
2119.64	5.34236e-06
2128.32	5.69271e-06
2137	5.49945e-06
2145.67	5.40916e-06
2154.35	3.86042e-06
2163.03	2.04083e-06
2171.71	9.72172e-07
2180.39	7.1612e-07
2189.06	5.38933e-07
2197.74	5.92996e-07
2206.42	6.46274e-07
2215.1	9.02345e-07
2223.78	1.23552e-06
2232.46	1.74951e-06
2241.13	2.09253e-06
2249.81	2.1013e-06
2258.49	2.26022e-06
2267.17	1.82192e-06
2275.85	1.37903e-06
2284.52	1.02562e-06
2293.2	8.41224e-07
2301.88	6.77843e-07
2310.56	7.19925e-07
2319.24	8.31116e-07
2327.92	7.4601e-07
2336.59	6.36326e-07
2345.27	5.80526e-07
2353.95	4.54853e-07
2362.63	6.86988e-07
2371.31	4.18177e-07
2379.98	1.84898e-07
2388.66	1.45425e-07
2397.34	2.60171e-07
2406.02	4.94203e-07
2414.7	7.41798e-07
2423.37	9.73837e-07
2432.05	9.74038e-07
2440.73	9.78374e-07
2449.41	1.1067e-06
2458.09	3.848e-07
2466.77	2.95709e-07
2475.44	2.78626e-07
2484.12	3.77071e-07
2492.8	4.66297e-07
2501.48	5.38077e-07
2510.16	6.53487e-07
2518.83	6.28714e-07
2527.51	6.44496e-07
2536.19	8.69518e-07
2544.87	1.1795e-06
2553.55	1.88969e-06
2562.23	2.54153e-06
2570.9	2.77618e-06
2579.58	2.51266e-06
2588.26	2.4548e-06
2596.94	1.21251e-06
2605.62	5.55962e-07
2614.29	4.80828e-07
2622.97	4.58504e-07
2631.65	5.10836e-07
2640.33	5.85809e-07
2649.01	5.81371e-07
2657.68	5.53506e-07
2666.36	4.12848e-07
2675.04	3.24006e-07
2683.72	3.48951e-07
2692.4	3.6817e-07
2701.08	3.65917e-07
2709.75	5.29486e-07
2718.43	5.4748e-07
2727.11	4.68536e-07
2735.79	4.5615e-07
2744.47	5.09812e-07
2753.14	6.22103e-07
2761.82	9.63903e-07
2770.5	1.44979e-06
2779.18	2.17074e-06
2787.86	2.56019e-06
2796.54	2.97213e-06
2805.21	3.04106e-06
2813.89	3.07485e-06
2822.57	3.48621e-06
2831.25	4.84323e-06
2839.93	6.81344e-06
2848.6	8.11293e-06
2857.28	9.10321e-06
2865.96	9.71342e-06
2874.64	8.99304e-06
2883.32	8.5104e-06
2892	9.52066e-06
2900.67	1.25452e-05
2909.35	1.9712e-05
2918.03	3.09568e-05
2926.71	3.69124e-05
2935.39	3.9496e-05
2944.06	4.85452e-05
2952.74	4.63698e-05
2961.42	3.90555e-05
2970.1	0.000132914
2978.78	3.7946e-05
2987.45	4.48842e-05
2996.13	5.21657e-05
3004.81	5.81551e-05
3013.49	5.74988e-05
3022.17	5.62735e-05
3030.85	5.38687e-05
3039.52	3.41269e-05
3048.2	2.39604e-05
3056.88	2.16297e-05
3065.56	2.0569e-05
3074.24	1.95432e-05
3082.91	1.75635e-05
3091.59	1.4931e-05
3100.27	1.13727e-05
3108.95	8.29732e-06
3117.63	5.62007e-06
3126.31	3.8139e-06
3134.98	2.81556e-06
3143.66	2.25726e-06
3152.34	2.03525e-06
3161.02	1.78245e-06
3169.7	1.68801e-06
3178.37	1.55021e-06
3187.05	1.30896e-06
3195.73	1.09937e-06
3204.41	9.27372e-07
3213.09	7.8043e-07
3221.77	7.10589e-07
3230.44	6.68024e-07
3239.12	6.08939e-07
3247.8	5.22243e-07
3256.48	5.2332e-07
3265.16	4.85663e-07
3273.83	4.45114e-07
3282.51	4.32273e-07
3291.19	5.03374e-07
3299.87	5.37595e-07
3308.55	4.46105e-07
3317.22	4.43054e-07
3325.9	3.88843e-07
3334.58	3.1677e-07
3343.26	2.42693e-07
3351.94	2.80704e-07
3360.62	2.52688e-07
3369.29	2.43008e-07
3377.97	5.156e-07
3386.65	6.67181e-07
3395.33	6.26255e-07
3404.01	7.08322e-07
3412.68	9.76704e-07
3421.36	1.98301e-06
3430.04	4.45131e-06
3438.72	7.54109e-06
3447.4	9.77319e-06
3456.08	1.16519e-05
3464.75	1.11169e-05
3473.43	8.81418e-06
3482.11	5.76016e-06
3490.79	3.51428e-06
3499.47	2.40656e-06
3508.14	1.44056e-06
3516.82	7.74781e-07
3525.5	5.4116e-07
3534.18	1.90645e-07
3542.86	1.79107e-07
3551.53	1.06108e-07
3560.21	1.70674e-07
3568.89	5.67634e-08
3577.57	-4.0561e-08
3586.25	2.76218e-07
3594.93	-1.18232e-09
3603.6	-2.91516e-08
3612.28	4.40406e-07
3620.96	1.92731e-07
3629.64	2.11285e-06
3638.32	1.40115e-07
3646.99	6.67904e-07
3655.67	3.11122e-07
3664.35	9.43504e-08
3673.03	1.73858e-07
3681.71	1.53145e-07
3690.39	4.10446e-07
3699.06	2.43001e-07
3707.74	2.20015e-07
3716.42	2.87668e-07
3725.1	5.47606e-07
3733.78	4.71679e-07
3742.45	4.14164e-07
3751.13	6.92211e-07
3759.81	1.21623e-06
3768.49	4.81181e-07
3777.17	4.95314e-07
3785.85	5.75752e-07
3794.52	6.62565e-07
3803.2	1.00752e-06
3811.88	7.28361e-07
3820.56	1.70077e-06
3829.24	6.91881e-07
3837.91	4.13891e-06
3846.59	4.72311e-07
3855.27	6.78685e-07
3863.95	4.80897e-07
3872.63	3.94303e-07
3881.3	4.81496e-07
3889.98	3.87662e-07
3898.66	5.35854e-07
3907.34	4.89596e-07
3916.02	5.8513e-07
3924.7	7.26617e-07
3933.37	7.0164e-07
3942.05	6.73374e-07
3950.73	6.52243e-07
3959.41	7.36493e-07
3968.09	8.48538e-07
