Infrared Spectrum: Chloroform
Formula: C H Cl3
CAS: 67-66-3
State: gas
Melting point: -63.5 C
Boiling point: 61.7 C
Class: IUPAC A
Instrument: IFS66V (Bruker)
Instrument parameters: KBr Beam Splitter; MCT Detector; Multipass cell
Sampling: 1 L/min Flow
Resolution: 0.2410
Temperature: 23 C
Pressure: 101.3 Pa
Origin: NIST, Analytical Chemistry Division, 301-975-3108
cm-1	(micromol/mol)-1m-1 (base 10)
575.05	-2.40741e-06
583.608	-5.24836e-07
592.165	1.62333e-06
600.723	2.41698e-07
609.281	2.1631e-06
617.838	1.49924e-06
626.396	4.61389e-06
634.954	1.98586e-06
643.511	8.73933e-07
652.069	1.2451e-06
660.626	4.26297e-06
669.184	1.34661e-05
677.742	1.09254e-05
686.299	4.47129e-05
694.857	5.6924e-06
703.415	2.58564e-07
711.972	1.90317e-07
720.53	5.26357e-07
729.088	2.5209e-06
737.645	1.48308e-05
746.203	6.77139e-05
754.761	0.000239993
763.318	0.00101131
771.876	0.00281192
780.434	0.00111002
788.991	0.000161244
797.549	3.39919e-05
806.106	3.70045e-06
814.664	8.38121e-07
823.222	-1.60151e-07
831.779	1.34078e-07
840.337	1.34452e-06
848.895	3.74591e-06
857.452	5.08746e-06
866.01	9.25071e-07
874.568	7.39032e-07
883.125	4.27752e-07
891.683	-3.34909e-07
900.241	1.24169e-07
908.798	1.07979e-06
917.356	3.69978e-06
925.914	4.53517e-06
934.471	5.92384e-06
943.029	3.69343e-06
951.586	1.63626e-06
960.144	8.28677e-08
968.702	5.08688e-08
977.259	-3.9413e-08
985.817	-3.08781e-07
994.375	-2.19846e-07
1002.93	-1.12295e-07
1011.49	3.54637e-07
1020.05	1.81229e-06
1028.61	2.17957e-06
1037.16	2.14074e-06
1045.72	-7.94154e-09
1054.28	3.77614e-09
1062.84	-1.90648e-07
1071.39	1.44457e-07
1079.95	-8.74406e-08
1088.51	-2.07913e-07
1097.07	-4.98716e-07
1105.62	7.4195e-08
1114.18	-7.85786e-10
1122.74	-3.72637e-07
1131.3	1.50973e-09
1139.85	-2.51273e-07
1148.41	-4.69158e-07
1156.97	-3.82845e-07
1165.53	-3.77825e-07
1174.09	-7.60685e-08
1182.64	6.88265e-07
1191.2	2.87238e-06
1199.76	1.05715e-05
1208.32	6.84968e-05
1216.87	0.000385148
1225.43	0.00020229
1233.99	3.27367e-05
1242.55	5.39216e-06
1251.1	8.78396e-07
1259.66	1.54684e-07
1268.22	-9.36395e-08
1276.78	-7.48825e-08
1285.33	-1.96618e-07
1293.89	-1.47717e-07
1302.45	-2.76739e-07
1311.01	-3.29728e-07
1319.57	-7.64214e-08
1328.12	-1.73612e-07
1336.68	-4.51973e-07
1345.24	1.00275e-07
1353.8	-1.00765e-06
1362.35	-5.11252e-07
1370.91	-2.61019e-08
1379.47	-2.43114e-07
1388.03	-6.49325e-07
1396.58	-2.02267e-08
1405.14	-1.08028e-06
1413.7	-1.46138e-07
1422.26	5.44899e-07
1430.81	2.77945e-06
1439.37	7.72701e-06
1447.93	6.17978e-06
1456.49	-2.85871e-06
1465.05	-1.46705e-06
1473.6	-2.38614e-06
1482.16	1.18885e-06
1490.72	-1.06469e-06
1499.28	-9.88345e-08
1507.83	-1.50547e-07
1516.39	1.16801e-06
1524.95	2.77904e-06
1533.51	4.90601e-06
1542.06	1.36271e-06
1550.62	5.21441e-06
1559.18	3.88615e-06
1567.74	1.88983e-06
1576.29	-7.49495e-06
1584.85	-3.01793e-07
1593.41	-3.75053e-07
1601.97	-1.34693e-07
1610.53	-4.63716e-07
1619.08	-2.25834e-07
1627.64	-1.1545e-06
1636.2	-7.08703e-07
1644.76	-1.54014e-07
1653.31	-1.13386e-05
1661.87	-5.20856e-07
1670.43	-2.57196e-07
1678.99	-4.01759e-07
1687.54	-2.05814e-07
1696.1	-5.66085e-06
1704.66	-1.04411e-06
1713.22	-2.63853e-07
1721.77	-4.11297e-07
1730.33	-6.28062e-07
1738.89	-2.84473e-07
1747.45	-4.77565e-07
1756.01	-1.27341e-07
1764.56	-1.73331e-07
1773.12	-8.04558e-07
1781.68	-1.45381e-07
1790.24	-1.72702e-07
1798.79	-1.05208e-08
1807.35	7.21286e-08
1815.91	2.59626e-07
1824.47	3.87356e-07
1833.02	8.46015e-07
1841.58	2.09485e-07
1850.14	-1.36814e-07
1858.7	-2.22156e-07
1867.25	-2.7584e-07
1875.81	-2.90348e-07
1884.37	-1.29462e-07
1892.93	-1.53403e-07
1901.49	-1.04062e-07
1910.04	-4.12039e-07
1918.6	-1.57521e-07
1927.16	-1.36483e-07
1935.72	-3.9871e-07
1944.27	-2.6561e-07
1952.83	-1.76267e-07
1961.39	-1.3402e-07
1969.95	-2.31905e-07
1978.5	7.4777e-08
1987.06	-6.13277e-08
1995.62	-4.96137e-08
2004.18	-9.94966e-08
2012.73	2.62838e-08
2021.29	-2.17168e-07
2029.85	-1.4214e-07
2038.41	-1.68344e-07
2046.97	-4.50023e-07
2055.52	-4.14881e-07
2064.08	-1.97469e-07
2072.64	-2.55934e-07
2081.2	-2.04053e-07
2089.75	-5.30751e-07
2098.31	-3.16159e-07
2106.87	-6.86253e-08
2115.43	-4.21425e-07
2123.98	-2.24804e-07
2132.54	-1.33245e-07
2141.1	9.32758e-09
2149.66	-1.76165e-07
2158.21	-5.06006e-07
2166.77	-8.80372e-10
2175.33	-2.48167e-07
2183.89	-8.59709e-08
2192.45	6.06729e-08
2201	-1.02632e-07
2209.56	3.44425e-07
2218.12	-4.52991e-08
2226.68	-1.27825e-07
2235.23	1.55557e-08
2243.79	4.28385e-07
2252.35	-2.36089e-07
2260.91	-1.46582e-07
2269.46	7.99319e-08
2278.02	-8.76661e-08
2286.58	3.09083e-07
2295.14	1.06991e-08
2303.69	-1.87283e-07
2312.25	-1.74896e-07
2320.81	2.08699e-07
2329.37	9.74775e-08
2337.93	1.15632e-06
2346.48	5.04904e-08
2355.04	1.22732e-07
2363.6	4.40826e-07
2372.16	1.12709e-07
2380.71	5.12191e-07
2389.27	3.53742e-07
2397.83	2.21331e-06
2406.39	1.64178e-06
2414.94	1.9482e-06
2423.5	2.15926e-06
2432.06	6.20506e-07
2440.62	1.25718e-06
2449.17	5.69732e-07
2457.73	8.12208e-07
2466.29	3.60942e-07
2474.85	-1.27832e-07
2483.41	-2.11922e-07
2491.96	-1.69195e-07
2500.52	-2.90083e-07
2509.08	-2.82374e-07
2517.64	-2.68171e-07
2526.19	-3.76021e-07
2534.75	-1.77551e-07
2543.31	-4.47429e-07
2551.87	-3.06569e-07
2560.42	-4.57219e-07
2568.98	-3.14817e-07
2577.54	-2.72406e-07
2586.1	-2.5426e-07
2594.65	-3.02688e-07
2603.21	-4.88828e-07
2611.77	-4.66994e-07
2620.33	-4.7897e-07
2628.89	-2.88147e-07
2637.44	-3.98539e-07
2646	-3.68596e-07
2654.56	-3.25654e-07
2663.12	-3.46961e-07
2671.67	-4.16867e-08
2680.23	-1.87676e-07
2688.79	-2.81832e-07
2697.35	-4.04305e-07
2705.9	-4.18846e-07
2714.46	-3.01647e-07
2723.02	-4.67386e-07
2731.58	-2.2241e-07
2740.13	-4.66266e-07
2748.69	-4.08671e-07
2757.25	-3.82838e-07
2765.81	-3.07286e-07
2774.37	-4.44693e-07
2782.92	-2.92167e-07
2791.48	-4.48124e-07
2800.04	-5.99875e-07
2808.6	-1.51817e-07
2817.15	-5.086e-07
2825.71	-2.10889e-08
2834.27	-3.22471e-07
2842.83	-2.86368e-07
2851.38	-6.83743e-08
2859.94	-2.3324e-07
2868.5	-4.648e-07
2877.06	-1.14965e-07
2885.61	-4.76423e-07
2894.17	-7.02246e-07
2902.73	-5.01444e-07
2911.29	-2.20802e-07
2919.85	-3.42014e-07
2928.4	-4.4274e-07
2936.96	-5.81671e-07
2945.52	-8.82555e-07
2954.08	-4.46763e-07
2962.63	1.13732e-07
2971.19	-4.57164e-07
2979.75	-6.93456e-07
2988.31	-5.813e-07
2996.86	-7.75127e-08
3005.42	-5.08768e-07
3013.98	2.00754e-07
3022.54	6.23492e-07
3031.09	-2.12926e-07
3039.65	8.37383e-07
3048.21	6.63848e-07
3056.77	-2.37391e-07
3065.33	-3.51552e-07
3073.88	-5.34731e-07
3082.44	-4.63472e-07
3091	-1.38244e-07
3099.56	4.85514e-08
3108.11	-4.85987e-08
3116.67	-1.72527e-07
3125.23	-9.3665e-08
3133.79	-2.49789e-07
3142.34	-1.09781e-07
3150.9	-5.64166e-08
3159.46	3.72441e-07
3168.02	-1.33857e-07
3176.57	-3.15126e-07
3185.13	2.24142e-07
3193.69	-5.83883e-08
3202.25	1.23863e-07
3210.81	1.32303e-07
3219.36	1.2418e-07
3227.92	2.22101e-07
3236.48	-8.84628e-08
3245.04	1.27876e-07
3253.59	-1.02174e-07
3262.15	2.83469e-07
3270.71	1.31252e-07
3279.27	-2.00099e-07
3287.82	-1.75649e-07
3296.38	3.52003e-08
3304.94	2.30614e-07
3313.5	-9.94093e-08
3322.05	-1.07685e-07
3330.61	-2.47195e-07
3339.17	-3.10491e-07
3347.73	5.77517e-08
3356.29	2.60299e-07
3364.84	-6.32587e-07
3373.4	-3.56954e-07
3381.96	-1.08986e-06
3390.52	-1.0862e-07
3399.07	-2.08364e-07
3407.63	-2.40633e-07
3416.19	-5.10805e-07
3424.75	-5.12886e-07
3433.3	7.44751e-08
3441.86	-6.17584e-07
3450.42	-6.40641e-07
3458.98	-3.72681e-07
3467.53	-5.01117e-07
3476.09	-4.0591e-07
3484.65	-2.66884e-07
3493.21	-5.32068e-07
3501.77	-4.89199e-07
3510.32	-3.08701e-07
3518.88	-5.99057e-07
3527.44	-3.29674e-07
3536	-6.56965e-07
3544.55	-3.73652e-07
3553.11	-2.92862e-07
3561.67	-5.39915e-07
3570.23	-5.5291e-07
3578.78	2.02631e-07
3587.34	-2.07691e-07
3595.9	-5.03027e-07
3604.46	-2.13636e-07
3613.01	-6.82692e-07
3621.57	-2.89868e-07
3630.13	-3.42323e-07
3638.69	-2.31661e-07
3647.25	-1.99096e-06
3655.8	-7.28231e-07
3664.36	-7.22098e-07
3672.92	-2.78896e-07
3681.48	-1.77675e-07
3690.03	-6.96731e-08
3698.59	2.3001e-07
3707.15	1.26926e-07
3715.71	-7.71089e-08
3724.26	-2.74141e-07
3732.82	-3.23046e-07
3741.38	-1.37126e-06
3749.94	-1.27509e-06
3758.49	-5.81846e-07
3767.05	-6.1267e-07
3775.61	-2.0453e-07
3784.17	-3.28233e-07
3792.73	-1.64757e-07
3801.28	-5.25878e-06
3809.84	-1.83237e-07
3818.4	-4.29851e-07
3826.96	-6.70971e-07
3835.51	-7.2989e-07
3844.07	-6.63269e-07
3852.63	-9.17573e-07
3861.19	-8.33206e-07
3869.74	-1.31756e-06
3878.3	-7.50954e-07
3886.86	-5.58098e-07
3895.42	-2.26936e-07
3903.97	-1.45754e-06
3912.53	-8.93741e-07
3921.09	-3.60003e-07
3929.65	-9.86307e-07
3938.21	-5.60466e-07
3946.76	-4.33961e-07
3955.32	2.85317e-07
3963.88	-2.63126e-07
3972.44	-4.8554e-07
