Infrared Spectrum: Chloroform
Formula: C H Cl3
CAS: 67-66-3
State: gas
Melting point: -63.5 C
Boiling point: 61.7 C
Class: IUPAC A
Instrument: IFS66V (Bruker)
Instrument parameters: KBr Beam Splitter; MCT Detector; Multipass cell
Sampling: 1 L/min Flow
Resolution: 0.1250
Temperature: 23 C
Pressure: 101.3 Pa
Origin: NIST, Analytical Chemistry Division, 301-975-3108
cm-1	(micromol/mol)-1m-1 (base 10)
575.05	-1.90395e-06
583.608	-3.69749e-07
592.165	1.09825e-06
600.723	1.53903e-06
609.281	3.00055e-06
617.838	8.09276e-07
626.396	4.49682e-06
634.954	1.82609e-06
643.511	8.04627e-07
652.069	1.3125e-06
660.626	4.07539e-06
669.184	1.37614e-05
677.742	1.08736e-05
686.299	4.52119e-05
694.857	5.42156e-06
703.415	5.73988e-07
711.972	2.07513e-07
720.53	4.06401e-07
729.088	2.27081e-06
737.645	1.4769e-05
746.203	6.78626e-05
754.761	0.000239948
763.318	0.00101181
771.876	0.00281383
780.434	0.00110756
788.991	0.000160685
797.549	3.37975e-05
806.106	3.7081e-06
814.664	9.20269e-07
823.222	-1.54007e-07
831.779	-8.13616e-08
840.337	9.94391e-07
848.895	3.7743e-06
857.452	4.98175e-06
866.01	1.00836e-06
874.568	4.93376e-07
883.125	4.21483e-07
891.683	-2.04512e-07
900.241	-1.07478e-07
908.798	9.38327e-07
917.356	3.85112e-06
925.914	4.23512e-06
934.471	5.81042e-06
943.029	3.58874e-06
951.586	1.86965e-06
960.144	-2.4323e-08
968.702	-1.80891e-07
977.259	1.40005e-07
985.817	-2.03199e-07
994.375	-4.77387e-07
1002.93	-6.10476e-08
1011.49	4.36261e-07
1020.05	2.04681e-06
1028.61	2.29817e-06
1037.16	2.01497e-06
1045.72	-9.02454e-08
1054.28	1.58249e-09
1062.84	-4.55163e-07
1071.39	2.3156e-07
1079.95	1.3724e-07
1088.51	-1.85387e-08
1097.07	-4.83135e-07
1105.62	9.70774e-08
1114.18	1.09148e-07
1122.74	-3.90216e-07
1131.3	3.5205e-07
1139.85	-2.81934e-07
1148.41	-7.38286e-07
1156.97	-3.74416e-07
1165.53	-5.81624e-07
1174.09	-9.20789e-08
1182.64	7.06709e-07
1191.2	2.7271e-06
1199.76	1.06066e-05
1208.32	6.85411e-05
1216.87	0.000385112
1225.43	0.000201824
1233.99	3.26902e-05
1242.55	5.32655e-06
1251.1	7.8177e-07
1259.66	2.41735e-07
1268.22	-5.50887e-08
1276.78	-1.15263e-07
1285.33	-9.86526e-08
1293.89	-2.87423e-07
1302.45	-3.37262e-07
1311.01	-3.1235e-07
1319.57	8.47631e-09
1328.12	-2.15924e-07
1336.68	-4.65124e-07
1345.24	1.6897e-07
1353.8	-1.26107e-06
1362.35	-3.59981e-07
1370.91	1.38946e-07
1379.47	-2.25673e-07
1388.03	-7.7014e-07
1396.58	4.38949e-08
1405.14	-9.39946e-07
1413.7	-2.30057e-07
1422.26	5.08913e-07
1430.81	2.57662e-06
1439.37	7.81879e-06
1447.93	5.82462e-06
1456.49	-3.68125e-06
1465.05	-1.10728e-06
1473.6	-2.33887e-06
1482.16	1.13832e-06
1490.72	-1.11953e-06
1499.28	-1.37218e-07
1507.83	-1.49001e-07
1516.39	1.23398e-06
1524.95	2.6924e-06
1533.51	4.97823e-06
1542.06	1.21226e-06
1550.62	5.15896e-06
1559.18	3.89238e-06
1567.74	1.94438e-06
1576.29	-7.15965e-06
1584.85	-3.27895e-07
1593.41	-5.19343e-07
1601.97	6.62607e-08
1610.53	-5.0131e-07
1619.08	-2.78976e-07
1627.64	-1.00865e-06
1636.2	-6.76817e-07
1644.76	-7.00878e-08
1653.31	-1.30389e-05
1661.87	-6.91234e-07
1670.43	-2.5912e-07
1678.99	-4.21123e-07
1687.54	-2.10867e-07
1696.1	-4.53907e-06
1704.66	-8.13605e-07
1713.22	-2.03566e-07
1721.77	-4.38945e-07
1730.33	-6.37953e-07
1738.89	-2.87456e-07
1747.45	-5.04191e-07
1756.01	-5.30333e-08
1764.56	-1.60104e-07
1773.12	-8.5551e-07
1781.68	-2.59233e-07
1790.24	-1.77042e-07
1798.79	2.72006e-08
1807.35	1.05499e-09
1815.91	2.47566e-07
1824.47	4.10337e-07
1833.02	8.67832e-07
1841.58	1.62942e-07
1850.14	-1.50664e-07
1858.7	-2.45635e-07
1867.25	-2.24204e-07
1875.81	-2.25903e-07
1884.37	-1.86712e-07
1892.93	-1.46858e-07
1901.49	-5.55835e-08
1910.04	-4.64462e-07
1918.6	-9.82597e-08
1927.16	-2.12577e-07
1935.72	-3.60861e-07
1944.27	-2.8938e-07
1952.83	-1.46109e-07
1961.39	-7.79675e-08
1969.95	-1.51544e-07
1978.5	1.13597e-07
1987.06	-7.94408e-08
1995.62	-1.64408e-07
2004.18	-8.51996e-08
2012.73	9.40106e-08
2021.29	-1.97491e-07
2029.85	-2.02795e-07
2038.41	-1.38331e-07
2046.97	-4.07467e-07
2055.52	-3.75831e-07
2064.08	-7.88769e-08
2072.64	-2.8906e-07
2081.2	-1.78686e-07
2089.75	-7.01616e-07
2098.31	-3.05143e-07
2106.87	-8.43229e-08
2115.43	-5.0708e-07
2123.98	-6.71993e-08
2132.54	-7.35183e-08
2141.1	6.54968e-08
2149.66	-2.65094e-07
2158.21	-5.41283e-07
2166.77	4.07445e-08
2175.33	-1.75223e-07
2183.89	-1.54542e-07
2192.45	1.48219e-07
2201	-1.12156e-07
2209.56	4.0325e-07
2218.12	-3.74704e-10
2226.68	-9.47055e-08
2235.23	2.16455e-08
2243.79	4.10548e-07
2252.35	-2.1552e-07
2260.91	-1.79007e-07
2269.46	1.16908e-07
2278.02	-1.20244e-07
2286.58	2.59171e-07
2295.14	9.99186e-08
2303.69	-1.93765e-07
2312.25	-8.18637e-08
2320.81	6.46709e-08
2329.37	1.57743e-07
2337.93	8.94705e-07
2346.48	8.26676e-08
2355.04	1.11098e-07
2363.6	3.6045e-07
2372.16	1.34453e-07
2380.71	5.41491e-07
2389.27	3.83897e-07
2397.83	2.20427e-06
2406.39	1.65922e-06
2414.94	2.00255e-06
2423.5	2.04635e-06
2432.06	7.09216e-07
2440.62	1.195e-06
2449.17	4.88417e-07
2457.73	8.77552e-07
2466.29	3.16792e-07
2474.85	-8.11324e-08
2483.41	-2.05323e-07
2491.96	-1.0806e-07
2500.52	-1.71087e-07
2509.08	-4.44813e-07
2517.64	-3.02993e-07
2526.19	-3.58071e-07
2534.75	4.511e-09
2543.31	-4.09518e-07
2551.87	-3.78065e-07
2560.42	-5.8974e-07
2568.98	-3.67111e-07
2577.54	-3.27557e-07
2586.1	-2.05483e-07
2594.65	-5.79958e-07
2603.21	-7.23178e-07
2611.77	-5.54656e-07
2620.33	-6.46146e-07
2628.89	-3.65311e-07
2637.44	-5.96616e-07
2646	-4.6739e-07
2654.56	-3.57522e-07
2663.12	-4.65673e-07
2671.67	-2.6091e-08
2680.23	7.04734e-08
2688.79	-4.39124e-07
2697.35	-3.31314e-07
2705.9	-5.63332e-07
2714.46	-4.80654e-07
2723.02	-6.08934e-07
2731.58	-1.55247e-07
2740.13	-5.3042e-07
2748.69	-3.72481e-07
2757.25	-2.44878e-07
2765.81	-2.03137e-07
2774.37	-4.60049e-07
2782.92	-2.6887e-07
2791.48	-6.5416e-07
2800.04	-6.37666e-07
2808.6	-4.70562e-08
2817.15	-5.36638e-07
2825.71	1.51013e-07
2834.27	-3.14533e-07
2842.83	-2.94732e-07
2851.38	-1.92452e-07
2859.94	4.91335e-08
2868.5	-3.82143e-07
2877.06	6.86035e-08
2885.61	-6.00774e-07
2894.17	-7.87351e-07
2902.73	-6.71422e-07
2911.29	-5.10288e-08
2919.85	-2.54216e-07
2928.4	-3.35516e-07
2936.96	-4.30025e-07
2945.52	-9.24456e-07
2954.08	-5.02787e-07
2962.63	1.66627e-07
2971.19	-5.07545e-07
2979.75	-7.80897e-07
2988.31	-5.98926e-07
2996.86	2.04799e-07
3005.42	-6.38961e-07
3013.98	1.33005e-07
3022.54	8.743e-07
3031.09	-9.65826e-08
3039.65	8.93083e-07
3048.21	5.58843e-07
3056.77	-3.04718e-07
3065.33	-4.04327e-07
3073.88	-5.26775e-07
3082.44	-2.82236e-07
3091	-9.00126e-08
3099.56	5.2986e-08
3108.11	-1.79618e-07
3116.67	-2.76779e-07
3125.23	2.787e-08
3133.79	-5.6378e-07
3142.34	-2.17499e-07
3150.9	-1.50413e-07
3159.46	4.27857e-07
3168.02	-2.2675e-08
3176.57	-5.36212e-07
3185.13	7.93826e-08
3193.69	-1.50522e-07
3202.25	-4.40695e-08
3210.81	1.19483e-07
3219.36	-3.55496e-08
3227.92	4.03127e-07
3236.48	-5.57908e-08
3245.04	2.98133e-07
3253.59	-9.01945e-08
3262.15	4.08034e-07
3270.71	1.20829e-07
3279.27	-1.68333e-07
3287.82	-5.58731e-07
3296.38	1.33937e-07
3304.94	3.29918e-07
3313.5	-1.43439e-07
3322.05	1.09395e-07
3330.61	-7.13683e-08
3339.17	-4.71254e-07
3347.73	5.76898e-08
3356.29	5.55827e-07
3364.84	-6.29204e-07
3373.4	-2.17717e-07
3381.96	-1.52895e-06
3390.52	3.21096e-07
3399.07	-2.08037e-07
3407.63	1.85278e-08
3416.19	-7.73647e-07
3424.75	-6.80113e-07
3433.3	4.05826e-07
3441.86	-5.11281e-07
3450.42	-8.94731e-07
3458.98	-4.85088e-07
3467.53	-5.00386e-07
3476.09	-4.01697e-07
3484.65	-5.78226e-07
3493.21	-6.52803e-07
3501.77	-3.70666e-07
3510.32	-3.55928e-07
3518.88	-6.01203e-07
3527.44	-1.16446e-07
3536	-6.77639e-07
3544.55	-4.1017e-07
3553.11	-3.75202e-07
3561.67	-4.85092e-07
3570.23	-5.50443e-07
3578.78	3.55466e-07
3587.34	1.00824e-07
3595.9	-3.89906e-07
3604.46	5.82028e-08
3613.01	-7.62005e-07
3621.57	-4.38043e-07
3630.13	-1.64804e-07
3638.69	-2.58025e-07
3647.25	-1.8405e-06
3655.8	-8.58577e-07
3664.36	-7.7934e-07
3672.92	-4.09591e-08
3681.48	4.99847e-08
3690.03	4.84896e-08
3698.59	1.72338e-07
3707.15	2.25462e-07
3715.71	-1.91688e-07
3724.26	-1.62356e-07
3732.82	-2.23393e-07
3741.38	-1.42139e-06
3749.94	-1.1806e-06
3758.49	-4.12443e-07
3767.05	-7.82021e-07
3775.61	-1.35457e-07
3784.17	-2.09718e-07
3792.73	4.91444e-08
3801.28	-4.92902e-06
3809.84	-3.59494e-07
3818.4	-5.41978e-07
3826.96	-5.31763e-07
3835.51	-8.5527e-07
3844.07	-7.51325e-07
3852.63	-6.95024e-07
3861.19	-9.4342e-07
3869.74	-1.13828e-06
3878.3	-7.45664e-07
3886.86	-4.31972e-07
3895.42	-4.78166e-08
3903.97	-9.78453e-07
3912.53	-8.02663e-07
3921.09	-3.87393e-07
3929.65	-1.05047e-06
3938.21	-6.35952e-07
3946.76	-4.72196e-07
3955.32	4.59954e-07
3963.88	-4.5481e-08
3972.44	-6.96149e-07
