Infrared Spectrum: Chloroform
Formula: C H Cl3
CAS: 67-66-3
State: gas
Melting point: -63.5 C
Boiling point: 61.7 C
Class: IUPAC A
Instrument: IFS66V (Bruker)
Instrument parameters: KBr Beam Splitter; MCT Detector; Multipass cell
Sampling: 1 L/min Flow
Resolution: 0.4820
Temperature: 23 C
Pressure: 101.3 Pa
Origin: NIST, Analytical Chemistry Division, 301-975-3108
cm-1	(micromol/mol)-1m-1 (base 10)
575.17	-3.33525e-06
583.848	-9.16798e-07
592.526	-5.00313e-07
601.205	-2.6855e-08
609.883	1.07777e-06
618.561	1.33232e-06
627.239	5.63998e-06
635.917	1.90857e-06
644.595	7.36791e-07
653.274	8.69251e-07
661.952	3.64891e-06
670.63	2.32156e-05
679.308	1.83264e-05
687.986	3.88576e-05
696.664	3.28191e-06
705.343	-1.47098e-07
714.021	3.55579e-07
722.699	7.8623e-07
731.377	4.65757e-06
740.055	2.30711e-05
748.734	9.81779e-05
757.412	0.000363983
766.09	0.00161501
774.768	0.00257516
783.446	0.000553147
792.124	8.66672e-05
800.803	1.50392e-05
809.481	1.9069e-06
818.159	1.57179e-07
826.837	5.12813e-07
835.515	7.83214e-07
844.193	2.22823e-06
852.872	4.56032e-06
861.55	2.14067e-06
870.228	4.92488e-07
878.906	4.46392e-07
887.584	6.61443e-08
896.263	1.65488e-08
904.941	7.27744e-07
913.619	2.39698e-06
922.297	4.41681e-06
930.975	7.3379e-06
939.653	2.93445e-06
948.332	2.38005e-06
957.01	5.00269e-07
965.688	9.68154e-08
974.366	-3.37925e-08
983.044	-1.3035e-07
991.723	-9.92892e-08
1000.4	-8.15908e-08
1009.08	1.42402e-07
1017.76	1.25133e-06
1026.44	2.05554e-06
1035.11	2.04262e-06
1043.79	5.1716e-07
1052.47	-1.97385e-07
1061.15	-1.62374e-07
1069.83	2.34015e-07
1078.5	-1.25853e-07
1087.18	-2.39887e-07
1095.86	-2.09543e-07
1104.54	-1.57477e-07
1113.22	-1.85071e-07
1121.9	-2.84211e-07
1130.57	-1.39579e-07
1139.25	-3.56907e-07
1147.93	-1.86621e-07
1156.61	-4.49892e-07
1165.29	-4.00205e-07
1173.96	-3.59388e-08
1182.64	6.36796e-07
1191.32	2.7328e-06
1200	1.1243e-05
1208.68	7.52259e-05
1217.36	0.000426031
1226.03	0.000178016
1234.71	2.84364e-05
1243.39	4.4812e-06
1252.07	5.02285e-07
1260.75	-8.57198e-08
1269.42	-1.98e-07
1278.1	-3.95916e-07
1286.78	-2.97744e-07
1295.46	-2.90927e-07
1304.14	-3.4989e-07
1312.82	-1.61766e-07
1321.49	-2.08332e-07
1330.17	-7.09027e-09
1338.85	-2.83898e-07
1347.53	-2.00848e-07
1356.21	-2.4482e-07
1364.88	-5.67905e-07
1373.56	-9.292e-07
1382.24	-1.27228e-07
1390.92	-1.41496e-07
1399.6	-3.62608e-07
1408.28	-2.59601e-08
1416.95	1.55971e-07
1425.63	1.22645e-06
1434.31	4.40463e-06
1442.99	8.84822e-06
1451.67	4.19911e-06
1460.34	3.36255e-07
1469.02	1.19838e-06
1477.7	1.39235e-06
1486.38	1.25433e-06
1495.06	2.21188e-07
1503.73	2.06596e-07
1512.41	-1.78374e-07
1521.09	-1.59025e-06
1529.77	4.52343e-06
1538.45	4.71617e-06
1547.13	7.40194e-06
1555.8	4.52405e-06
1564.48	2.58795e-06
1573.16	3.16716e-07
1581.84	-1.29447e-07
1590.52	-1.58125e-07
1599.19	-2.57571e-07
1607.87	-2.17383e-07
1616.55	-5.24019e-06
1625.23	-2.56807e-07
1633.91	-3.86563e-07
1642.59	-3.40489e-07
1651.26	-5.1963e-07
1659.94	-2.95336e-07
1668.62	-6.42671e-07
1677.3	-2.15102e-07
1685.98	-3.73154e-07
1694.65	-3.73179e-07
1703.33	-3.1052e-07
1712.01	-2.89566e-07
1720.69	-2.21966e-07
1729.37	-3.67963e-07
1738.05	-1.65015e-07
1746.72	-4.31157e-07
1755.4	-3.34061e-07
1764.08	-2.19915e-07
1772.76	-3.79615e-06
1781.44	-1.22052e-07
1790.11	-9.85143e-08
1798.79	-4.05735e-08
1807.47	6.09894e-08
1816.15	3.52891e-07
1824.83	-2.36136e-08
1833.51	8.26167e-07
1842.18	1.58769e-07
1850.86	4.86387e-09
1859.54	-1.6515e-07
1868.22	-4.20094e-07
1876.9	-2.3511e-07
1885.57	-3.34148e-07
1894.25	-6.69119e-08
1902.93	-2.44776e-07
1911.61	-2.80719e-07
1920.29	-2.71529e-07
1928.97	-2.40993e-07
1937.64	-2.47323e-07
1946.32	-3.35633e-07
1955	-2.75182e-07
1963.68	-1.70607e-07
1972.36	-1.8215e-08
1981.03	-1.44243e-08
1989.71	-5.55107e-08
1998.39	-8.36826e-08
2007.07	-1.35825e-07
2015.75	-2.32134e-07
2024.43	-2.72086e-07
2033.1	-2.77001e-07
2041.78	-3.14478e-07
2050.46	-2.37428e-07
2059.14	-2.26819e-07
2067.82	-3.88149e-07
2076.49	-3.68476e-07
2085.17	-3.08443e-07
2093.85	-2.83065e-07
2102.53	-3.21154e-07
2111.21	-5.03278e-07
2119.89	-3.40296e-07
2128.56	-1.13939e-07
2137.24	-2.02686e-07
2145.92	-2.34193e-07
2154.6	-4.38771e-07
2163.28	-1.79479e-07
2171.95	-2.56657e-07
2180.63	-1.55829e-07
2189.31	-5.65803e-08
2197.99	-1.12367e-07
2206.67	2.26066e-07
2215.35	1.89225e-07
2224.02	1.09137e-10
2232.7	1.0885e-07
2241.38	1.01654e-07
2250.06	-1.62403e-07
2258.74	-1.73313e-07
2267.41	-9.62952e-09
2276.09	7.73527e-08
2284.77	1.07424e-07
2293.45	2.61911e-07
2302.13	-4.69507e-08
2310.81	1.0742e-07
2319.48	5.89911e-07
2328.16	4.50914e-07
2336.84	2.78787e-07
2345.52	5.34957e-07
2354.2	2.06023e-06
2362.87	3.87521e-06
2371.55	1.55899e-06
2380.23	1.02672e-07
2388.91	4.63145e-07
2397.59	2.19413e-06
2406.27	1.49119e-06
2414.94	1.83616e-06
2423.62	2.22381e-06
2432.3	5.81591e-07
2440.98	1.27009e-06
2449.66	6.53243e-07
2458.33	7.39909e-07
2467.01	2.23156e-07
2475.69	-1.25649e-07
2484.37	-3.49104e-07
2493.05	-2.59768e-07
2501.73	-1.29538e-07
2510.4	-3.21088e-07
2519.08	-2.07422e-07
2527.76	-3.01033e-07
2536.44	-3.48009e-07
2545.12	-4.44217e-07
2553.79	-3.55921e-07
2562.47	-2.33706e-07
2571.15	-3.86367e-07
2579.83	-3.22285e-07
2588.51	-2.34434e-07
2597.19	-2.16582e-07
2605.86	-3.40122e-07
2614.54	-1.04993e-07
2623.22	-3.43392e-07
2631.9	-2.69903e-07
2640.58	-2.70685e-07
2649.25	-4.26536e-07
2657.93	-2.86823e-07
2666.61	-2.94517e-07
2675.29	-3.21117e-07
2683.97	-2.04963e-07
2692.65	-3.89397e-07
2701.32	-2.54799e-07
2710	-8.29732e-08
2718.68	-3.40471e-07
2727.36	-3.10458e-07
2736.04	-1.94802e-07
2744.71	-3.48249e-07
2753.39	-1.74237e-07
2762.07	-4.08882e-07
2770.75	-3.94847e-07
2779.43	-3.48846e-07
2788.11	-3.39467e-07
2796.78	-3.563e-07
2805.46	-9.48946e-08
2814.14	-5.66748e-07
2822.82	-3.15002e-07
2831.5	-3.73612e-08
2840.17	-2.43728e-07
2848.85	-3.18917e-07
2857.53	-3.97812e-07
2866.21	-4.31739e-07
2874.89	-5.49723e-07
2883.57	-2.78059e-07
2892.24	-3.93846e-07
2900.92	-2.52059e-07
2909.6	-4.73822e-07
2918.28	-3.66955e-07
2926.96	-3.47285e-07
2935.63	-5.25262e-07
2944.31	-2.52838e-07
2952.99	-4.53555e-07
2961.67	-8.22777e-07
2970.35	-7.27103e-07
2979.03	-5.38962e-07
2987.7	-2.11107e-07
2996.38	-5.67512e-07
3005.06	-2.48549e-07
3013.74	-7.05207e-08
3022.42	6.33773e-07
3031.09	-2.22516e-07
3039.77	7.23156e-07
3048.45	7.02482e-07
3057.13	-3.94421e-07
3065.81	-3.21583e-07
3074.49	-8.82955e-08
3083.16	-2.84447e-07
3091.84	-3.44913e-07
3100.52	-1.3075e-07
3109.2	-8.80736e-08
3117.88	-5.64602e-08
3126.55	7.111e-08
3135.23	-1.2601e-07
3143.91	1.04335e-08
3152.59	-4.47789e-08
3161.27	3.05529e-07
3169.95	5.70859e-08
3178.62	1.46735e-07
3187.3	8.65165e-08
3195.98	2.04377e-08
3204.66	3.0088e-07
3213.34	8.62437e-08
3222.01	3.70898e-07
3230.69	3.51996e-07
3239.37	6.20189e-08
3248.05	1.7324e-07
3256.73	1.7614e-07
3265.4	9.85507e-09
3274.08	1.30379e-07
3282.76	6.69956e-08
3291.44	-2.12581e-07
3300.12	-1.12022e-07
3308.8	1.11e-07
3317.47	-2.34772e-07
3326.15	-2.66393e-07
3334.83	-1.36454e-07
3343.51	7.48462e-08
3352.19	-1.76904e-07
3360.86	-2.93342e-07
3369.54	1.38931e-08
3378.22	-3.04838e-07
3386.9	-8.90994e-08
3395.58	-9.60587e-08
3404.26	-1.95886e-07
3412.93	4.37716e-07
3421.61	-2.39996e-07
3430.29	-5.79405e-07
3438.97	-4.08474e-07
3447.65	-6.10949e-07
3456.32	-1.63749e-07
3465	-4.08925e-07
3473.68	-1.03164e-07
3482.36	-2.28853e-07
3491.04	-5.51939e-07
3499.72	-4.27632e-07
3508.39	-5.10907e-07
3517.07	-4.0301e-07
3525.75	-5.66974e-07
3534.43	-3.19782e-07
3543.11	-6.46382e-07
3551.78	-4.74615e-07
3560.46	-2.43386e-07
3569.14	-3.38743e-07
3577.82	-5.07116e-07
3586.5	-1.43275e-06
3595.18	-6.28189e-07
3603.85	-4.26162e-07
3612.53	-1.65232e-06
3621.21	-6.88029e-07
3629.89	-2.26812e-06
3638.57	-4.12025e-07
3647.24	-1.92083e-06
3655.92	-1.38503e-06
3664.6	-6.01108e-07
3673.28	-5.83388e-07
3681.96	-3.30241e-07
3690.64	-3.88848e-07
3699.31	-5.43138e-09
3707.99	-3.47787e-07
3716.67	2.85102e-07
3725.35	-4.95064e-07
3734.03	-7.3284e-07
3742.7	-7.01471e-07
3751.38	-1.15849e-06
3760.06	-1.59855e-06
3768.74	-5.16182e-07
3777.42	-4.6225e-07
3786.1	-5.2154e-07
3794.77	-5.72453e-07
3803.45	-2.40196e-07
3812.13	-2.34263e-07
3820.81	-2.53464e-06
3829.49	-3.87927e-07
3838.16	-3.73463e-06
3846.84	-6.14048e-07
3855.52	-5.55944e-07
3864.2	-8.15777e-07
3872.88	-6.84347e-07
3881.56	-6.69075e-07
3890.23	-5.08891e-07
3898.91	-1.10896e-06
3907.59	-4.55123e-07
3916.27	-7.02049e-07
3924.95	-5.96237e-07
3933.62	-4.2813e-07
3942.3	-7.46395e-07
3950.98	-5.85484e-07
3959.66	-7.65334e-07
3968.34	-5.05974e-07
