Infrared Spectrum: 2-Propanol
Formula: C H3 C H( O H) C H3
CAS: 67-63-0
State: gas
Melting point: -89.5 C
Boiling point: 82.4 C
Class: IUPAC A
Instrument: IFS66V (Bruker)
Instrument parameters: KBr Beam splitter; MCT Detector; Multipass cell
Sampling: 1 L/min Flow
Resolution: 0.2410
Temperature: 23 C
Pressure: 101.3 kPa
Origin: NIST, Anayltical Chemistry Division, 301-975-3108
cm-1	(micromol/mol)-1m-1 (base 10)
575.048	2.29243e-06
583.606	3.02026e-06
592.163	3.29447e-06
600.721	3.4544e-06
609.279	3.87415e-06
617.836	3.96616e-06
626.394	4.27425e-06
634.951	4.07497e-06
643.509	4.23795e-06
652.067	3.66839e-06
660.624	3.47839e-06
669.182	3.10176e-06
677.74	3.19328e-06
686.297	2.91275e-06
694.855	2.61455e-06
703.412	2.75595e-06
711.97	2.51718e-06
720.528	2.34487e-06
729.085	1.86448e-06
737.643	1.55549e-06
746.201	1.36163e-06
754.758	1.13567e-06
763.316	1.15879e-06
771.873	1.06774e-06
780.431	2.11124e-06
788.989	5.42658e-06
797.546	1.54843e-05
806.104	2.39083e-05
814.662	2.88185e-05
823.219	2.48167e-05
831.777	2.35591e-05
840.334	9.26427e-06
848.892	3.40688e-06
857.45	1.95665e-06
866.007	1.62065e-06
874.565	1.48216e-06
883.123	1.5324e-06
891.68	2.08273e-06
900.238	3.27133e-06
908.795	5.91661e-06
917.353	1.30108e-05
925.911	3.40826e-05
934.468	8.75777e-05
943.026	0.00013854
951.584	0.000166549
960.141	0.000144691
968.699	0.000138464
977.256	5.16976e-05
985.814	1.3675e-05
994.372	6.77444e-06
1002.93	5.41305e-06
1011.49	5.12797e-06
1020.04	5.74207e-06
1028.6	7.87938e-06
1037.16	1.39599e-05
1045.72	3.14049e-05
1054.28	6.43943e-05
1062.83	9.66875e-05
1071.39	0.000138332
1079.95	0.000124795
1088.51	0.000116136
1097.06	8.04993e-05
1105.62	6.12751e-05
1114.18	7.16896e-05
1122.74	9.41838e-05
1131.29	0.00012018
1139.85	0.000144128
1148.41	0.000175737
1156.97	0.000174551
1165.52	0.000146629
1174.08	0.000109176
1182.64	7.12835e-05
1191.2	3.55143e-05
1199.75	2.1513e-05
1208.31	1.90385e-05
1216.87	2.55142e-05
1225.43	4.5129e-05
1233.99	7.90534e-05
1242.54	9.89125e-05
1251.1	0.000126507
1259.66	9.8012e-05
1268.22	7.89391e-05
1276.77	4.14239e-05
1285.33	2.34588e-05
1293.89	1.64316e-05
1302.45	1.50544e-05
1311	1.65138e-05
1319.56	2.16612e-05
1328.12	3.16236e-05
1336.68	4.23988e-05
1345.23	4.98998e-05
1353.79	6.52431e-05
1362.35	8.55499e-05
1370.91	0.000130979
1379.46	0.000189311
1388.02	0.000185225
1396.58	0.000158664
1405.14	8.29981e-05
1413.7	4.35089e-05
1422.25	2.5373e-05
1430.81	2.14497e-05
1439.37	2.54802e-05
1447.93	3.16685e-05
1456.48	4.41585e-05
1465.04	4.51101e-05
1473.6	7.83991e-05
1482.16	2.96922e-05
1490.71	2.41577e-05
1499.27	1.34292e-05
1507.83	6.25415e-06
1516.39	3.47284e-06
1524.94	2.33035e-06
1533.5	1.8553e-06
1542.06	1.74324e-06
1550.62	1.32161e-06
1559.18	1.23149e-06
1567.73	1.08418e-06
1576.29	1.37385e-06
1584.85	1.0085e-06
1593.41	1.0026e-06
1601.96	9.21732e-07
1610.52	8.99513e-07
1619.08	9.30503e-07
1627.64	1.01267e-06
1636.19	1.12085e-06
1644.75	1.31809e-06
1653.31	1.9265e-06
1661.87	1.64578e-06
1670.42	1.69839e-06
1678.98	1.65682e-06
1687.54	1.59293e-06
1696.1	1.77439e-06
1704.65	1.60348e-06
1713.21	1.67441e-06
1721.77	1.8308e-06
1730.33	1.95544e-06
1738.89	2.23516e-06
1747.44	3.03467e-06
1756	3.83258e-06
1764.56	3.93311e-06
1773.12	3.77756e-06
1781.67	3.30422e-06
1790.23	1.51654e-06
1798.79	6.24216e-07
1807.35	5.24514e-07
1815.9	5.99194e-07
1824.46	6.51988e-07
1833.02	7.24233e-07
1841.58	6.45976e-07
1850.13	5.83599e-07
1858.69	8.66425e-07
1867.25	9.37205e-07
1875.81	1.38595e-06
1884.36	1.8099e-06
1892.92	2.24332e-06
1901.48	2.38027e-06
1910.04	2.05559e-06
1918.6	1.58803e-06
1927.15	6.77054e-07
1935.71	2.87745e-07
1944.27	2.172e-07
1952.83	2.91038e-07
1961.38	3.69421e-07
1969.94	4.08754e-07
1978.5	5.36244e-07
1987.06	5.34969e-07
1995.61	5.15381e-07
2004.17	5.31467e-07
2012.73	6.3172e-07
2021.29	7.23001e-07
2029.84	7.73839e-07
2038.4	8.12523e-07
2046.96	7.21841e-07
2055.52	8.07963e-07
2064.08	1.0038e-06
2072.63	1.23087e-06
2081.19	1.32966e-06
2089.75	1.26831e-06
2098.31	1.13715e-06
2106.86	8.82806e-07
2115.42	8.97748e-07
2123.98	8.0807e-07
2132.54	7.7461e-07
2141.09	9.73401e-07
2149.65	1.12768e-06
2158.21	1.72108e-06
2166.77	1.40783e-06
2175.32	1.38155e-06
2183.88	1.54581e-06
2192.44	1.74815e-06
2201	1.51902e-06
2209.55	1.42178e-06
2218.11	7.56385e-07
2226.67	4.63627e-07
2235.23	3.89292e-07
2243.79	3.80416e-07
2252.34	4.79732e-07
2260.9	5.62317e-07
2269.46	7.84839e-07
2278.02	1.08761e-06
2286.57	1.43451e-06
2295.13	1.92071e-06
2303.69	2.29667e-06
2312.25	2.70268e-06
2320.8	2.60121e-06
2329.36	2.44242e-06
2337.92	1.75883e-06
2346.48	1.21896e-06
2355.03	8.55952e-07
2363.59	7.56407e-07
2372.15	8.7128e-07
2380.71	1.04623e-06
2389.26	1.18307e-06
2397.82	1.16025e-06
2406.38	1.11204e-06
2414.94	1.20931e-06
2423.5	1.24364e-06
2432.05	1.37266e-06
2440.61	1.3246e-06
2449.17	1.44648e-06
2457.73	1.36768e-06
2466.28	1.27226e-06
2474.84	1.44659e-06
2483.4	1.68357e-06
2491.96	1.91319e-06
2500.51	2.0736e-06
2509.07	2.1111e-06
2517.63	1.9189e-06
2526.19	1.67932e-06
2534.74	1.64797e-06
2543.3	1.42783e-06
2551.86	1.30083e-06
2560.42	1.32063e-06
2568.98	1.50016e-06
2577.53	1.76984e-06
2586.09	2.18589e-06
2594.65	2.67541e-06
2603.21	3.50695e-06
2611.76	3.99779e-06
2620.32	4.73718e-06
2628.88	6.70629e-06
2637.44	7.73382e-06
2645.99	8.42354e-06
2654.55	8.64145e-06
2663.11	9.32571e-06
2671.67	8.18968e-06
2680.22	6.77227e-06
2688.78	5.6285e-06
2697.34	4.7769e-06
2705.9	4.65816e-06
2714.45	5.6373e-06
2723.01	6.25288e-06
2731.57	6.99602e-06
2740.13	7.15081e-06
2748.69	6.99479e-06
2757.24	7.38577e-06
2765.8	8.41591e-06
2774.36	8.9002e-06
2782.92	9.87228e-06
2791.47	1.10484e-05
2800.03	1.21456e-05
2808.59	1.32836e-05
2817.15	1.55274e-05
2825.7	1.79128e-05
2834.26	2.04091e-05
2842.82	2.37283e-05
2851.38	3.79719e-05
2859.93	5.65034e-05
2868.49	8.56936e-05
2877.05	0.000108256
2885.61	0.00015305
2894.16	0.000143621
2902.72	0.000131359
2911.28	0.000115349
2919.84	0.000102556
2928.4	0.000112187
2936.95	0.000118397
2945.51	0.000148403
2954.07	0.000215032
2962.63	0.000283949
2971.18	0.000464284
2979.74	0.000522939
2988.3	0.000307185
2996.86	0.000247381
3005.41	0.000127737
3013.97	3.54942e-05
3022.53	8.66941e-06
3031.09	3.24143e-06
3039.64	2.01382e-06
3048.2	1.52428e-06
3056.76	1.20956e-06
3065.32	1.18083e-06
3073.88	1.17254e-06
3082.43	1.21997e-06
3090.99	1.25667e-06
3099.55	1.3784e-06
3108.11	1.43272e-06
3116.66	1.57432e-06
3125.22	1.76463e-06
3133.78	1.87327e-06
3142.34	1.93958e-06
3150.89	2.31605e-06
3159.45	2.83642e-06
3168.01	3.60718e-06
3176.57	4.42468e-06
3185.12	5.08691e-06
3193.68	5.10485e-06
3202.24	5.15624e-06
3210.8	4.49183e-06
3219.35	4.16789e-06
3227.91	3.76002e-06
3236.47	3.22332e-06
3245.03	2.36227e-06
3253.59	1.38215e-06
3262.14	8.91733e-07
3270.7	4.23107e-07
3279.26	3.41593e-07
3287.82	2.90079e-07
3296.37	3.24141e-07
3304.93	5.00287e-07
3313.49	7.28097e-07
3322.05	1.09844e-06
3330.6	1.55616e-06
3339.16	1.86699e-06
3347.72	1.72946e-06
3356.28	1.63414e-06
3364.83	1.47666e-06
3373.39	1.3235e-06
3381.95	1.31645e-06
3390.51	1.46009e-06
3399.06	1.81953e-06
3407.62	1.87455e-06
3416.18	2.10999e-06
3424.74	2.58372e-06
3433.3	2.49862e-06
3441.85	2.52207e-06
3450.41	3.3612e-06
3458.97	2.57798e-06
3467.53	2.26151e-06
3476.08	1.91624e-06
3484.64	1.50332e-06
3493.2	1.23092e-06
3501.76	9.12644e-07
3510.31	7.79738e-07
3518.87	8.32127e-07
3527.43	9.13383e-07
3535.99	1.08307e-06
3544.54	1.23749e-06
3553.1	1.14933e-06
3561.66	9.85098e-07
3570.22	9.66855e-07
3578.78	1.01097e-06
3587.33	1.0713e-06
3595.89	1.63285e-06
3604.45	2.33802e-06
3613.01	4.83742e-06
3621.56	8.58055e-06
3630.12	1.35978e-05
3638.68	3.15045e-05
3647.24	4.87881e-05
3655.79	5.57507e-05
3664.35	4.83546e-05
3672.91	4.12918e-05
3681.47	1.91815e-05
3690.02	6.00316e-06
3698.58	2.66087e-06
3707.14	1.79011e-06
3715.7	1.57038e-06
3724.25	1.22299e-06
3732.81	1.12052e-06
3741.37	1.16988e-06
3749.93	1.04069e-06
3758.49	9.3573e-07
3767.04	1.10953e-06
3775.6	1.40398e-06
3784.16	1.93353e-06
3792.72	2.18306e-06
3801.27	2.62044e-06
3809.83	2.55295e-06
3818.39	2.64094e-06
3826.95	2.66254e-06
3835.5	2.58288e-06
3844.06	2.46141e-06
3852.62	2.33934e-06
3861.18	2.18071e-06
3869.73	2.45809e-06
3878.29	2.20872e-06
3886.85	2.14657e-06
3895.41	2.55415e-06
3903.96	2.07781e-06
3912.52	1.90527e-06
3921.08	1.48753e-06
3929.64	1.36392e-06
3938.2	1.16558e-06
3946.75	1.11939e-06
3955.31	9.00581e-07
3963.87	8.29096e-07
3972.43	8.17765e-07
