Infrared Spectrum: 2-Propanol
Formula: C H3 C H( O H) C H3
CAS: 67-63-0
State: gas
Melting point: -89.5 C
Boiling point: 82.4 C
Class: IUPAC A
Instrument: IFS66V (Bruker)
Instrument parameters: KBr Beam splitter; MCT Detector; Multipass cell
Sampling: 1 L/min Flow
Resolution: 0.9640
Temperature: 23 C
Pressure: 101.3 kPa
Origin: NIST, Anayltical Chemistry Division, 301-975-3108
cm-1	(micromol/mol)-1m-1 (base 10)
575.169	2.56336e-06
583.847	2.88407e-06
592.525	3.26453e-06
601.203	3.56617e-06
609.882	3.92341e-06
618.56	4.05984e-06
627.238	4.31071e-06
635.916	4.15662e-06
644.594	4.11435e-06
653.272	3.79479e-06
661.951	3.49838e-06
670.629	3.20818e-06
679.307	2.93658e-06
687.985	2.84061e-06
696.663	2.68976e-06
705.341	2.67961e-06
714.019	2.35024e-06
722.698	2.18943e-06
731.376	1.84101e-06
740.054	1.47429e-06
748.732	1.19232e-06
757.41	1.06908e-06
766.088	1.07017e-06
774.767	1.29799e-06
783.445	2.63329e-06
792.123	8.47589e-06
800.801	1.9837e-05
809.479	2.5009e-05
818.157	2.71572e-05
826.835	2.59689e-05
835.514	1.71467e-05
844.192	5.60779e-06
852.87	2.57747e-06
861.548	1.69172e-06
870.226	1.54134e-06
878.904	1.49763e-06
887.583	1.77115e-06
896.261	2.59023e-06
904.939	4.42224e-06
913.617	8.90524e-06
922.295	2.22959e-05
930.973	6.13984e-05
939.651	0.000125424
948.33	0.000148679
957.008	0.000180913
965.686	0.000149071
974.364	7.99171e-05
983.042	2.01122e-05
991.72	7.9007e-06
1000.4	5.58896e-06
1009.08	5.20747e-06
1017.75	5.25816e-06
1026.43	7.15382e-06
1035.11	1.18695e-05
1043.79	2.55922e-05
1052.47	5.66329e-05
1061.15	9.30882e-05
1069.82	0.000127344
1078.5	0.000127454
1087.18	0.000117092
1095.86	8.57179e-05
1104.54	6.18947e-05
1113.21	6.95402e-05
1121.89	9.20229e-05
1130.57	0.000117252
1139.25	0.000142654
1147.93	0.000173646
1156.61	0.000175548
1165.28	0.000148646
1173.96	0.000109665
1182.64	7.13391e-05
1191.32	3.5198e-05
1200	2.13152e-05
1208.67	1.91391e-05
1217.35	2.61343e-05
1226.03	4.72952e-05
1234.71	8.17276e-05
1243.39	9.74944e-05
1252.07	0.000125759
1260.74	9.74419e-05
1269.42	7.3095e-05
1278.1	3.72067e-05
1286.78	2.17715e-05
1295.46	1.58871e-05
1304.13	1.51005e-05
1312.81	1.721e-05
1321.49	2.36035e-05
1330.17	3.46554e-05
1338.85	4.49752e-05
1347.52	5.58572e-05
1356.2	7.17003e-05
1364.88	9.42777e-05
1373.56	0.000149118
1382.24	0.000203926
1390.92	0.000181446
1399.59	0.000131844
1408.27	6.5903e-05
1416.95	3.43304e-05
1425.63	2.28636e-05
1434.31	2.25828e-05
1442.98	2.80446e-05
1451.66	3.47536e-05
1460.34	5.59076e-05
1469.02	3.69007e-05
1477.7	3.36795e-05
1486.38	2.78648e-05
1495.05	1.84404e-05
1503.73	8.88265e-06
1512.41	4.45008e-06
1521.09	2.85464e-06
1529.77	2.03469e-06
1538.44	1.69998e-06
1547.12	1.44094e-06
1555.8	1.26459e-06
1564.48	1.13191e-06
1573.16	1.06041e-06
1581.83	1.01614e-06
1590.51	1.00079e-06
1599.19	9.58239e-07
1607.87	9.00776e-07
1616.55	1.05706e-06
1625.23	9.51311e-07
1633.9	1.12756e-06
1642.58	1.22651e-06
1651.26	1.4681e-06
1659.94	1.58203e-06
1668.62	1.74464e-06
1677.29	1.67395e-06
1685.97	1.61084e-06
1694.65	1.55977e-06
1703.33	1.54458e-06
1712.01	1.6746e-06
1720.69	1.81412e-06
1729.36	1.89134e-06
1738.04	2.20402e-06
1746.72	2.98964e-06
1755.4	3.81566e-06
1764.08	3.91782e-06
1772.75	4.00504e-06
1781.43	3.32846e-06
1790.11	1.53194e-06
1798.79	6.40281e-07
1807.47	5.30808e-07
1816.15	6.05345e-07
1824.82	6.7688e-07
1833.5	7.22973e-07
1842.18	6.4697e-07
1850.86	6.06553e-07
1859.54	8.28462e-07
1868.21	9.87787e-07
1876.89	1.42592e-06
1885.57	1.89567e-06
1894.25	2.2851e-06
1902.93	2.40469e-06
1911.6	1.9002e-06
1920.28	1.44983e-06
1928.96	5.6273e-07
1937.64	2.59298e-07
1946.32	2.40293e-07
1955	3.43662e-07
1963.67	4.20108e-07
1972.35	4.64699e-07
1981.03	5.52419e-07
1989.71	5.02734e-07
1998.39	5.22387e-07
2007.06	6.00002e-07
2015.74	6.86316e-07
2024.42	7.83677e-07
2033.1	7.85837e-07
2041.78	7.81912e-07
2050.46	7.37528e-07
2059.13	8.73343e-07
2067.81	1.09321e-06
2076.49	1.28711e-06
2085.17	1.32672e-06
2093.85	1.21107e-06
2102.52	1.07429e-06
2111.2	9.44077e-07
2119.88	9.21484e-07
2128.56	7.44577e-07
2137.24	1.04073e-06
2145.91	9.89883e-07
2154.59	1.39139e-06
2163.27	1.41601e-06
2171.95	1.40908e-06
2180.63	1.47459e-06
2189.31	1.67991e-06
2197.98	1.69752e-06
2206.66	1.4173e-06
2215.34	9.88866e-07
2224.02	5.32005e-07
2232.7	3.84584e-07
2241.37	4.01726e-07
2250.05	4.59629e-07
2258.73	5.48988e-07
2267.41	7.271e-07
2276.09	9.49033e-07
2284.77	1.34445e-06
2293.44	1.75396e-06
2302.12	2.25839e-06
2310.8	2.61352e-06
2319.48	2.52095e-06
2328.16	2.36375e-06
2336.83	1.98097e-06
2345.51	1.21402e-06
2354.19	6.53513e-07
2362.87	3.32278e-07
2371.55	6.75011e-07
2380.23	1.05117e-06
2388.9	1.16508e-06
2397.58	1.1746e-06
2406.26	1.12927e-06
2414.94	1.20407e-06
2423.62	1.24183e-06
2432.29	1.35807e-06
2440.97	1.38429e-06
2449.65	1.41687e-06
2458.33	1.37036e-06
2467.01	1.27257e-06
2475.68	1.46257e-06
2484.36	1.71196e-06
2493.04	1.94349e-06
2501.72	2.1105e-06
2510.4	2.11511e-06
2519.08	1.88896e-06
2527.75	1.70039e-06
2536.43	1.67588e-06
2545.11	1.44158e-06
2553.79	1.33754e-06
2562.47	1.36195e-06
2571.14	1.51907e-06
2579.82	1.87206e-06
2588.5	2.32082e-06
2597.18	2.90019e-06
2605.86	4.11986e-06
2614.54	4.20257e-06
2623.21	5.2133e-06
2631.89	6.46955e-06
2640.57	8.55357e-06
2649.25	8.50084e-06
2657.93	8.91294e-06
2666.6	9.8113e-06
2675.28	7.11698e-06
2683.96	6.3058e-06
2692.64	5.2069e-06
2701.32	4.713e-06
2709.99	5.03962e-06
2718.67	5.90312e-06
2727.35	6.45482e-06
2736.03	7.26622e-06
2744.71	7.11943e-06
2753.39	7.08897e-06
2762.06	7.93686e-06
2770.74	8.97409e-06
2779.42	9.39888e-06
2788.1	1.06686e-05
2796.78	1.19909e-05
2805.45	1.26698e-05
2814.13	1.49654e-05
2822.81	1.75401e-05
2831.49	2.00166e-05
2840.17	2.21844e-05
2848.85	3.31376e-05
2857.52	4.88086e-05
2866.2	7.81256e-05
2874.88	0.000101124
2883.56	0.000164031
2892.24	0.000152416
2900.91	0.000132728
2909.59	0.000119041
2918.27	0.00010538
2926.95	0.000108184
2935.63	0.000114716
2944.31	0.0001387
2952.98	0.000206014
2961.66	0.000275924
2970.34	0.000466293
2979.02	0.000492952
2987.7	0.000313195
2996.37	0.000251746
3005.05	0.00013311
3013.73	3.69846e-05
3022.41	8.89978e-06
3031.09	3.27267e-06
3039.76	1.97397e-06
3048.44	1.45286e-06
3057.12	1.19909e-06
3065.8	1.15045e-06
3074.48	1.13697e-06
3083.16	1.24312e-06
3091.83	1.24279e-06
3100.51	1.3822e-06
3109.19	1.52149e-06
3117.87	1.60234e-06
3126.55	1.68563e-06
3135.22	1.80938e-06
3143.9	1.95733e-06
3152.58	2.34292e-06
3161.26	2.94067e-06
3169.94	3.84628e-06
3178.62	4.6512e-06
3187.29	5.20899e-06
3195.97	5.18372e-06
3204.65	4.84451e-06
3213.33	4.64897e-06
3222.01	4.10675e-06
3230.68	3.54887e-06
3239.36	2.83934e-06
3248.04	2.23331e-06
3256.72	1.16897e-06
3265.4	6.98279e-07
3274.07	4.39887e-07
3282.75	2.86169e-07
3291.43	2.96068e-07
3300.11	3.8186e-07
3308.79	5.22051e-07
3317.47	9.13686e-07
3326.14	1.21677e-06
3334.82	1.72384e-06
3343.5	1.83615e-06
3352.18	1.73297e-06
3360.86	1.61313e-06
3369.53	1.43293e-06
3378.21	1.2485e-06
3386.89	1.38039e-06
3395.57	1.63071e-06
3404.25	1.84237e-06
3412.93	1.99879e-06
3421.6	2.46715e-06
3430.28	2.39624e-06
3438.96	2.54616e-06
3447.64	2.66949e-06
3456.32	2.55599e-06
3464.99	2.43387e-06
3473.67	2.05864e-06
3482.35	1.61659e-06
3491.03	1.23683e-06
3499.71	1.00411e-06
3508.39	8.51022e-07
3517.06	7.79406e-07
3525.74	8.81807e-07
3534.42	1.07722e-06
3543.1	1.24429e-06
3551.78	1.08882e-06
3560.45	9.82748e-07
3569.13	1.00366e-06
3577.81	9.71929e-07
3586.49	1.15675e-06
3595.17	1.56459e-06
3603.84	2.2032e-06
3612.52	4.69377e-06
3621.2	8.31659e-06
3629.88	1.35044e-05
3638.56	3.12354e-05
3647.24	4.8657e-05
3655.91	5.57664e-05
3664.59	4.81838e-05
3673.27	4.05427e-05
3681.95	1.8026e-05
3690.63	5.61265e-06
3699.3	2.53792e-06
3707.98	1.7199e-06
3716.66	1.47558e-06
3725.34	1.24509e-06
3734.02	1.13276e-06
3742.7	1.08021e-06
3751.37	1.02515e-06
3760.05	1.00212e-06
3768.73	1.17167e-06
3777.41	1.49058e-06
3786.09	2.01785e-06
3794.76	2.24854e-06
3803.44	2.45905e-06
3812.12	2.63683e-06
3820.8	2.79275e-06
3829.48	2.73083e-06
3838.16	2.63647e-06
3846.83	2.33111e-06
3855.51	2.29061e-06
3864.19	2.20047e-06
3872.87	2.18574e-06
3881.55	2.18654e-06
3890.22	2.10753e-06
3898.9	2.31144e-06
3907.58	1.86158e-06
3916.26	1.69176e-06
3924.94	1.43185e-06
3933.61	1.41174e-06
3942.29	1.16361e-06
3950.97	9.71819e-07
3959.65	9.06069e-07
3968.33	7.94576e-07
