Infrared Spectrum: 2-Propanol
Formula: C H3 C H( O H) C H3
CAS: 67-63-0
State: gas
Melting point: -89.5 C
Boiling point: 82.4 C
Class: IUPAC A
Instrument: IFS66V (Bruker)
Instrument parameters: KBr Beam splitter; MCT Detector; Multipass cell
Sampling: 1 L/min Flow
Resolution: 0.4820
Temperature: 23 C
Pressure: 101.3 kPa
Origin: NIST, Anayltical Chemistry Division, 301-975-3108
cm-1	(micromol/mol)-1m-1 (base 10)
574.928	2.60479e-06
583.606	2.88515e-06
592.284	3.29828e-06
600.962	3.63734e-06
609.641	3.96715e-06
618.319	4.04657e-06
626.997	4.3225e-06
635.675	4.16466e-06
644.353	4.15993e-06
653.031	3.84487e-06
661.71	3.48922e-06
670.388	3.21145e-06
679.066	2.92616e-06
687.744	2.89948e-06
696.422	2.67748e-06
705.1	2.69986e-06
713.778	2.34464e-06
722.457	2.20326e-06
731.135	1.84192e-06
739.813	1.51417e-06
748.491	1.20021e-06
757.169	1.10869e-06
765.847	1.09302e-06
774.526	1.30504e-06
783.204	2.58544e-06
791.882	8.28169e-06
800.56	1.94788e-05
809.238	2.48321e-05
817.916	2.73714e-05
826.594	2.58178e-05
835.273	1.75844e-05
843.951	5.85304e-06
852.629	2.67971e-06
861.307	1.71365e-06
869.985	1.57574e-06
878.663	1.55434e-06
887.342	1.83177e-06
896.02	2.64156e-06
904.698	4.46826e-06
913.376	8.86322e-06
922.054	2.18889e-05
930.732	5.99187e-05
939.41	0.000123761
948.089	0.00014728
956.767	0.00017886
965.445	0.000148385
974.123	8.26136e-05
982.801	2.12116e-05
991.479	8.26392e-06
1000.16	5.76048e-06
1008.84	5.34927e-06
1017.51	5.3724e-06
1026.19	7.20884e-06
1034.87	1.1823e-05
1043.55	2.51343e-05
1052.23	5.5597e-05
1060.9	9.24276e-05
1069.58	0.000126804
1078.26	0.000126731
1086.94	0.00011718
1095.62	8.6765e-05
1104.3	6.23621e-05
1112.97	6.91834e-05
1121.65	9.13666e-05
1130.33	0.000115872
1139.01	0.000141874
1147.69	0.000172127
1156.36	0.000175757
1165.04	0.000150275
1173.72	0.000110628
1182.4	7.24697e-05
1191.08	3.6069e-05
1199.76	2.1734e-05
1208.43	1.92919e-05
1217.11	2.59986e-05
1225.79	4.66008e-05
1234.47	8.06362e-05
1243.15	9.75494e-05
1251.82	0.00012456
1260.5	9.76412e-05
1269.18	7.41393e-05
1277.86	3.8045e-05
1286.54	2.21813e-05
1295.21	1.60705e-05
1303.89	1.52089e-05
1312.57	1.72304e-05
1321.25	2.34448e-05
1329.93	3.4358e-05
1338.61	4.47532e-05
1347.28	5.5802e-05
1355.96	7.11254e-05
1364.64	9.34445e-05
1373.32	0.000148212
1382	0.00020281
1390.67	0.000179878
1399.35	0.000134197
1408.03	6.72518e-05
1416.71	3.50719e-05
1425.39	2.31585e-05
1434.07	2.26417e-05
1442.74	2.79597e-05
1451.42	3.46513e-05
1460.1	5.46658e-05
1468.78	3.60735e-05
1477.46	3.44281e-05
1486.13	2.80146e-05
1494.81	1.88247e-05
1503.49	9.16865e-06
1512.17	4.63413e-06
1520.85	2.83444e-06
1529.52	2.0728e-06
1538.2	1.68959e-06
1546.88	1.47783e-06
1555.56	1.29929e-06
1564.24	1.1415e-06
1572.92	1.08205e-06
1581.59	1.03316e-06
1590.27	9.99484e-07
1598.95	9.76356e-07
1607.63	9.2755e-07
1616.31	9.6789e-07
1624.98	9.60332e-07
1633.66	1.12465e-06
1642.34	1.22277e-06
1651.02	1.47631e-06
1659.7	1.59178e-06
1668.38	1.75233e-06
1677.05	1.67275e-06
1685.73	1.62569e-06
1694.41	1.5502e-06
1703.09	1.55203e-06
1711.77	1.6821e-06
1720.44	1.82449e-06
1729.12	1.87917e-06
1737.8	2.18951e-06
1746.48	2.96723e-06
1755.16	3.81233e-06
1763.84	3.89976e-06
1772.51	4.08964e-06
1781.19	3.35034e-06
1789.87	1.57648e-06
1798.55	6.71353e-07
1807.23	5.39381e-07
1815.9	6.04622e-07
1824.58	6.62515e-07
1833.26	7.36896e-07
1841.94	6.53127e-07
1850.62	6.10496e-07
1859.29	8.42842e-07
1867.97	9.95935e-07
1876.65	1.42474e-06
1885.33	1.89139e-06
1894.01	2.27669e-06
1902.69	2.3967e-06
1911.36	1.90991e-06
1920.04	1.4865e-06
1928.72	5.81749e-07
1937.4	2.70422e-07
1946.08	2.51573e-07
1954.75	3.39746e-07
1963.43	4.20888e-07
1972.11	4.58472e-07
1980.79	5.52749e-07
1989.47	5.08866e-07
1998.15	5.26166e-07
2006.82	5.92202e-07
2015.5	6.81844e-07
2024.18	7.6683e-07
2032.86	7.87846e-07
2041.54	7.76261e-07
2050.21	7.30332e-07
2058.89	8.65113e-07
2067.57	1.10197e-06
2076.25	1.28092e-06
2084.93	1.32693e-06
2093.6	1.21729e-06
2102.28	1.05411e-06
2110.96	8.17883e-07
2119.64	1.10134e-06
2128.32	7.5745e-07
2137	1.03812e-06
2145.67	9.75628e-07
2154.35	1.36593e-06
2163.03	1.4214e-06
2171.71	1.39731e-06
2180.39	1.48053e-06
2189.06	1.65005e-06
2197.74	1.70256e-06
2206.42	1.49935e-06
2215.1	9.91487e-07
2223.78	5.36636e-07
2232.46	3.88964e-07
2241.13	4.09048e-07
2249.81	4.5653e-07
2258.49	5.55112e-07
2267.17	7.15223e-07
2275.85	9.28222e-07
2284.52	1.33146e-06
2293.2	1.73454e-06
2301.88	2.23685e-06
2310.56	2.61638e-06
2319.24	2.3922e-06
2327.92	2.46859e-06
2336.59	1.98001e-06
2345.27	1.29322e-06
2353.95	8.52852e-07
2362.63	2.47619e-07
2371.31	5.72732e-07
2379.98	1.0585e-06
2388.66	1.16268e-06
2397.34	1.18928e-06
2406.02	1.1414e-06
2414.7	1.20006e-06
2423.37	1.23655e-06
2432.05	1.36622e-06
2440.73	1.35957e-06
2449.41	1.42012e-06
2458.09	1.361e-06
2466.77	1.27255e-06
2475.44	1.46093e-06
2484.12	1.72072e-06
2492.8	1.94906e-06
2501.48	2.10383e-06
2510.16	2.12809e-06
2518.83	1.91262e-06
2527.51	1.71138e-06
2536.19	1.71367e-06
2544.87	1.45933e-06
2553.55	1.35159e-06
2562.23	1.36561e-06
2570.9	1.51649e-06
2579.58	1.86151e-06
2588.26	2.31152e-06
2596.94	2.88875e-06
2605.62	4.0085e-06
2614.29	4.19656e-06
2622.97	5.18618e-06
2631.65	6.50868e-06
2640.33	8.55452e-06
2649.01	8.48124e-06
2657.68	8.85616e-06
2666.36	9.82868e-06
2675.04	7.14976e-06
2683.72	6.33041e-06
2692.4	5.22318e-06
2701.08	4.75387e-06
2709.75	5.03479e-06
2718.43	5.89915e-06
2727.11	6.44207e-06
2735.79	7.2743e-06
2744.47	7.15966e-06
2753.14	7.11557e-06
2761.82	7.9311e-06
2770.5	9.01455e-06
2779.18	9.42402e-06
2787.86	1.07044e-05
2796.54	1.20205e-05
2805.21	1.26982e-05
2813.89	1.49155e-05
2822.57	1.75815e-05
2831.25	2.00769e-05
2839.93	2.22004e-05
2848.6	3.26969e-05
2857.28	4.82925e-05
2865.96	7.73629e-05
2874.64	0.000100576
2883.32	0.000164118
2892	0.000153305
2900.67	0.000132815
2909.35	0.00011946
2918.03	0.000105904
2926.71	0.000107772
2935.39	0.00011475
2944.06	0.000137185
2952.74	0.000203995
2961.42	0.000273871
2970.1	0.000430208
2978.78	0.000481774
2987.45	0.000314387
2996.13	0.00025341
3004.81	0.000137044
3013.49	3.91189e-05
3022.17	9.6921e-06
3030.85	3.59257e-06
3039.52	2.18523e-06
3048.2	1.62765e-06
3056.88	1.30887e-06
3065.56	1.25366e-06
3074.24	1.21042e-06
3082.91	1.33713e-06
3091.59	1.28064e-06
3100.27	1.4439e-06
3108.95	1.56831e-06
3117.63	1.64103e-06
3126.31	1.74176e-06
3134.98	1.85047e-06
3143.66	1.97853e-06
3152.34	2.32827e-06
3161.02	2.94552e-06
3169.7	3.80296e-06
3178.37	4.66206e-06
3187.05	5.17904e-06
3195.73	5.1738e-06
3204.41	4.86822e-06
3213.09	4.57304e-06
3221.77	4.10496e-06
3230.44	3.55995e-06
3239.12	2.87723e-06
3247.8	2.20687e-06
3256.48	1.22547e-06
3265.16	7.07627e-07
3273.83	4.99343e-07
3282.51	2.96558e-07
3291.19	2.92569e-07
3299.87	4.05964e-07
3308.55	5.40237e-07
3317.22	9.31381e-07
3325.9	1.20485e-06
3334.58	1.74971e-06
3343.26	1.84611e-06
3351.94	1.74409e-06
3360.62	1.60312e-06
3369.29	1.47658e-06
3377.97	1.2468e-06
3386.65	1.41116e-06
3395.33	1.64751e-06
3404.01	1.839e-06
3412.68	2.00681e-06
3421.36	2.4728e-06
3430.04	2.397e-06
3438.72	2.52739e-06
3447.4	2.67209e-06
3456.08	2.57415e-06
3464.75	2.44755e-06
3473.43	2.10524e-06
3482.11	1.61509e-06
3490.79	1.24147e-06
3499.47	1.03373e-06
3508.14	8.75585e-07
3516.82	7.79056e-07
3525.5	8.83258e-07
3534.18	1.10454e-06
3542.86	1.26691e-06
3551.53	1.13708e-06
3560.21	9.88373e-07
3568.89	1.03528e-06
3577.57	9.74331e-07
3586.25	1.13543e-06
3594.93	1.59048e-06
3603.6	2.19696e-06
3612.28	4.6446e-06
3620.96	8.27179e-06
3629.64	1.35624e-05
3638.32	3.09481e-05
3646.99	4.83269e-05
3655.67	5.52714e-05
3664.35	4.83286e-05
3673.03	4.08932e-05
3681.71	1.86622e-05
3690.39	5.8567e-06
3699.06	2.5679e-06
3707.74	1.75527e-06
3716.42	1.49841e-06
3725.1	1.30931e-06
3733.78	1.14854e-06
3742.45	1.12377e-06
3751.13	1.02655e-06
3759.81	1.02425e-06
3768.49	1.16404e-06
3777.17	1.48359e-06
3785.85	2.04387e-06
3794.52	2.26104e-06
3803.2	2.45957e-06
3811.88	2.65344e-06
3820.56	2.77638e-06
3829.24	2.72763e-06
3837.91	2.73545e-06
3846.59	2.33417e-06
3855.27	2.28523e-06
3863.95	2.21893e-06
3872.63	2.16166e-06
3881.3	2.17663e-06
3889.98	2.12428e-06
3898.66	2.31042e-06
3907.34	1.88077e-06
3916.02	1.71302e-06
3924.7	1.37686e-06
3933.37	1.4049e-06
3942.05	1.12786e-06
3950.73	9.83325e-07
3959.41	8.92053e-07
3968.09	7.80119e-07
