Infrared Spectrum: 2-Propanol
Formula: C H3 C H( O H) C H3
CAS: 67-63-0
State: gas
Melting point: -89.5 C
Boiling point: 82.4 C
Class: IUPAC A
Instrument: IFS66V (Bruker)
Instrument parameters: KBr Beam splitter; MCT Detector; Multipass cell
Sampling: 1 L/min Flow
Resolution: 0.4820
Temperature: 23 C
Pressure: 101.3 kPa
Origin: NIST, Anayltical Chemistry Division, 301-975-3108
cm-1	(micromol/mol)-1m-1 (base 10)
574.928	2.58957e-06
583.606	2.87259e-06
592.284	3.30656e-06
600.962	3.62545e-06
609.641	3.98359e-06
618.319	4.04952e-06
626.997	4.34127e-06
635.675	4.16618e-06
644.353	4.1667e-06
653.031	3.8393e-06
661.71	3.48195e-06
670.388	3.20027e-06
679.066	2.90872e-06
687.744	2.89388e-06
696.422	2.66889e-06
705.1	2.69483e-06
713.778	2.33028e-06
722.457	2.19496e-06
731.135	1.82387e-06
739.813	1.50283e-06
748.491	1.18156e-06
757.169	1.08903e-06
765.847	1.0659e-06
774.526	1.27041e-06
783.204	2.52093e-06
791.882	8.24251e-06
800.56	1.95229e-05
809.238	2.48712e-05
817.916	2.74082e-05
826.594	2.58948e-05
835.273	1.7599e-05
843.951	5.77441e-06
852.629	2.62557e-06
861.307	1.65465e-06
869.985	1.52724e-06
878.663	1.50077e-06
887.342	1.76335e-06
896.02	2.55902e-06
904.698	4.36007e-06
913.376	8.6955e-06
922.054	2.16533e-05
930.732	5.97905e-05
939.41	0.000124186
948.089	0.000147488
956.767	0.000180787
965.445	0.000149038
974.123	8.26249e-05
982.801	2.08427e-05
991.479	8.04462e-06
1000.16	5.61219e-06
1008.84	5.23051e-06
1017.51	5.24795e-06
1026.19	7.06865e-06
1034.87	1.16462e-05
1043.55	2.49302e-05
1052.23	5.55449e-05
1060.9	9.26428e-05
1069.58	0.000127306
1078.26	0.000126948
1086.94	0.000117367
1095.62	8.67206e-05
1104.3	6.20968e-05
1112.97	6.89959e-05
1121.65	9.1324e-05
1130.33	0.000115823
1139.01	0.000141985
1147.69	0.000172545
1156.36	0.000176227
1165.04	0.000150577
1173.72	0.000110654
1182.4	7.24091e-05
1191.08	3.58133e-05
1199.76	2.14947e-05
1208.43	1.90717e-05
1217.11	2.57878e-05
1225.79	4.64733e-05
1234.47	8.07479e-05
1243.15	9.76215e-05
1251.82	0.000125551
1260.5	9.78048e-05
1269.18	7.42424e-05
1277.86	3.78721e-05
1286.54	2.20203e-05
1295.21	1.59278e-05
1303.89	1.50831e-05
1312.57	1.71071e-05
1321.25	2.33423e-05
1329.93	3.42998e-05
1338.61	4.47228e-05
1347.28	5.58911e-05
1355.96	7.1086e-05
1364.64	9.33304e-05
1373.32	0.00014843
1382	0.000204157
1390.67	0.00018022
1399.35	0.000134516
1408.03	6.70857e-05
1416.71	3.48302e-05
1425.39	2.29752e-05
1434.07	2.25196e-05
1442.74	2.78888e-05
1451.42	3.45373e-05
1460.1	5.47947e-05
1468.78	3.56167e-05
1477.46	3.41988e-05
1486.13	2.80225e-05
1494.81	1.87894e-05
1503.49	9.09952e-06
1512.17	4.57923e-06
1520.85	2.7882e-06
1529.52	2.03518e-06
1538.2	1.65397e-06
1546.88	1.45243e-06
1555.56	1.27591e-06
1564.24	1.12076e-06
1572.92	1.06484e-06
1581.59	1.01723e-06
1590.27	9.85905e-07
1598.95	9.6409e-07
1607.63	9.14107e-07
1616.31	9.59718e-07
1624.98	9.47335e-07
1633.66	1.11419e-06
1642.34	1.21169e-06
1651.02	1.4638e-06
1659.7	1.58332e-06
1668.38	1.7475e-06
1677.05	1.66473e-06
1685.73	1.61129e-06
1694.41	1.53963e-06
1703.09	1.54146e-06
1711.77	1.67654e-06
1720.44	1.81796e-06
1729.12	1.86754e-06
1737.8	2.17888e-06
1746.48	2.96244e-06
1755.16	3.81802e-06
1763.84	3.89999e-06
1772.51	4.12743e-06
1781.19	3.35916e-06
1789.87	1.56359e-06
1798.55	6.59854e-07
1807.23	5.30174e-07
1815.9	5.98376e-07
1824.58	6.55659e-07
1833.26	7.33769e-07
1841.94	6.46693e-07
1850.62	6.02396e-07
1859.29	8.35571e-07
1867.97	9.90176e-07
1876.65	1.42169e-06
1885.33	1.89101e-06
1894.01	2.27597e-06
1902.69	2.40007e-06
1911.36	1.90462e-06
1920.04	1.48774e-06
1928.72	5.73775e-07
1937.4	2.64369e-07
1946.08	2.4567e-07
1954.75	3.35021e-07
1963.43	4.17234e-07
1972.11	4.53529e-07
1980.79	5.48113e-07
1989.47	5.05298e-07
1998.15	5.21918e-07
2006.82	5.87128e-07
2015.5	6.78442e-07
2024.18	7.621e-07
2032.86	7.81852e-07
2041.54	7.73209e-07
2050.21	7.25135e-07
2058.89	8.59225e-07
2067.57	1.09887e-06
2076.25	1.27911e-06
2084.93	1.32261e-06
2093.6	1.21041e-06
2102.28	1.05047e-06
2110.96	7.99924e-07
2119.64	1.12925e-06
2128.32	7.41632e-07
2137	1.0383e-06
2145.67	9.68798e-07
2154.35	1.3825e-06
2163.03	1.41777e-06
2171.71	1.39025e-06
2180.39	1.4624e-06
2189.06	1.64479e-06
2197.74	1.70106e-06
2206.42	1.50705e-06
2215.1	9.86742e-07
2223.78	5.29964e-07
2232.46	3.8033e-07
2241.13	4.04027e-07
2249.81	4.5057e-07
2258.49	5.50028e-07
2267.17	7.08094e-07
2275.85	9.18907e-07
2284.52	1.32619e-06
2293.2	1.7292e-06
2301.88	2.23746e-06
2310.56	2.62167e-06
2319.24	2.37442e-06
2327.92	2.49421e-06
2336.59	2.01081e-06
2345.27	1.30622e-06
2353.95	8.54296e-07
2362.63	2.0391e-07
2371.31	5.49542e-07
2379.98	1.05511e-06
2388.66	1.15677e-06
2397.34	1.18374e-06
2406.02	1.1372e-06
2414.7	1.19216e-06
2423.37	1.22988e-06
2432.05	1.36651e-06
2440.73	1.3522e-06
2449.41	1.41636e-06
2458.09	1.35581e-06
2466.77	1.2657e-06
2475.44	1.4549e-06
2484.12	1.71805e-06
2492.8	1.94893e-06
2501.48	2.10352e-06
2510.16	2.12876e-06
2518.83	1.91038e-06
2527.51	1.70456e-06
2536.19	1.71204e-06
2544.87	1.4521e-06
2553.55	1.3429e-06
2562.23	1.35616e-06
2570.9	1.50435e-06
2579.58	1.8492e-06
2588.26	2.30273e-06
2596.94	2.8809e-06
2605.62	4.00346e-06
2614.29	4.18409e-06
2622.97	5.17661e-06
2631.65	6.50054e-06
2640.33	8.57633e-06
2649.01	8.48106e-06
2657.68	8.85388e-06
2666.36	9.86224e-06
2675.04	7.13179e-06
2683.72	6.31633e-06
2692.4	5.20019e-06
2701.08	4.73343e-06
2709.75	5.01195e-06
2718.43	5.88173e-06
2727.11	6.42148e-06
2735.79	7.26077e-06
2744.47	7.13935e-06
2753.14	7.08514e-06
2761.82	7.90348e-06
2770.5	8.99446e-06
2779.18	9.39085e-06
2787.86	1.0673e-05
2796.54	1.19898e-05
2805.21	1.26435e-05
2813.89	1.4861e-05
2822.57	1.75289e-05
2831.25	2.00103e-05
2839.93	2.20738e-05
2848.6	3.25697e-05
2857.28	4.81366e-05
2865.96	7.7364e-05
2874.64	0.000100498
2883.32	0.000165401
2892	0.000153626
2900.67	0.000132903
2909.35	0.000119439
2918.03	0.000105767
2926.71	0.000107588
2935.39	0.000114335
2944.06	0.000136737
2952.74	0.000204018
2961.42	0.000274032
2970.1	0.000433155
2978.78	0.000483691
2987.45	0.000313781
2996.13	0.000253952
3004.81	0.000136896
3013.49	3.84847e-05
3022.17	9.26531e-06
3030.85	3.32877e-06
3039.52	2.01347e-06
3048.2	1.50264e-06
3056.88	1.20655e-06
3065.56	1.177e-06
3074.24	1.14525e-06
3082.91	1.28952e-06
3091.59	1.22941e-06
3100.27	1.40265e-06
3108.95	1.53826e-06
3117.63	1.61283e-06
3126.31	1.71532e-06
3134.98	1.82453e-06
3143.66	1.95234e-06
3152.34	2.3014e-06
3161.02	2.92438e-06
3169.7	3.78708e-06
3178.37	4.65026e-06
3187.05	5.17112e-06
3195.73	5.16663e-06
3204.41	4.8569e-06
3213.09	4.56216e-06
3221.77	4.09413e-06
3230.44	3.55084e-06
3239.12	2.85971e-06
3247.8	2.19888e-06
3256.48	1.20904e-06
3265.16	6.90939e-07
3273.83	4.93334e-07
3282.51	2.79016e-07
3291.19	2.76496e-07
3299.87	3.99937e-07
3308.55	5.25309e-07
3317.22	9.24858e-07
3325.9	1.19392e-06
3334.58	1.75093e-06
3343.26	1.84196e-06
3351.94	1.73794e-06
3360.62	1.59767e-06
3369.29	1.47611e-06
3377.97	1.23749e-06
3386.65	1.41112e-06
3395.33	1.63992e-06
3404.01	1.83503e-06
3412.68	2.00251e-06
3421.36	2.48009e-06
3430.04	2.3933e-06
3438.72	2.52097e-06
3447.4	2.66786e-06
3456.08	2.57279e-06
3464.75	2.44508e-06
3473.43	2.10626e-06
3482.11	1.60577e-06
3490.79	1.23609e-06
3499.47	1.02444e-06
3508.14	8.71313e-07
3516.82	7.67028e-07
3525.5	8.7757e-07
3534.18	1.09681e-06
3542.86	1.26449e-06
3551.53	1.12769e-06
3560.21	9.7637e-07
3568.89	1.02306e-06
3577.57	9.59998e-07
3586.25	1.11633e-06
3594.93	1.57126e-06
3603.6	2.15486e-06
3612.28	4.60825e-06
3620.96	8.23049e-06
3629.64	1.34426e-05
3638.32	3.0693e-05
3646.99	4.85441e-05
3655.67	5.55956e-05
3664.35	4.8393e-05
3673.03	4.10496e-05
3681.71	1.86105e-05
3690.39	5.76919e-06
3699.06	2.51419e-06
3707.74	1.72099e-06
3716.42	1.47279e-06
3725.1	1.29542e-06
3733.78	1.1321e-06
3742.45	1.11285e-06
3751.13	1.01172e-06
3759.81	1.01543e-06
3768.49	1.15452e-06
3777.17	1.47472e-06
3785.85	2.04111e-06
3794.52	2.25666e-06
3803.2	2.45772e-06
3811.88	2.65395e-06
3820.56	2.78195e-06
3829.24	2.73103e-06
3837.91	2.74943e-06
3846.59	2.32651e-06
3855.27	2.27303e-06
3863.95	2.21431e-06
3872.63	2.1552e-06
3881.3	2.17338e-06
3889.98	2.11881e-06
3898.66	2.31206e-06
3907.34	1.87567e-06
3916.02	1.71299e-06
3924.7	1.36467e-06
3933.37	1.40438e-06
3942.05	1.12074e-06
3950.73	9.82654e-07
3959.41	8.96187e-07
3968.09	7.75966e-07
