Infrared Spectrum: Chloroform
Formula: C H Cl3
CAS: 67-66-3
State: gas
Melting point: -63.5 C
Boiling point: 61.7 C
Class: IUPAC A
Instrument: IFS66V (Bruker)
Instrument parameters: KBr Beam Splitter; MCT Detector; Multipass cell
Sampling: 1 L/min Flow
Resolution: 0.9640
Temperature: 23 C
Pressure: 101.3 Pa
Origin: NIST, Analytical Chemistry Division, 301-975-3108
cm-1	(micromol/mol)-1m-1 (base 10)
575.17	-2.77127e-06
583.848	-6.85093e-07
592.526	-3.71739e-07
601.205	2.04443e-07
609.883	1.1964e-06
618.561	1.29207e-06
627.239	5.26386e-06
635.917	1.95225e-06
644.595	6.1037e-07
653.274	9.81673e-07
661.952	3.80642e-06
670.63	2.35924e-05
679.308	1.85366e-05
687.986	3.87565e-05
696.664	3.33196e-06
705.343	-4.0759e-08
714.021	3.01484e-07
722.699	8.49501e-07
731.377	4.57108e-06
740.055	2.32026e-05
748.734	9.82373e-05
757.412	0.00036448
766.09	0.00161487
774.768	0.00258845
783.446	0.000554217
792.124	8.66613e-05
800.803	1.50321e-05
809.481	1.8516e-06
818.159	9.17187e-08
826.837	4.00529e-07
835.515	8.89776e-07
844.194	2.19025e-06
852.872	4.66786e-06
861.55	2.21422e-06
870.228	4.79526e-07
878.906	4.49241e-07
887.584	5.04177e-08
896.263	-5.98435e-08
904.941	6.52697e-07
913.619	2.47244e-06
922.297	4.40561e-06
930.975	7.22833e-06
939.653	2.94958e-06
948.332	2.39699e-06
957.01	4.99218e-07
965.688	1.10807e-07
974.366	-3.07039e-08
983.044	-1.62378e-07
991.723	-1.17009e-07
1000.4	-1.09279e-07
1009.08	1.22914e-07
1017.76	1.26572e-06
1026.44	2.03905e-06
1035.11	2.00362e-06
1043.79	5.16236e-07
1052.47	-1.34053e-07
1061.15	-1.60879e-07
1069.83	8.32461e-08
1078.5	-1.56408e-07
1087.18	-3.01957e-07
1095.86	-2.22421e-07
1104.54	-1.97567e-07
1113.22	-2.03471e-07
1121.9	-2.70249e-07
1130.57	-1.77217e-07
1139.25	-3.26323e-07
1147.93	-1.68144e-07
1156.61	-4.09206e-07
1165.29	-3.13103e-07
1173.96	-7.96264e-08
1182.64	6.36298e-07
1191.32	2.74768e-06
1200	1.12847e-05
1208.68	7.54013e-05
1217.36	0.000426424
1226.03	0.000178218
1234.71	2.84355e-05
1243.39	4.48548e-06
1252.07	5.19536e-07
1260.75	-9.31739e-08
1269.42	-2.19802e-07
1278.1	-3.78378e-07
1286.78	-2.57207e-07
1295.46	-2.74854e-07
1304.14	-3.39194e-07
1312.82	-1.57394e-07
1321.49	-2.08739e-07
1330.17	-5.02503e-08
1338.85	-2.79172e-07
1347.53	-1.81291e-07
1356.21	-1.9143e-07
1364.88	-4.63432e-07
1373.56	-8.23115e-07
1382.24	-1.46527e-07
1390.92	-1.53803e-07
1399.6	-5.33429e-07
1408.28	-3.69247e-08
1416.95	3.96604e-08
1425.63	1.27352e-06
1434.31	4.38172e-06
1442.99	8.91092e-06
1451.67	4.13522e-06
1460.34	3.52298e-07
1469.02	1.21446e-06
1477.7	1.41866e-06
1486.38	1.21003e-06
1495.06	1.57718e-07
1503.73	2.17081e-07
1512.41	1.17541e-07
1521.09	-7.23378e-07
1529.77	4.53568e-06
1538.45	4.09174e-06
1547.13	7.38079e-06
1555.8	4.54919e-06
1564.48	2.50695e-06
1573.16	3.13256e-07
1581.84	-1.11673e-07
1590.52	-1.984e-07
1599.19	-2.79456e-07
1607.87	-2.31196e-07
1616.55	-4.17515e-06
1625.23	-2.36969e-07
1633.91	-3.9779e-07
1642.59	-3.4269e-07
1651.26	-6.3035e-07
1659.94	-2.46526e-07
1668.62	-8.65114e-07
1677.3	-2.0915e-07
1685.98	-4.58212e-07
1694.65	-5.01339e-07
1703.33	-3.1888e-07
1712.01	-2.63606e-07
1720.69	-2.68575e-07
1729.37	-4.55818e-07
1738.05	-1.97207e-07
1746.72	-4.5477e-07
1755.4	-3.0315e-07
1764.08	-2.24047e-07
1772.76	-2.74642e-06
1781.44	-1.85784e-07
1790.11	-1.3577e-07
1798.79	-7.01023e-08
1807.47	6.96731e-08
1816.15	3.63797e-07
1824.83	-1.1694e-07
1833.51	8.07941e-07
1842.18	1.54116e-07
1850.86	-1.92809e-08
1859.54	-1.59071e-07
1868.22	-4.68591e-07
1876.9	-2.56999e-07
1885.57	-2.93709e-07
1894.25	-5.37245e-08
1902.93	-2.4056e-07
1911.61	-2.9467e-07
1920.29	-2.95332e-07
1928.97	-2.39374e-07
1937.64	-2.637e-07
1946.32	-3.32704e-07
1955	-2.62595e-07
1963.68	-1.50693e-07
1972.36	-4.30655e-08
1981.03	-2.50979e-08
1989.71	-6.61261e-08
1998.39	-9.038e-08
2007.07	-1.55357e-07
2015.75	-2.41811e-07
2024.43	-2.56243e-07
2033.1	-2.85255e-07
2041.78	-3.00054e-07
2050.46	-2.24608e-07
2059.14	-2.53969e-07
2067.82	-3.63121e-07
2076.49	-3.32588e-07
2085.17	-3.06151e-07
2093.85	-3.0522e-07
2102.53	-3.17527e-07
2111.21	-4.81843e-07
2119.89	-3.01971e-07
2128.56	-1.5576e-07
2137.24	-2.01005e-07
2145.92	-2.6361e-07
2154.6	-3.63532e-07
2163.28	-1.47542e-07
2171.95	-2.56985e-07
2180.63	-1.75609e-07
2189.31	-9.1817e-08
2197.99	-9.04346e-08
2206.67	1.59336e-07
2215.35	1.96337e-07
2224.02	-3.23846e-08
2232.7	1.11425e-07
2241.38	1.34955e-07
2250.06	-1.38906e-07
2258.74	-1.65288e-07
2267.41	-2.66913e-08
2276.09	5.17928e-08
2284.77	1.208e-07
2293.45	2.78405e-07
2302.13	-3.651e-08
2310.81	1.35963e-07
2319.48	6.108e-07
2328.16	9.49015e-07
2336.84	5.629e-07
2345.52	6.91718e-07
2354.2	1.72068e-06
2362.87	2.80207e-06
2371.55	1.15677e-06
2380.23	1.9207e-07
2388.91	4.46701e-07
2397.59	2.21553e-06
2406.27	1.56638e-06
2414.94	1.83564e-06
2423.62	2.23045e-06
2432.3	5.88969e-07
2440.98	1.27794e-06
2449.66	6.58151e-07
2458.33	7.56552e-07
2467.01	2.47501e-07
2475.69	-1.21422e-07
2484.37	-3.0084e-07
2493.05	-2.31643e-07
2501.73	-1.29706e-07
2510.4	-2.97238e-07
2519.08	-2.49196e-07
2527.76	-2.93171e-07
2536.44	-3.40158e-07
2545.12	-4.01271e-07
2553.79	-3.83282e-07
2562.47	-2.53962e-07
2571.15	-4.10264e-07
2579.83	-3.22907e-07
2588.51	-2.79598e-07
2597.19	-2.86827e-07
2605.86	-3.45033e-07
2614.54	-1.85678e-07
2623.22	-3.62371e-07
2631.9	-2.82938e-07
2640.58	-2.51041e-07
2649.25	-3.76064e-07
2657.93	-3.38121e-07
2666.61	-2.78747e-07
2675.29	-3.18716e-07
2683.97	-2.22523e-07
2692.65	-3.52294e-07
2701.32	-2.68171e-07
2710	-8.04667e-08
2718.68	-3.29503e-07
2727.36	-3.23478e-07
2736.04	-2.24338e-07
2744.71	-3.27531e-07
2753.39	-2.00161e-07
2762.07	-3.60429e-07
2770.75	-4.35693e-07
2779.43	-3.03939e-07
2788.11	-3.52665e-07
2796.78	-3.51785e-07
2805.46	-1.70396e-07
2814.14	-5.35335e-07
2822.82	-3.14486e-07
2831.5	-1.03898e-07
2840.17	-2.2137e-07
2848.85	-3.13059e-07
2857.53	-4.12731e-07
2866.21	-4.28068e-07
2874.89	-5.01907e-07
2883.57	-2.9603e-07
2892.24	-3.84912e-07
2900.92	-2.43252e-07
2909.6	-3.78622e-07
2918.28	-3.78753e-07
2926.96	-3.63084e-07
2935.63	-5.09808e-07
2944.31	-2.83458e-07
2952.99	-4.1722e-07
2961.67	-7.61223e-07
2970.35	-7.30559e-07
2979.03	-5.46322e-07
2987.7	-2.62129e-07
2996.38	-4.77645e-07
3005.06	-2.81617e-07
3013.74	-5.40665e-08
3022.42	6.25159e-07
3031.09	-1.52097e-07
3039.77	7.28981e-07
3048.45	6.95443e-07
3057.13	-3.2525e-07
3065.81	-3.02688e-07
3074.49	-1.9828e-07
3083.16	-2.44245e-07
3091.84	-3.11368e-07
3100.52	-7.39949e-08
3109.2	-7.42459e-08
3117.88	-6.74903e-08
3126.55	6.15605e-08
3135.23	-1.37433e-07
3143.91	-3.45164e-08
3152.59	-3.97986e-09
3161.27	2.31021e-07
3169.95	3.65609e-09
3178.62	1.07671e-07
3187.3	1.22244e-07
3195.98	-1.99357e-09
3204.66	2.55355e-07
3213.34	5.85702e-08
3222.01	2.96602e-07
3230.69	3.34843e-07
3239.37	1.2589e-07
3248.05	2.56938e-07
3256.73	1.21342e-07
3265.41	5.99162e-08
3274.08	8.31769e-08
3282.76	7.44169e-08
3291.44	-1.05808e-07
3300.12	-5.10106e-08
3308.8	2.99581e-08
3317.47	-2.37031e-07
3326.15	-2.36882e-07
3334.83	-1.818e-07
3343.51	-9.55676e-09
3352.19	-1.1252e-07
3360.86	-2.25011e-07
3369.54	-7.76437e-08
3378.22	-2.78925e-07
3386.9	-1.20527e-07
3395.58	-2.16302e-07
3404.26	-1.83325e-07
3412.93	2.42495e-07
3421.61	-2.6151e-07
3430.29	-4.79697e-07
3438.97	-4.23313e-07
3447.65	-4.88992e-07
3456.32	-2.25019e-07
3465	-4.16547e-07
3473.68	-8.53124e-08
3482.36	-2.56519e-07
3491.04	-4.79057e-07
3499.72	-4.78897e-07
3508.39	-5.04588e-07
3517.07	-3.75046e-07
3525.75	-5.27314e-07
3534.43	-2.50298e-07
3543.11	-5.42989e-07
3551.78	-5.60524e-07
3560.46	-2.72104e-07
3569.14	-3.65773e-07
3577.82	-5.13715e-07
3586.5	-1.17067e-06
3595.18	-5.41298e-07
3603.85	-3.84417e-07
3612.53	-1.32114e-06
3621.21	-5.52277e-07
3629.89	-2.17691e-06
3638.57	-4.38825e-07
3647.24	-1.72258e-06
3655.92	-1.56229e-06
3664.6	-5.51884e-07
3673.28	-5.76433e-07
3681.96	-3.21863e-07
3690.64	-5.47875e-07
3699.31	4.02788e-08
3707.99	-3.67006e-07
3716.67	2.06331e-07
3725.35	-5.50902e-07
3734.03	-7.35842e-07
3742.7	-6.53381e-07
3751.38	-1.3719e-06
3760.06	-1.37387e-06
3768.74	-5.18888e-07
3777.42	-4.45825e-07
3786.1	-4.77158e-07
3794.77	-5.25349e-07
3803.45	-3.0359e-07
3812.13	-2.02591e-07
3820.81	-2.04758e-06
3829.49	-4.38003e-07
3838.16	-3.62434e-06
3846.84	-5.77466e-07
3855.52	-6.50489e-07
3864.2	-8.31457e-07
3872.88	-6.66019e-07
3881.56	-7.40389e-07
3890.23	-5.66698e-07
3898.91	-1.23412e-06
3907.59	-5.15905e-07
3916.27	-6.7236e-07
3924.95	-6.60337e-07
3933.62	-4.72785e-07
3942.3	-7.5669e-07
3950.98	-5.39151e-07
3959.66	-6.6614e-07
3968.34	-5.11441e-07
