Infrared Spectrum: 2-Propanol
Formula: C H3 C H( O H) C H3
CAS: 67-63-0
State: gas
Melting point: -89.5 C
Boiling point: 82.4 C
Class: IUPAC A
Instrument: IFS66V (Bruker)
Instrument parameters: KBr Beam splitter; MCT Detector; Multipass cell
Sampling: 1 L/min Flow
Resolution: 0.2410
Temperature: 23 C
Pressure: 101.3 kPa
Origin: NIST, Anayltical Chemistry Division, 301-975-3108
cm-1	(micromol/mol)-1m-1 (base 10)
575.048	2.28446e-06
583.606	3.01994e-06
592.163	3.29211e-06
600.721	3.45755e-06
609.279	3.87538e-06
617.836	3.96532e-06
626.394	4.27449e-06
634.951	4.07621e-06
643.509	4.24138e-06
652.067	3.6639e-06
660.624	3.47903e-06
669.182	3.10056e-06
677.74	3.19179e-06
686.297	2.91478e-06
694.855	2.61349e-06
703.412	2.75664e-06
711.97	2.5158e-06
720.528	2.34598e-06
729.085	1.86282e-06
737.643	1.55541e-06
746.201	1.36262e-06
754.758	1.13604e-06
763.316	1.16041e-06
771.873	1.06633e-06
780.431	2.11226e-06
788.989	5.42431e-06
797.546	1.54844e-05
806.104	2.39109e-05
814.662	2.8819e-05
823.219	2.48157e-05
831.777	2.35586e-05
840.334	9.26385e-06
848.892	3.40741e-06
857.45	1.95553e-06
866.007	1.62109e-06
874.565	1.48283e-06
883.123	1.53129e-06
891.68	2.08239e-06
900.238	3.27227e-06
908.795	5.91738e-06
917.353	1.30107e-05
925.911	3.40824e-05
934.468	8.75813e-05
943.026	0.000138547
951.584	0.000166549
960.141	0.00014469
968.699	0.000138462
977.256	5.16985e-05
985.814	1.36751e-05
994.372	6.77478e-06
1002.93	5.41275e-06
1011.49	5.12719e-06
1020.04	5.74176e-06
1028.6	7.87858e-06
1037.16	1.39594e-05
1045.72	3.14058e-05
1054.28	6.43969e-05
1062.83	9.66899e-05
1071.39	0.000138371
1079.95	0.000124791
1088.51	0.000116138
1097.06	8.04985e-05
1105.62	6.12739e-05
1114.18	7.16903e-05
1122.74	9.41819e-05
1131.29	0.000120181
1139.85	0.000144124
1148.41	0.000175737
1156.97	0.000174551
1165.52	0.000146626
1174.08	0.000109177
1182.64	7.12838e-05
1191.2	3.55147e-05
1199.75	2.15133e-05
1208.31	1.90388e-05
1216.87	2.55144e-05
1225.43	4.5128e-05
1233.99	7.9057e-05
1242.54	9.89193e-05
1251.1	0.000126542
1259.66	9.80118e-05
1268.22	7.89411e-05
1276.77	4.14241e-05
1285.33	2.34586e-05
1293.89	1.64318e-05
1302.45	1.50545e-05
1311	1.65138e-05
1319.56	2.16606e-05
1328.12	3.16235e-05
1336.68	4.23998e-05
1345.23	4.98978e-05
1353.79	6.52415e-05
1362.35	8.55505e-05
1370.91	0.000130978
1379.46	0.000189311
1388.02	0.000185222
1396.58	0.000158662
1405.14	8.29977e-05
1413.7	4.35081e-05
1422.25	2.53737e-05
1430.81	2.14501e-05
1439.37	2.54808e-05
1447.93	3.16695e-05
1456.48	4.41599e-05
1465.04	4.51015e-05
1473.6	7.84266e-05
1482.16	2.9692e-05
1490.71	2.41565e-05
1499.27	1.34288e-05
1507.83	6.25333e-06
1516.39	3.47277e-06
1524.94	2.33033e-06
1533.5	1.85528e-06
1542.06	1.74446e-06
1550.62	1.32168e-06
1559.18	1.23118e-06
1567.73	1.08407e-06
1576.29	1.37596e-06
1584.85	1.00881e-06
1593.41	1.00241e-06
1601.96	9.21509e-07
1610.52	8.99075e-07
1619.08	9.30413e-07
1627.64	1.01238e-06
1636.19	1.12092e-06
1644.75	1.31813e-06
1653.31	1.92947e-06
1661.87	1.64574e-06
1670.42	1.69871e-06
1678.98	1.65655e-06
1687.54	1.59287e-06
1696.1	1.77438e-06
1704.65	1.60353e-06
1713.21	1.67502e-06
1721.77	1.83055e-06
1730.33	1.95516e-06
1738.89	2.23536e-06
1747.44	3.03368e-06
1756	3.83246e-06
1764.56	3.93318e-06
1773.12	3.77732e-06
1781.67	3.30385e-06
1790.23	1.51646e-06
1798.79	6.24103e-07
1807.35	5.24245e-07
1815.9	5.99317e-07
1824.46	6.51829e-07
1833.02	7.24318e-07
1841.58	6.45702e-07
1850.13	5.83607e-07
1858.69	8.66562e-07
1867.25	9.37166e-07
1875.81	1.38602e-06
1884.36	1.81021e-06
1892.92	2.24266e-06
1901.48	2.37986e-06
1910.04	2.0559e-06
1918.6	1.58821e-06
1927.15	6.77155e-07
1935.71	2.8804e-07
1944.27	2.17075e-07
1952.83	2.91072e-07
1961.38	3.69254e-07
1969.94	4.08064e-07
1978.5	5.36e-07
1987.06	5.34779e-07
1995.61	5.15226e-07
2004.17	5.31236e-07
2012.73	6.31443e-07
2021.29	7.22872e-07
2029.84	7.7364e-07
2038.4	8.1286e-07
2046.96	7.22299e-07
2055.52	8.07967e-07
2064.08	1.0035e-06
2072.63	1.23094e-06
2081.19	1.32958e-06
2089.75	1.26881e-06
2098.31	1.1365e-06
2106.86	8.82745e-07
2115.42	8.94212e-07
2123.98	8.04869e-07
2132.54	7.74117e-07
2141.09	9.74045e-07
2149.65	1.12713e-06
2158.21	1.72468e-06
2166.77	1.40799e-06
2175.32	1.38117e-06
2183.88	1.54612e-06
2192.44	1.74821e-06
2201	1.51887e-06
2209.55	1.42335e-06
2218.11	7.55421e-07
2226.67	4.63984e-07
2235.23	3.88935e-07
2243.79	3.80172e-07
2252.34	4.79684e-07
2260.9	5.62219e-07
2269.46	7.85064e-07
2278.02	1.08743e-06
2286.57	1.43476e-06
2295.13	1.92111e-06
2303.69	2.29665e-06
2312.25	2.70259e-06
2320.8	2.60383e-06
2329.36	2.44253e-06
2337.92	1.76581e-06
2346.48	1.21912e-06
2355.03	8.5622e-07
2363.59	7.56988e-07
2372.15	8.7095e-07
2380.71	1.04607e-06
2389.26	1.18267e-06
2397.82	1.16032e-06
2406.38	1.11209e-06
2414.94	1.20985e-06
2423.5	1.24423e-06
2432.05	1.37297e-06
2440.61	1.32409e-06
2449.17	1.44643e-06
2457.73	1.36761e-06
2466.28	1.27263e-06
2474.84	1.44699e-06
2483.4	1.68393e-06
2491.96	1.91317e-06
2500.51	2.07406e-06
2509.07	2.11179e-06
2517.63	1.91891e-06
2526.19	1.67878e-06
2534.74	1.64769e-06
2543.3	1.42786e-06
2551.86	1.29988e-06
2560.42	1.32051e-06
2568.98	1.50064e-06
2577.53	1.7703e-06
2586.09	2.18544e-06
2594.65	2.6755e-06
2603.21	3.5066e-06
2611.76	3.99814e-06
2620.32	4.73687e-06
2628.88	6.70615e-06
2637.44	7.73314e-06
2645.99	8.42365e-06
2654.55	8.64124e-06
2663.11	9.32627e-06
2671.67	8.18939e-06
2680.22	6.77212e-06
2688.78	5.62798e-06
2697.34	4.77759e-06
2705.9	4.65809e-06
2714.45	5.63823e-06
2723.01	6.25388e-06
2731.57	6.99633e-06
2740.13	7.1511e-06
2748.69	6.99542e-06
2757.24	7.38582e-06
2765.8	8.41588e-06
2774.36	8.89922e-06
2782.92	9.87218e-06
2791.47	1.10489e-05
2800.03	1.21452e-05
2808.59	1.32834e-05
2817.15	1.55273e-05
2825.7	1.79139e-05
2834.26	2.04084e-05
2842.82	2.37281e-05
2851.38	3.79724e-05
2859.93	5.65044e-05
2868.49	8.56967e-05
2877.05	0.000108254
2885.61	0.000153049
2894.16	0.00014362
2902.72	0.000131362
2911.28	0.000115348
2919.84	0.000102554
2928.4	0.000112188
2936.95	0.000118396
2945.51	0.000148404
2954.07	0.000215033
2962.63	0.000283948
2971.18	0.000464235
2979.74	0.000522954
2988.3	0.000307168
2996.86	0.000247381
3005.41	0.00012774
3013.97	3.54943e-05
3022.53	8.66835e-06
3031.09	3.24141e-06
3039.64	2.01398e-06
3048.2	1.5248e-06
3056.76	1.20989e-06
3065.32	1.17981e-06
3073.88	1.17278e-06
3082.43	1.22114e-06
3090.99	1.25529e-06
3099.55	1.37886e-06
3108.11	1.43315e-06
3116.66	1.57396e-06
3125.22	1.76504e-06
3133.78	1.87492e-06
3142.34	1.93997e-06
3150.89	2.31702e-06
3159.45	2.83621e-06
3168.01	3.60712e-06
3176.57	4.42447e-06
3185.12	5.08722e-06
3193.68	5.10566e-06
3202.24	5.15477e-06
3210.8	4.49087e-06
3219.35	4.16848e-06
3227.91	3.75957e-06
3236.47	3.22339e-06
3245.03	2.36284e-06
3253.59	1.38182e-06
3262.14	8.92478e-07
3270.7	4.2188e-07
3279.26	3.42587e-07
3287.82	2.90297e-07
3296.37	3.23639e-07
3304.93	5.00813e-07
3313.49	7.26652e-07
3322.05	1.09989e-06
3330.6	1.55577e-06
3339.16	1.86724e-06
3347.72	1.72868e-06
3356.28	1.63309e-06
3364.83	1.47765e-06
3373.39	1.32395e-06
3381.95	1.31713e-06
3390.51	1.46058e-06
3399.06	1.82021e-06
3407.62	1.87412e-06
3416.18	2.10982e-06
3424.74	2.58384e-06
3433.3	2.49961e-06
3441.85	2.52088e-06
3450.41	3.36267e-06
3458.97	2.57631e-06
3467.53	2.26054e-06
3476.08	1.91676e-06
3484.64	1.50254e-06
3493.2	1.23133e-06
3501.76	9.11388e-07
3510.31	7.7945e-07
3518.87	8.32312e-07
3527.43	9.13975e-07
3535.99	1.08317e-06
3544.54	1.23784e-06
3553.1	1.14984e-06
3561.66	9.86179e-07
3570.22	9.66132e-07
3578.78	1.01054e-06
3587.33	1.07052e-06
3595.89	1.63433e-06
3604.45	2.33784e-06
3613.01	4.83871e-06
3621.56	8.58193e-06
3630.12	1.35986e-05
3638.68	3.15051e-05
3647.24	4.87906e-05
3655.79	5.57507e-05
3664.35	4.83541e-05
3672.91	4.12914e-05
3681.47	1.91809e-05
3690.02	6.00225e-06
3698.58	2.66045e-06
3707.14	1.79011e-06
3715.7	1.57142e-06
3724.25	1.2228e-06
3732.81	1.11992e-06
3741.37	1.17045e-06
3749.93	1.04007e-06
3758.49	9.35836e-07
3767.04	1.10903e-06
3775.6	1.4028e-06
3784.16	1.93374e-06
3792.72	2.18365e-06
3801.27	2.61968e-06
3809.83	2.5529e-06
3818.39	2.64096e-06
3826.95	2.66118e-06
3835.5	2.58335e-06
3844.06	2.46112e-06
3852.62	2.33897e-06
3861.18	2.17948e-06
3869.73	2.45815e-06
3878.29	2.20915e-06
3886.85	2.1456e-06
3895.41	2.5543e-06
3903.96	2.07893e-06
3912.52	1.9064e-06
3921.08	1.48763e-06
3929.64	1.36387e-06
3938.2	1.16636e-06
3946.75	1.11969e-06
3955.31	9.01334e-07
3963.87	8.3017e-07
3972.43	8.18228e-07
