Infrared Spectrum: 2-Propanone
Formula: C H3 C O C H3
CAS: 67-64-1
State: gas
Melting point: -95.35 C
Boiling point: 56.2 C
Class: IUPAC A
Instrument: IFS66V (Bruker)
Instrument parameters: KBr Beam splitter; MCT Detector; Multipass cell
Sampling: 1 L/min Flow
Resolution: 1.9290
Temperature: 23 C
Pressure: 101.3 kPa
Origin: NIST, Anayltical Chemistry Division, 301-975-3108
cm-1	(micromol/mol)-1m-1 (base 10)
574.687	4.07516e-07
583.365	2.03392e-07
592.043	2.61092e-07
600.721	1.14982e-07
609.4	2.64331e-08
618.078	1.10511e-08
626.756	-4.59287e-09
635.434	-7.53704e-08
644.112	-1.21152e-08
652.79	5.50144e-09
661.469	-5.05098e-08
670.147	-1.57567e-08
678.825	-3.53288e-08
687.503	-2.77455e-08
696.181	-4.00353e-09
704.859	7.2511e-08
713.537	1.14423e-07
722.216	2.69765e-07
730.894	5.24654e-07
739.572	1.00128e-06
748.25	2.00372e-06
756.928	3.7302e-06
765.606	5.43302e-06
774.285	5.86806e-06
782.963	5.78482e-06
791.641	5.42045e-06
800.319	2.95276e-06
808.997	1.12077e-06
817.675	4.88938e-07
826.353	4.73363e-07
835.032	5.6761e-07
843.71	8.42594e-07
852.388	1.43132e-06
861.066	3.19598e-06
869.744	7.87537e-06
878.422	1.35601e-05
887.101	1.94968e-05
895.779	2.29968e-05
904.457	2.20551e-05
913.135	1.83653e-05
921.813	1.27297e-05
930.491	8.76715e-06
939.169	5.7696e-06
947.848	4.24088e-06
956.526	3.80122e-06
965.204	3.53714e-06
973.882	3.29454e-06
982.56	3.07406e-06
991.238	2.64579e-06
999.917	2.22963e-06
1008.59	1.84758e-06
1017.27	1.76345e-06
1025.95	1.68501e-06
1034.63	1.87309e-06
1043.31	2.22545e-06
1051.99	2.5259e-06
1060.66	3.01983e-06
1069.34	4.18263e-06
1078.02	5.77006e-06
1086.7	8.13747e-06
1095.38	1.37628e-05
1104.05	1.01122e-05
1112.73	1.05032e-05
1121.41	7.82786e-06
1130.09	4.96327e-06
1138.77	3.42444e-06
1147.45	2.81163e-06
1156.12	3.00028e-06
1164.8	4.45053e-06
1173.48	8.75899e-06
1182.16	2.15533e-05
1190.84	7.42338e-05
1199.51	0.000195161
1208.19	0.000249921
1216.87	0.000361802
1225.55	0.00025855
1234.23	0.000212892
1242.9	4.88132e-05
1251.58	1.05989e-05
1260.26	5.0639e-06
1268.94	3.74898e-06
1277.62	3.59427e-06
1286.3	4.19243e-06
1294.97	5.30664e-06
1303.65	7.59183e-06
1312.33	1.1607e-05
1321.01	1.9095e-05
1329.69	3.63049e-05
1338.36	8.23702e-05
1347.04	0.000176399
1355.72	0.000238806
1364.4	0.00030254
1373.08	0.000283005
1381.76	0.000207862
1390.43	9.13497e-05
1399.11	5.60528e-05
1407.79	5.49255e-05
1416.47	6.61995e-05
1425.15	7.56872e-05
1433.82	8.18391e-05
1442.5	7.87295e-05
1451.18	6.94738e-05
1459.86	5.49757e-05
1468.54	4.22244e-05
1477.22	3.36214e-05
1485.89	2.29919e-05
1494.57	1.86425e-05
1503.25	1.70656e-05
1511.93	1.66765e-05
1520.61	1.74412e-05
1529.28	1.64396e-05
1537.96	1.64851e-05
1546.64	1.52052e-05
1555.32	1.44837e-05
1564	1.3079e-05
1572.67	1.10215e-05
1581.35	9.05495e-06
1590.03	7.56581e-06
1598.71	5.93305e-06
1607.39	4.693e-06
1616.07	4.76786e-06
1624.74	3.73073e-06
1633.42	3.61057e-06
1642.1	4.12025e-06
1650.78	5.40391e-06
1659.46	6.42487e-06
1668.13	8.98132e-06
1676.81	1.25323e-05
1685.49	1.95556e-05
1694.17	3.28269e-05
1702.85	8.12201e-05
1711.53	0.000198066
1720.2	0.000329876
1728.88	0.000395791
1737.56	0.000505041
1746.24	0.000449701
1754.92	0.000347548
1763.59	0.000232811
1772.27	0.000136896
1780.95	8.03065e-05
1789.63	5.68822e-05
1798.31	3.62196e-05
1806.98	2.25136e-05
1815.66	1.32366e-05
1824.34	8.48723e-06
1833.02	5.87695e-06
1841.7	4.6114e-06
1850.38	3.06124e-06
1859.05	2.24883e-06
1867.73	1.90831e-06
1876.41	1.52258e-06
1885.09	1.28889e-06
1893.77	1.03578e-06
1902.44	8.53391e-07
1911.12	6.26951e-07
1919.8	4.74949e-07
1928.48	4.53424e-07
1937.16	4.77364e-07
1945.84	5.53552e-07
1954.51	6.84881e-07
1963.19	8.7904e-07
1971.87	1.07649e-06
1980.55	1.18916e-06
1989.23	1.10397e-06
1997.9	9.31768e-07
2006.58	6.50636e-07
2015.26	2.93999e-07
2023.94	2.0099e-07
2032.62	1.96518e-07
2041.3	2.24762e-07
2049.97	2.67661e-07
2058.65	3.64875e-07
2067.33	5.24219e-07
2076.01	8.44712e-07
2084.69	1.48365e-06
2093.36	2.40442e-06
2102.04	3.12233e-06
2110.72	4.14693e-06
2119.4	5.30725e-06
2128.08	5.68078e-06
2136.75	5.55259e-06
2145.43	5.41371e-06
2154.11	3.90225e-06
2162.79	2.12508e-06
2171.47	1.03101e-06
2180.15	7.3263e-07
2188.82	5.82978e-07
2197.5	6.14627e-07
2206.18	6.8454e-07
2214.86	9.28883e-07
2223.54	1.23388e-06
2232.21	1.74853e-06
2240.89	2.08328e-06
2249.57	2.11556e-06
2258.25	2.24659e-06
2266.93	1.83505e-06
2275.61	1.3911e-06
2284.28	1.03765e-06
2292.96	8.5626e-07
2301.64	7.2732e-07
2310.32	7.17874e-07
2319	7.5977e-07
2327.67	8.25113e-07
2336.35	7.7205e-07
2345.03	6.55838e-07
2353.71	5.69988e-07
2362.39	5.6733e-07
2371.06	3.77972e-07
2379.74	2.00511e-07
2388.42	1.65299e-07
2397.1	2.67916e-07
2405.78	4.9413e-07
2414.46	7.4345e-07
2423.13	9.52169e-07
2431.81	1.00629e-06
2440.49	9.84415e-07
2449.17	1.01846e-06
2457.85	4.04351e-07
2466.52	3.08095e-07
2475.2	2.95776e-07
2483.88	3.95245e-07
2492.56	4.76135e-07
2501.24	5.57081e-07
2509.92	6.41408e-07
2518.59	6.20836e-07
2527.27	6.83687e-07
2535.95	8.63679e-07
2544.63	1.20709e-06
2553.31	1.86167e-06
2561.98	2.50986e-06
2570.66	2.76475e-06
2579.34	2.52477e-06
2588.02	2.46902e-06
2596.7	1.26416e-06
2605.38	5.99269e-07
2614.05	4.84318e-07
2622.73	4.80187e-07
2631.41	5.38e-07
2640.09	6.02185e-07
2648.77	5.80849e-07
2657.44	5.58214e-07
2666.12	4.49836e-07
2674.8	3.34545e-07
2683.48	3.48421e-07
2692.16	3.83148e-07
2700.83	4.05601e-07
2709.51	5.43884e-07
2718.19	5.59458e-07
2726.87	4.74454e-07
2735.55	4.80348e-07
2744.23	5.27174e-07
2752.9	6.6286e-07
2761.58	9.76359e-07
2770.26	1.4654e-06
2778.94	2.17028e-06
2787.62	2.54964e-06
2796.29	2.99572e-06
2804.97	3.07631e-06
2813.65	3.13445e-06
2822.33	3.54568e-06
2831.01	4.82745e-06
2839.69	6.77554e-06
2848.36	8.10715e-06
2857.04	9.09802e-06
2865.72	9.71534e-06
2874.4	9.0475e-06
2883.08	8.61911e-06
2891.75	9.57245e-06
2900.43	1.25575e-05
2909.11	1.95793e-05
2917.79	3.05272e-05
2926.47	3.67122e-05
2935.14	3.92525e-05
2943.82	4.82447e-05
2952.5	4.64738e-05
2961.18	3.96936e-05
2969.86	0.000111253
2978.54	3.88167e-05
2987.21	4.47165e-05
2995.89	5.17996e-05
3004.57	5.77951e-05
3013.25	5.71641e-05
3021.93	5.59128e-05
3030.6	5.37514e-05
3039.28	3.4715e-05
3047.96	2.42872e-05
3056.64	2.17741e-05
3065.32	2.05948e-05
3074	1.95701e-05
3082.67	1.7601e-05
3091.35	1.49972e-05
3100.03	1.14772e-05
3108.71	8.40424e-06
3117.39	5.68335e-06
3126.06	3.89834e-06
3134.74	2.87342e-06
3143.42	2.32697e-06
3152.1	2.082e-06
3160.78	1.85837e-06
3169.46	1.73066e-06
3178.13	1.57727e-06
3186.81	1.32866e-06
3195.49	1.1339e-06
3204.17	9.35735e-07
3212.85	8.2325e-07
3221.52	7.26397e-07
3230.2	6.73718e-07
3238.88	6.29724e-07
3247.56	5.5121e-07
3256.24	5.2816e-07
3264.91	4.89032e-07
3273.59	4.68518e-07
3282.27	4.75821e-07
3290.95	4.91265e-07
3299.63	5.02439e-07
3308.31	4.90765e-07
3316.98	4.61829e-07
3325.66	4.09241e-07
3334.34	3.29091e-07
3343.02	2.83534e-07
3351.7	2.74306e-07
3360.37	2.94406e-07
3369.05	3.46762e-07
3377.73	5.40325e-07
3386.41	6.50607e-07
3395.09	6.55033e-07
3403.77	7.50077e-07
3412.44	1.01271e-06
3421.12	2.04935e-06
3429.8	4.39095e-06
3438.48	7.40454e-06
3447.16	9.63277e-06
3455.83	1.15609e-05
3464.51	1.10369e-05
3473.19	8.85634e-06
3481.87	5.82268e-06
3490.55	3.60129e-06
3499.22	2.45238e-06
3507.9	1.51772e-06
3516.58	8.09814e-07
3525.26	5.06288e-07
3533.94	2.36244e-07
3542.62	1.57284e-07
3551.29	1.31643e-07
3559.97	1.05178e-07
3568.65	2.26526e-07
3577.33	-2.18512e-08
3586.01	1.86016e-07
3594.68	5.21305e-08
3603.36	1.61587e-08
3612.04	2.731e-07
3620.72	2.54291e-07
3629.4	9.68674e-07
3638.08	1.24361e-07
3646.75	5.07628e-07
3655.43	4.28298e-07
3664.11	1.36603e-07
3672.79	2.37382e-07
3681.47	2.12314e-07
3690.14	4.25821e-07
3698.82	2.55225e-07
3707.5	2.69729e-07
3716.18	3.03644e-07
3724.86	4.33234e-07
3733.54	6.16351e-07
3742.21	5.23363e-07
3750.89	8.77958e-07
3759.57	7.45106e-07
3768.25	5.06918e-07
3776.93	5.21845e-07
3785.6	6.52723e-07
3794.28	6.64185e-07
3802.96	1.02146e-06
3811.64	7.65328e-07
3820.32	1.2441e-06
3828.99	7.21944e-07
3837.67	1.80144e-06
3846.35	4.90625e-07
3855.03	1.59389e-06
3863.71	5.33865e-07
3872.39	4.03817e-07
3881.06	5.78315e-07
3889.74	3.99531e-07
3898.42	6.43979e-07
3907.1	5.62764e-07
3915.78	6.37923e-07
3924.45	7.53378e-07
3933.13	7.57202e-07
3941.81	7.1393e-07
3950.49	7.2855e-07
3959.17	7.33045e-07
3967.85	8.55384e-07
