Infrared Spectrum: Chloroform
Formula: C H Cl3
CAS: 67-66-3
State: gas
Melting point: -63.5 C
Boiling point: 61.7 C
Class: IUPAC A
Instrument: IFS66V (Bruker)
Instrument parameters: KBr Beam Splitter; MCT Detector; Multipass cell
Sampling: 1 L/min Flow
Resolution: 0.2410
Temperature: 23 C
Pressure: 101.3 Pa
Origin: NIST, Analytical Chemistry Division, 301-975-3108
cm-1	(micromol/mol)-1m-1 (base 10)
575.05	-4.37932e-06
583.608	-3.03255e-07
592.165	8.54328e-07
600.723	1.68427e-06
609.281	3.6441e-06
617.838	1.07968e-06
626.396	4.7341e-06
634.954	1.50469e-06
643.511	4.40593e-07
652.069	1.11932e-06
660.626	4.49192e-06
669.184	1.3689e-05
677.742	1.07043e-05
686.299	4.53209e-05
694.857	5.21326e-06
703.415	3.65991e-07
711.972	2.04406e-07
720.53	6.7753e-07
729.088	2.39995e-06
737.645	1.45578e-05
746.203	6.78471e-05
754.761	0.000239761
763.318	0.00101098
771.876	0.00282018
780.434	0.00110975
788.991	0.000160259
797.549	3.39145e-05
806.106	3.82944e-06
814.664	9.56622e-07
823.222	4.14066e-08
831.779	-7.44092e-07
840.337	9.34355e-07
848.895	3.83509e-06
857.452	4.9069e-06
866.01	9.6062e-07
874.568	7.44678e-07
883.125	4.14528e-07
891.683	-2.22177e-07
900.241	1.94628e-08
908.798	9.77951e-07
917.356	3.8262e-06
925.914	4.19556e-06
934.471	5.73682e-06
943.029	3.57993e-06
951.586	1.86719e-06
960.144	9.86962e-08
968.702	-1.41511e-07
977.259	-7.10991e-08
985.817	-2.47283e-07
994.375	-4.92695e-07
1002.93	-7.52827e-08
1011.49	4.3653e-07
1020.05	2.07735e-06
1028.61	2.24478e-06
1037.16	1.9728e-06
1045.72	-1.96432e-07
1054.28	1.75674e-07
1062.84	-2.86008e-07
1071.39	3.42636e-07
1079.95	1.79152e-07
1088.51	1.75587e-07
1097.07	-6.13863e-07
1105.62	9.0722e-08
1114.18	1.8773e-07
1122.74	-2.73748e-07
1131.3	3.11848e-07
1139.85	-5.15199e-07
1148.41	-8.34087e-07
1156.97	-3.07592e-07
1165.53	-6.97502e-07
1174.09	-1.93835e-07
1182.64	6.10123e-07
1191.2	2.84469e-06
1199.76	1.0448e-05
1208.32	6.86767e-05
1216.87	0.00038546
1225.43	0.000201819
1233.99	3.27925e-05
1242.55	5.34863e-06
1251.1	9.23495e-07
1259.66	3.21445e-07
1268.22	-5.99235e-08
1276.78	-3.44342e-07
1285.33	-2.02089e-07
1293.89	-3.27084e-07
1302.45	-5.42411e-07
1311.01	-3.05944e-07
1319.57	4.3673e-08
1328.12	-2.37748e-07
1336.68	-5.97161e-07
1345.24	1.82648e-07
1353.8	-1.43071e-06
1362.35	-2.79845e-07
1370.91	1.38302e-07
1379.47	-2.34139e-07
1388.03	-9.01221e-07
1396.58	7.75018e-08
1405.14	-8.46732e-07
1413.7	-2.87354e-07
1422.26	5.14625e-07
1430.81	2.59283e-06
1439.37	7.82106e-06
1447.93	5.73443e-06
1456.49	-3.83521e-06
1465.05	-9.43024e-07
1473.6	-2.47649e-06
1482.16	1.18983e-06
1490.72	-1.23458e-06
1499.28	-1.65572e-07
1507.83	-2.50619e-07
1516.39	1.12329e-06
1524.95	2.68121e-06
1533.51	5.08481e-06
1542.06	1.05823e-06
1550.62	5.20785e-06
1559.18	3.85213e-06
1567.74	1.99696e-06
1576.29	-7.11026e-06
1584.85	-3.19961e-07
1593.41	-4.94274e-07
1601.97	6.58387e-08
1610.53	-5.31203e-07
1619.08	-1.52282e-07
1627.64	-8.57308e-07
1636.2	-7.59277e-07
1644.76	-5.26477e-08
1653.31	-1.37607e-05
1661.87	-7.31982e-07
1670.43	-2.6943e-07
1678.99	-4.71821e-07
1687.54	-3.03361e-07
1696.1	-3.55994e-06
1704.66	-7.09925e-07
1713.22	-2.68248e-07
1721.77	-4.76314e-07
1730.33	-6.98419e-07
1738.89	-3.6128e-07
1747.45	-5.85793e-07
1756.01	-1.62978e-09
1764.56	-1.00395e-07
1773.12	-7.2539e-07
1781.68	-2.56927e-07
1790.24	-2.14469e-07
1798.79	3.33705e-08
1807.35	1.01861e-10
1815.91	2.42913e-07
1824.47	4.43969e-07
1833.02	8.60327e-07
1841.58	1.93998e-07
1850.14	-1.82801e-07
1858.7	-1.92947e-07
1867.25	-2.62431e-07
1875.81	-2.51019e-07
1884.37	-9.05e-08
1892.93	-1.33431e-07
1901.49	-1.14725e-07
1910.04	-3.9234e-07
1918.6	-1.06845e-07
1927.16	-2.50975e-07
1935.72	-3.65369e-07
1944.27	-2.85684e-07
1952.83	-1.95788e-07
1961.39	-4.44842e-08
1969.95	-2.31014e-07
1978.5	1.59755e-07
1987.06	-6.97022e-08
1995.62	-6.6308e-08
2004.18	3.9242e-08
2012.73	2.11842e-07
2021.29	-2.16535e-07
2029.85	-1.84616e-07
2038.41	-1.52279e-07
2046.97	-3.91202e-07
2055.52	-3.36528e-07
2064.08	-1.7542e-07
2072.64	-4.13211e-07
2081.2	-6.66063e-08
2089.75	-7.27966e-07
2098.31	-2.50924e-07
2106.87	-1.92492e-07
2115.43	-3.57085e-07
2123.98	-8.94123e-08
2132.54	2.49305e-08
2141.1	8.89939e-08
2149.66	-3.2099e-07
2158.21	-6.98011e-07
2166.77	1.26719e-07
2175.33	-2.42597e-07
2183.89	-9.87726e-08
2192.45	1.28738e-07
2201	-1.10836e-07
2209.56	4.49939e-07
2218.12	1.81022e-07
2226.68	-1.79352e-07
2235.23	1.29666e-07
2243.79	4.70995e-07
2252.35	-2.24091e-07
2260.91	-1.93682e-07
2269.46	9.40834e-08
2278.02	-8.0554e-08
2286.58	3.10593e-07
2295.14	5.80973e-08
2303.69	-2.33633e-07
2312.25	-2.0668e-07
2320.81	1.52872e-07
2329.37	5.07051e-08
2337.93	1.03329e-06
2346.48	-4.01224e-08
2355.04	1.35115e-07
2363.6	6.15278e-07
2372.16	-2.00085e-09
2380.71	4.91197e-07
2389.27	3.98725e-07
2397.83	2.21901e-06
2406.39	1.68186e-06
2414.94	2.0928e-06
2423.5	1.98666e-06
2432.06	6.83674e-07
2440.62	1.1932e-06
2449.17	3.46797e-07
2457.73	7.53944e-07
2466.29	3.0351e-07
2474.85	-1.54622e-07
2483.41	-1.72476e-07
2491.96	-9.97039e-08
2500.52	-8.65384e-08
2509.08	-4.91415e-07
2517.64	-4.05222e-07
2526.19	-3.05922e-07
2534.75	-3.39416e-08
2543.31	-3.88346e-07
2551.87	-3.5101e-07
2560.42	-6.00796e-07
2568.98	-2.15378e-07
2577.54	-3.15606e-07
2586.1	-2.04505e-07
2594.65	-6.08839e-07
2603.21	-6.60381e-07
2611.77	-6.21266e-07
2620.33	-6.57554e-07
2628.89	-4.23994e-07
2637.44	-6.29e-07
2646	-4.55643e-07
2654.56	-3.45382e-07
2663.12	-5.23992e-07
2671.67	-3.48183e-08
2680.23	2.28387e-08
2688.79	-4.83895e-07
2697.35	-2.46104e-07
2705.9	-6.54793e-07
2714.46	-4.24849e-07
2723.02	-6.82081e-07
2731.58	-1.07213e-07
2740.13	-5.27361e-07
2748.69	-2.55206e-07
2757.25	-2.51084e-07
2765.81	-2.63984e-07
2774.37	-4.29869e-07
2782.92	-4.28737e-07
2791.48	-6.64157e-07
2800.04	-8.45768e-07
2808.6	-1.3242e-09
2817.15	-5.36652e-07
2825.71	1.99775e-07
2834.27	-1.76231e-07
2842.83	-2.57385e-07
2851.38	-2.41771e-07
2859.94	2.43448e-08
2868.5	-4.09849e-07
2877.06	6.42089e-08
2885.61	-5.15912e-07
2894.17	-8.64285e-07
2902.73	-6.21099e-07
2911.29	-6.02982e-08
2919.85	-1.36632e-07
2928.4	-4.19941e-07
2936.96	-5.36092e-07
2945.52	-9.93187e-07
2954.08	-3.71259e-07
2962.63	3.11193e-07
2971.19	-5.98122e-07
2979.75	-9.18093e-07
2988.31	-5.97376e-07
2996.86	3.38776e-07
3005.42	-6.58154e-07
3013.98	-7.00332e-08
3022.54	9.06266e-07
3031.09	-7.971e-08
3039.65	7.92837e-07
3048.21	8.17909e-07
3056.77	-2.17354e-07
3065.33	-3.13187e-07
3073.88	-4.89163e-07
3082.44	-3.41806e-07
3091	-6.21681e-08
3099.56	1.0933e-07
3108.11	-3.1171e-07
3116.67	-2.0672e-07
3125.23	-1.19396e-08
3133.79	-6.23769e-07
3142.34	-2.34659e-07
3150.9	5.08215e-09
3159.46	4.65044e-07
3168.02	-2.17434e-07
3176.57	-4.54967e-07
3185.13	1.06882e-07
3193.69	-1.6906e-07
3202.25	-1.83932e-08
3210.81	-5.45503e-08
3219.36	-8.59599e-08
3227.92	2.97035e-07
3236.48	-1.0659e-07
3245.04	3.22624e-07
3253.59	-2.64115e-07
3262.15	4.2124e-07
3270.71	-3.52876e-09
3279.27	-1.25278e-07
3287.82	-4.76601e-07
3296.38	6.05128e-08
3304.94	1.13452e-07
3313.5	-1.91357e-07
3322.05	8.62364e-08
3330.61	1.89415e-07
3339.17	-3.2127e-07
3347.73	1.81509e-07
3356.29	6.11487e-07
3364.84	-6.78792e-07
3373.4	-1.19465e-07
3381.96	-1.53289e-06
3390.52	3.50479e-07
3399.07	-1.79661e-07
3407.63	-7.71235e-09
3416.19	-7.5223e-07
3424.75	-7.4207e-07
3433.3	2.97296e-07
3441.86	-6.90557e-07
3450.42	-8.61138e-07
3458.98	-5.9348e-07
3467.53	-3.01338e-07
3476.09	-4.84466e-07
3484.65	-8.05682e-07
3493.21	-6.58449e-07
3501.77	-5.37074e-07
3510.32	-3.43563e-07
3518.88	-4.0412e-07
3527.44	-4.88679e-08
3536	-7.58178e-07
3544.55	-1.32165e-07
3553.11	-3.94028e-07
3561.67	-5.29376e-07
3570.23	-5.76611e-07
3578.78	3.52985e-07
3587.34	1.85089e-07
3595.9	-6.30823e-07
3604.46	2.29915e-09
3613.01	-8.70186e-07
3621.57	-4.97428e-07
3630.13	-1.90932e-07
3638.69	-1.8952e-07
3647.25	-1.85076e-06
3655.8	-6.95159e-07
3664.36	-8.00429e-07
3672.92	4.34001e-09
3681.48	4.18802e-07
3690.03	-2.04959e-08
3698.59	2.61339e-07
3707.15	1.91059e-07
3715.71	-3.37597e-07
3724.26	-2.67022e-07
3732.82	-1.38611e-07
3741.38	-1.3399e-06
3749.94	-1.3173e-06
3758.49	-5.08498e-07
3767.05	-8.34742e-07
3775.61	-1.65041e-07
3784.17	-3.14529e-07
3792.73	1.41627e-07
3801.28	-4.60194e-06
3809.84	-3.92875e-07
3818.4	-4.78122e-07
3826.96	-2.93066e-07
3835.51	-1.00593e-06
3844.07	-6.57296e-07
3852.63	-9.11199e-07
3861.19	-1.00596e-06
3869.74	-1.19736e-06
3878.3	-7.47756e-07
3886.86	-6.15271e-07
3895.42	-2.7186e-08
3903.97	-9.6026e-07
3912.53	-7.15702e-07
3921.09	-2.50164e-07
3929.65	-1.00728e-06
3938.21	-6.80622e-07
3946.76	-4.89541e-07
3955.32	7.4466e-07
3963.88	9.59169e-08
3972.44	-8.014e-07
