Infrared Spectrum: Chloroform
Formula: C H Cl3
CAS: 67-66-3
State: gas
Melting point: -63.5 C
Boiling point: 61.7 C
Class: IUPAC A
Instrument: IFS66V (Bruker)
Instrument parameters: KBr Beam Splitter; MCT Detector; Multipass cell
Sampling: 1 L/min Flow
Resolution: 0.1250
Temperature: 23 C
Pressure: 101.3 Pa
Origin: NIST, Analytical Chemistry Division, 301-975-3108
cm-1	(micromol/mol)-1m-1 (base 10)
575.05	-1.72201e-06
583.608	-4.18813e-07
592.165	9.40659e-07
600.723	1.55483e-06
609.281	2.76953e-06
617.838	8.47791e-07
626.396	4.53733e-06
634.954	1.92448e-06
643.511	8.74471e-07
652.069	1.36183e-06
660.626	4.01985e-06
669.184	1.39069e-05
677.742	1.11861e-05
686.299	4.49995e-05
694.857	5.60958e-06
703.415	6.37316e-07
711.972	3.03725e-07
720.53	5.30821e-07
729.088	2.53914e-06
737.645	1.51499e-05
746.203	6.83765e-05
754.761	0.000241146
763.318	0.00101264
771.876	0.00280339
780.434	0.00110861
788.991	0.000162013
797.549	3.42536e-05
806.106	4.00448e-06
814.664	1.02618e-06
823.222	-8.15872e-08
831.779	9.13477e-08
840.337	1.13735e-06
848.895	3.804e-06
857.452	5.02903e-06
866.01	1.04826e-06
874.568	4.71599e-07
883.125	4.43311e-07
891.683	-1.49881e-07
900.241	-9.43926e-08
908.798	9.80843e-07
917.356	3.81439e-06
925.914	4.30911e-06
934.471	5.82667e-06
943.029	3.60444e-06
951.586	1.8524e-06
960.144	2.3901e-09
968.702	-1.55924e-07
977.259	1.35057e-07
985.817	-2.02875e-07
994.375	-4.52191e-07
1002.93	-6.38852e-08
1011.49	4.27613e-07
1020.05	1.98628e-06
1028.61	2.29175e-06
1037.16	2.00241e-06
1045.72	-5.76607e-08
1054.28	-5.21311e-09
1062.84	-4.52511e-07
1071.39	1.86417e-07
1079.95	1.03847e-07
1088.51	-6.23718e-08
1097.07	-4.35639e-07
1105.62	7.68215e-08
1114.18	8.77498e-08
1122.74	-3.9891e-07
1131.3	3.18294e-07
1139.85	-2.48869e-07
1148.41	-6.69286e-07
1156.97	-3.56456e-07
1165.53	-5.27725e-07
1174.09	-5.14726e-08
1182.64	7.3666e-07
1191.2	2.76317e-06
1199.76	1.07604e-05
1208.32	6.88015e-05
1216.87	0.000384501
1225.43	0.000202024
1233.99	3.29136e-05
1242.55	5.42957e-06
1251.1	8.30893e-07
1259.66	2.36518e-07
1268.22	-5.5438e-08
1276.78	-9.82924e-08
1285.33	-1.0639e-07
1293.89	-2.68713e-07
1302.45	-3.10407e-07
1311.01	-3.06002e-07
1319.57	-1.06954e-09
1328.12	-2.09801e-07
1336.68	-4.0369e-07
1345.24	1.6603e-07
1353.8	-1.18499e-06
1362.35	-3.92639e-07
1370.91	1.06845e-07
1379.47	-2.35605e-07
1388.03	-7.43303e-07
1396.58	1.07318e-08
1405.14	-8.86323e-07
1413.7	-2.30003e-07
1422.26	5.16829e-07
1430.81	2.58413e-06
1439.37	7.79157e-06
1447.93	5.9742e-06
1456.49	-3.45571e-06
1465.05	-1.04699e-06
1473.6	-2.08349e-06
1482.16	1.15785e-06
1490.72	-9.94977e-07
1499.28	-1.67558e-07
1507.83	-1.80014e-07
1516.39	1.21341e-06
1524.95	2.68711e-06
1533.51	4.88084e-06
1542.06	1.5361e-06
1550.62	5.14445e-06
1559.18	3.77601e-06
1567.74	1.90867e-06
1576.29	-6.78718e-06
1584.85	-3.04278e-07
1593.41	-5.04522e-07
1601.97	4.90789e-08
1610.53	-4.92859e-07
1619.08	-2.82879e-07
1627.64	-1.00359e-06
1636.2	-7.5573e-07
1644.76	-9.96894e-08
1653.31	-1.21664e-05
1661.87	-6.76497e-07
1670.43	-2.84684e-07
1678.99	-4.03458e-07
1687.54	-2.09056e-07
1696.1	-4.62574e-06
1704.66	-8.53393e-07
1713.22	-2.17023e-07
1721.77	-4.26675e-07
1730.33	-6.37953e-07
1738.89	-2.87907e-07
1747.45	-5.09917e-07
1756.01	-9.21444e-08
1764.56	-1.69148e-07
1773.12	-9.17762e-07
1781.68	-2.54191e-07
1790.24	-1.77766e-07
1798.79	1.66834e-08
1807.35	8.4181e-09
1815.91	2.55355e-07
1824.47	3.86534e-07
1833.02	8.53488e-07
1841.58	1.65077e-07
1850.14	-1.4099e-07
1858.7	-2.49851e-07
1867.25	-2.38861e-07
1875.81	-2.27325e-07
1884.37	-2.08746e-07
1892.93	-1.41609e-07
1901.49	-6.15896e-08
1910.04	-4.6448e-07
1918.6	-1.22928e-07
1927.16	-2.17721e-07
1935.72	-3.64176e-07
1944.27	-2.90104e-07
1952.83	-1.41001e-07
1961.39	-8.56107e-08
1969.95	-1.41987e-07
1978.5	9.64589e-08
1987.06	-9.48655e-08
1995.62	-1.75139e-07
2004.18	-1.01574e-07
2012.73	6.04764e-08
2021.29	-1.95122e-07
2029.85	-2.14141e-07
2038.41	-1.49565e-07
2046.97	-4.01199e-07
2055.52	-3.57162e-07
2064.08	-8.88084e-08
2072.64	-2.75585e-07
2081.2	-1.91364e-07
2089.75	-6.62061e-07
2098.31	-3.1677e-07
2106.87	-9.62516e-08
2115.43	-5.01797e-07
2123.98	-1.05361e-07
2132.54	-1.08606e-07
2141.1	2.95179e-08
2149.66	-2.56607e-07
2158.21	-5.16091e-07
2166.77	9.79323e-09
2175.33	-1.54749e-07
2183.89	-1.59369e-07
2192.45	1.24762e-07
2201	-9.19152e-08
2209.56	3.74584e-07
2218.12	-2.90668e-09
2226.68	-7.19831e-08
2235.23	2.19038e-08
2243.79	3.77643e-07
2252.35	-1.9075e-07
2260.91	-1.55826e-07
2269.46	1.06038e-07
2278.02	-1.01235e-07
2286.58	2.54005e-07
2295.14	1.0077e-07
2303.69	-1.76082e-07
2312.25	-6.72211e-08
2320.81	1.48081e-07
2329.37	2.05079e-07
2337.93	1.04947e-06
2346.48	1.35523e-07
2355.04	1.7558e-07
2363.6	4.49561e-07
2372.16	1.81451e-07
2380.71	5.21424e-07
2389.27	3.83067e-07
2397.83	2.216e-06
2406.39	1.70009e-06
2414.94	1.98063e-06
2423.5	2.07658e-06
2432.06	7.0492e-07
2440.62	1.18621e-06
2449.17	5.14792e-07
2457.73	8.78928e-07
2466.29	3.2895e-07
2474.85	-7.80257e-08
2483.41	-2.1202e-07
2491.96	-1.19436e-07
2500.52	-1.81637e-07
2509.08	-4.32306e-07
2517.64	-2.86605e-07
2526.19	-3.61997e-07
2534.75	-2.53671e-08
2543.31	-4.00722e-07
2551.87	-3.70855e-07
2560.42	-5.66312e-07
2568.98	-3.67977e-07
2577.54	-3.32988e-07
2586.1	-2.12657e-07
2594.65	-5.57934e-07
2603.21	-6.88353e-07
2611.77	-5.3579e-07
2620.33	-6.23947e-07
2628.89	-3.51636e-07
2637.44	-5.72194e-07
2646	-4.50288e-07
2654.56	-3.6124e-07
2663.12	-4.37869e-07
2671.67	-5.04613e-08
2680.23	4.18577e-08
2688.79	-4.228e-07
2697.35	-3.31762e-07
2705.9	-5.08204e-07
2714.46	-4.80039e-07
2723.02	-5.9062e-07
2731.58	-1.76555e-07
2740.13	-5.26681e-07
2748.69	-3.79033e-07
2757.25	-2.51059e-07
2765.81	-2.22392e-07
2774.37	-4.5389e-07
2782.92	-2.53831e-07
2791.48	-6.37458e-07
2800.04	-5.99064e-07
2808.6	-7.40276e-08
2817.15	-5.08738e-07
2825.71	1.13342e-07
2834.27	-3.13816e-07
2842.83	-3.02884e-07
2851.38	-2.20664e-07
2859.94	3.55241e-08
2868.5	-3.70655e-07
2877.06	4.12465e-08
2885.61	-6.09399e-07
2894.17	-7.49891e-07
2902.73	-6.68195e-07
2911.29	-8.07905e-08
2919.85	-3.0562e-07
2928.4	-3.27145e-07
2936.96	-4.20054e-07
2945.52	-8.54095e-07
2954.08	-4.90123e-07
2962.63	1.21862e-07
2971.19	-5.05181e-07
2979.75	-7.37672e-07
2988.31	-5.81518e-07
2996.86	1.40259e-07
3005.42	-6.09563e-07
3013.98	1.29342e-07
3022.54	8.65144e-07
3031.09	-6.84034e-08
3039.65	8.83224e-07
3048.21	5.42484e-07
3056.77	-3.02615e-07
3065.33	-4.00682e-07
3073.88	-5.14184e-07
3082.44	-2.66029e-07
3091	-1.20796e-07
3099.56	4.02388e-08
3108.11	-1.62316e-07
3116.67	-2.73803e-07
3125.23	1.99721e-08
3133.79	-4.98265e-07
3142.34	-1.91139e-07
3150.9	-1.33565e-07
3159.46	3.94789e-07
3168.02	1.1714e-09
3176.57	-5.11012e-07
3185.13	9.07947e-08
3193.69	-1.30815e-07
3202.25	-3.59534e-08
3210.81	1.33864e-07
3219.36	-3.56914e-08
3227.92	4.1014e-07
3236.48	-3.8398e-08
3245.04	3.03841e-07
3253.59	-6.0371e-08
3262.15	3.94756e-07
3270.71	1.25962e-07
3279.27	-1.39128e-07
3287.82	-5.0573e-07
3296.38	1.15336e-07
3304.94	3.29412e-07
3313.5	-1.43562e-07
3322.05	8.80008e-08
3330.61	-8.73423e-08
3339.17	-4.70337e-07
3347.73	1.57339e-08
3356.29	4.69067e-07
3364.84	-6.09847e-07
3373.4	-2.45937e-07
3381.96	-1.42804e-06
3390.52	2.86488e-07
3399.07	-2.00514e-07
3407.63	-5.27495e-09
3416.19	-7.41353e-07
3424.75	-6.30725e-07
3433.3	3.5766e-07
3441.86	-4.7615e-07
3450.42	-8.41825e-07
3458.98	-4.49797e-07
3467.53	-5.15861e-07
3476.09	-3.85596e-07
3484.65	-5.47595e-07
3493.21	-6.31248e-07
3501.77	-3.52847e-07
3510.32	-3.82238e-07
3518.88	-5.97685e-07
3527.44	-1.52712e-07
3536	-6.49791e-07
3544.55	-4.4454e-07
3553.11	-3.95301e-07
3561.67	-4.57782e-07
3570.23	-5.20183e-07
3578.78	2.83552e-07
3587.34	1.53228e-08
3595.9	-3.58926e-07
3604.46	4.86424e-08
3613.01	-7.43481e-07
3621.57	-4.39491e-07
3630.13	-2.61609e-07
3638.69	-3.12579e-07
3647.25	-1.81812e-06
3655.8	-8.83297e-07
3664.36	-7.64323e-07
3672.92	-1.01821e-07
3681.48	-1.4588e-08
3690.03	-1.25762e-08
3698.59	1.58256e-07
3707.15	2.00132e-07
3715.71	-1.49296e-07
3724.26	-1.7682e-07
3732.82	-2.99068e-07
3741.38	-1.39081e-06
3749.94	-1.26772e-06
3758.49	-4.2089e-07
3767.05	-7.51074e-07
3775.61	-1.57339e-07
3784.17	-2.50178e-07
3792.73	-1.16376e-08
3801.28	-4.79131e-06
3809.84	-3.48751e-07
3818.4	-5.59906e-07
3826.96	-6.08992e-07
3835.51	-8.44997e-07
3844.07	-8.06653e-07
3852.63	-7.79336e-07
3861.19	-9.03825e-07
3869.74	-1.2102e-06
3878.3	-7.14494e-07
3886.86	-4.44049e-07
3895.42	-8.75351e-08
3903.97	-1.03575e-06
3912.53	-7.89079e-07
3921.09	-4.05942e-07
3929.65	-1.06262e-06
3938.21	-6.10672e-07
3946.76	-4.6038e-07
3955.32	3.54084e-07
3963.88	-9.26318e-08
3972.44	-6.55655e-07
