Infrared Spectrum: Chloroform
Formula: C H Cl3
CAS: 67-66-3
State: gas
Melting point: -63.5 C
Boiling point: 61.7 C
Class: IUPAC A
Instrument: IFS66V (Bruker)
Instrument parameters: KBr Beam Splitter; MCT Detector; Multipass cell
Sampling: 1 L/min Flow
Resolution: 1.9290
Temperature: 23 C
Pressure: 101.3 Pa
Origin: NIST, Analytical Chemistry Division, 301-975-3108
cm-1	(micromol/mol)-1m-1 (base 10)
575.652	-7.94576e-07
584.33	-3.06417e-07
593.008	-2.50517e-07
601.687	7.1141e-07
610.365	1.56614e-06
619.043	1.46666e-06
627.721	3.3732e-06
636.399	2.28722e-06
645.077	8.46849e-07
653.756	1.64865e-06
662.434	5.20962e-06
671.112	2.88558e-05
679.79	2.25749e-05
688.468	3.57991e-05
697.146	4.19404e-06
705.825	1.38361e-06
714.503	1.96775e-06
723.181	3.18441e-06
731.859	8.49557e-06
740.537	3.13508e-05
749.216	0.000115305
757.894	0.000413394
766.572	0.00171369
775.25	0.00247954
783.928	0.000524862
792.606	9.3533e-05
801.285	1.99996e-05
809.963	5.37315e-06
818.641	2.61255e-06
827.319	1.8731e-06
835.997	2.23035e-06
844.676	3.18726e-06
853.354	5.75647e-06
862.032	2.81945e-06
870.71	9.732e-07
879.388	7.85615e-07
888.066	4.13531e-07
896.745	3.27917e-07
905.423	9.8701e-07
914.101	2.98662e-06
922.779	4.53922e-06
931.457	6.5624e-06
940.135	3.35279e-06
948.814	2.46462e-06
957.492	6.2498e-07
966.17	3.13005e-07
974.848	1.12025e-07
983.526	-1.37149e-09
992.205	-3.63317e-08
1000.88	5.62492e-08
1009.56	3.31027e-07
1018.24	1.36662e-06
1026.92	2.05823e-06
1035.6	2.02757e-06
1044.27	5.04275e-07
1052.95	2.13545e-09
1061.63	-8.95651e-08
1070.31	-7.95136e-08
1078.99	-1.48637e-07
1087.66	-2.14149e-07
1096.34	-1.65375e-07
1105.02	-8.86811e-08
1113.7	-1.20593e-07
1122.38	-2.07589e-07
1131.06	-9.33449e-08
1139.73	-8.9034e-08
1148.41	-9.92856e-08
1157.09	-4.79621e-08
1165.77	5.03303e-08
1174.45	3.50497e-07
1183.12	1.28643e-06
1191.8	3.74345e-06
1200.48	1.48243e-05
1209.16	8.71359e-05
1217.84	0.000445177
1226.52	0.000163994
1235.19	2.86087e-05
1243.87	5.39887e-06
1252.55	1.18087e-06
1261.23	3.84471e-07
1269.91	4.69435e-08
1278.58	-1.14932e-07
1287.26	-7.02951e-08
1295.94	-1.5468e-07
1304.62	-1.94035e-07
1313.3	-1.53705e-07
1321.98	-1.57357e-07
1330.65	-3.39962e-08
1339.33	-1.33194e-07
1348.01	-7.8244e-08
1356.69	-6.65226e-08
1365.37	-3.56049e-07
1374.04	-5.78768e-07
1382.72	-1.38382e-07
1391.4	-1.68588e-07
1400.08	-3.24988e-07
1408.76	-6.34268e-08
1417.44	1.34457e-08
1426.11	1.43703e-06
1434.79	4.59849e-06
1443.47	9.13415e-06
1452.15	3.62955e-06
1460.83	4.63134e-07
1469.5	1.20365e-06
1478.18	1.42314e-06
1486.86	8.35422e-07
1495.54	-6.96531e-07
1504.22	-1.82521e-07
1512.9	7.33211e-07
1521.57	7.14225e-07
1530.25	4.50639e-06
1538.93	3.30528e-06
1547.61	7.06985e-06
1556.29	4.21637e-06
1564.96	2.38052e-06
1573.64	2.64333e-07
1582.32	-3.06675e-08
1591	-1.50896e-07
1599.68	-2.50204e-07
1608.36	-2.89442e-07
1617.03	-2.25439e-06
1625.71	-2.9602e-07
1634.39	-1.11531e-06
1643.07	-3.66529e-07
1651.75	-2.25977e-06
1660.42	-3.16592e-07
1669.1	-1.3752e-06
1677.78	-2.87587e-07
1686.46	-4.6381e-07
1695.14	-2.12651e-06
1703.82	-6.97938e-07
1712.49	-3.23213e-07
1721.17	-3.29954e-07
1729.85	-5.73835e-07
1738.53	-4.27843e-07
1747.21	-5.05024e-07
1755.88	-4.73193e-07
1764.56	-2.51375e-07
1773.24	-1.29601e-06
1781.92	-1.73793e-07
1790.6	-3.76166e-07
1799.28	-2.6501e-07
1807.95	1.05776e-07
1816.63	4.12101e-07
1825.31	-8.76225e-08
1833.99	7.1894e-07
1842.67	1.9048e-08
1851.34	-7.541e-08
1860.02	-1.58165e-07
1868.7	-6.15234e-07
1877.38	-2.83945e-07
1886.06	-1.97953e-07
1894.74	-1.29084e-07
1903.41	-2.11646e-07
1912.09	-2.95947e-07
1920.77	-3.04645e-07
1929.45	-2.45951e-07
1938.13	-2.72279e-07
1946.8	-2.84855e-07
1955.48	-2.49524e-07
1964.16	-1.32085e-07
1972.84	-7.69052e-08
1981.52	-5.09597e-08
1990.19	-2.10161e-08
1998.87	-1.13826e-07
2007.55	-1.53661e-07
2016.23	-2.66367e-07
2024.91	-2.22134e-07
2033.59	-2.67418e-07
2042.26	-2.35067e-07
2050.94	-2.17787e-07
2059.62	-2.8062e-07
2068.3	-3.08625e-07
2076.98	-2.7349e-07
2085.65	-2.91378e-07
2094.33	-3.29448e-07
2103.01	-3.40751e-07
2111.69	-3.38961e-07
2120.37	-2.14072e-07
2129.05	-2.0154e-07
2137.72	-1.92598e-07
2146.4	-2.67859e-07
2155.08	-2.6565e-07
2163.76	-1.52719e-07
2172.44	-2.49098e-07
2181.11	-1.63593e-07
2189.79	-1.46298e-07
2198.47	-6.14805e-10
2207.15	1.68646e-07
2215.83	1.37822e-07
2224.51	-3.48838e-08
2233.18	1.16573e-07
2241.86	1.04972e-07
2250.54	-6.83198e-08
2259.22	-1.11935e-07
2267.9	-5.75407e-08
2276.57	5.58163e-08
2285.25	1.96228e-07
2293.93	2.07062e-07
2302.61	-4.5481e-08
2311.29	9.70664e-08
2319.97	4.78871e-07
2328.64	1.19786e-06
2337.32	1.57688e-06
2346	7.50484e-07
2354.68	1.35008e-06
2363.36	2.05806e-06
2372.03	9.02909e-07
2380.71	2.24531e-07
2389.39	4.82466e-07
2398.07	2.24671e-06
2406.75	2.96372e-06
2415.43	2.02689e-06
2424.1	2.07628e-06
2432.78	5.80769e-07
2441.46	1.26405e-06
2450.14	6.46702e-07
2458.82	7.57549e-07
2467.49	2.63107e-07
2476.17	-7.78001e-08
2484.85	-2.36584e-07
2493.53	-2.29297e-07
2502.21	-1.57605e-07
2510.89	-2.91359e-07
2519.56	-2.7978e-07
2528.24	-2.59393e-07
2536.92	-2.8567e-07
2545.6	-3.45419e-07
2554.28	-3.26527e-07
2562.95	-2.84797e-07
2571.63	-4.01042e-07
2580.31	-2.62365e-07
2588.99	-3.01971e-07
2597.67	-3.28866e-07
2606.35	-3.00494e-07
2615.02	-2.52016e-07
2623.7	-3.21328e-07
2632.38	-3.20128e-07
2641.06	-2.48872e-07
2649.74	-3.22049e-07
2658.41	-3.68086e-07
2667.09	-2.72832e-07
2675.77	-2.30319e-07
2684.45	-2.50167e-07
2693.13	-3.12667e-07
2701.81	-3.13471e-07
2710.48	-1.36378e-07
2719.16	-2.46708e-07
2727.84	-2.86335e-07
2736.52	-2.37981e-07
2745.2	-2.7237e-07
2753.87	-2.26099e-07
2762.55	-2.76513e-07
2771.23	-3.8525e-07
2779.91	-3.27655e-07
2788.59	-3.00403e-07
2797.27	-2.33135e-07
2805.94	-3.49013e-07
2814.62	-4.85245e-07
2823.3	-3.23231e-07
2831.98	-1.77791e-07
2840.66	-2.62245e-07
2849.33	-3.65744e-07
2858.01	-3.40318e-07
2866.69	-4.41565e-07
2875.37	-4.29101e-07
2884.05	-4.13611e-07
2892.73	-3.51832e-07
2901.4	-3.06118e-07
2910.08	-3.54739e-07
2918.76	-4.41008e-07
2927.44	-4.81876e-07
2936.12	-4.58641e-07
2944.79	-3.73165e-07
2953.47	-4.12309e-07
2962.15	-5.24003e-07
2970.83	-6.09919e-07
2979.51	-5.12602e-07
2988.19	-3.31293e-07
2996.86	-4.04196e-07
3005.54	-3.71371e-07
3014.22	2.10816e-08
3022.9	7.60361e-07
3031.58	7.61594e-07
3040.25	8.43898e-07
3048.93	6.61505e-07
3057.61	-1.34446e-07
3066.29	-2.65017e-07
3074.97	-2.57407e-07
3083.65	-1.75998e-07
3092.32	-1.91714e-07
3101	-1.19694e-07
3109.68	-1.11356e-08
3118.36	-3.4098e-08
3127.04	5.89231e-08
3135.71	-1.53738e-08
3144.39	-2.99545e-08
3153.07	6.2179e-08
3161.75	1.21317e-07
3170.43	-4.21633e-08
3179.11	6.85853e-08
3187.78	1.36065e-07
3196.46	5.02867e-08
3205.14	9.41998e-08
3213.82	2.03322e-08
3222.5	1.339e-07
3231.17	2.26528e-07
3239.85	1.70232e-07
3248.53	1.71854e-07
3257.21	1.35745e-07
3265.89	1.06423e-07
3274.57	4.26908e-08
3283.24	1.02156e-07
3291.92	1.32601e-08
3300.6	8.50286e-08
3309.28	-1.28636e-08
3317.96	-1.37291e-07
3326.63	-2.30916e-07
3335.31	-1.26424e-07
3343.99	-1.72185e-07
3352.67	-1.78155e-07
3361.35	-1.82241e-07
3370.03	-1.9888e-07
3378.7	-3.47412e-07
3387.38	-1.62225e-07
3396.06	-2.24819e-07
3404.74	-1.8279e-07
3413.42	1.08482e-08
3422.09	-1.94358e-07
3430.77	-3.04143e-07
3439.45	-4.05546e-07
3448.13	-3.52549e-07
3456.81	-3.17716e-07
3465.49	-2.3137e-07
3474.16	-2.31836e-07
3482.84	-3.44476e-07
3491.52	-3.44957e-07
3500.2	-4.81141e-07
3508.88	-5.07167e-07
3517.55	-3.60047e-07
3526.23	-4.67245e-07
3534.91	-2.74061e-07
3543.59	-4.07445e-07
3552.27	-5.81115e-07
3560.95	-3.50719e-07
3569.62	-4.40841e-07
3578.3	-3.97899e-07
3586.98	-7.65669e-07
3595.66	-4.37821e-07
3604.34	-2.89984e-07
3613.01	-8.22584e-07
3621.69	-4.01351e-07
3630.37	-1.15062e-06
3639.05	-4.37658e-07
3647.73	-1.3085e-06
3656.41	-1.31965e-06
3665.08	-5.09743e-07
3673.76	-9.2267e-07
3682.44	-3.98856e-07
3691.12	-7.68706e-07
3699.8	1.14681e-07
3708.47	-5.17931e-07
3717.15	3.68301e-08
3725.83	-7.23407e-07
3734.51	-1.16603e-06
3743.19	-1.28034e-06
3751.87	-2.69393e-06
3760.54	-8.82755e-07
3769.22	-9.31779e-07
3777.9	-4.99069e-07
3786.58	-4.00835e-07
3795.26	-5.67803e-07
3803.93	-3.37808e-07
3812.61	-2.65367e-07
3821.29	-1.82833e-06
3829.97	-6.1259e-07
3838.65	-1.81598e-06
3847.33	-5.92701e-07
3856	-7.69529e-07
3864.68	-1.30522e-06
3873.36	-9.09213e-07
3882.04	-6.41671e-07
3890.72	-1.07047e-06
3899.39	-1.13381e-06
3908.07	-6.24027e-07
3916.75	-8.98157e-07
3925.43	-5.98023e-07
3934.11	-5.16651e-07
3942.79	-6.37655e-07
3951.46	-4.39153e-07
3960.14	-6.07769e-07
3968.82	-4.71988e-07
