Infrared Spectrum: 2-Propanol
Formula: C H3 C H( O H) C H3
CAS: 67-63-0
State: gas
Melting point: -89.5 C
Boiling point: 82.4 C
Class: IUPAC A
Instrument: IFS66V (Bruker)
Instrument parameters: KBr Beam splitter; MCT Detector; Multipass cell
Sampling: 1 L/min Flow
Resolution: 0.9640
Temperature: 23 C
Pressure: 101.3 kPa
Origin: NIST, Anayltical Chemistry Division, 301-975-3108
cm-1	(micromol/mol)-1m-1 (base 10)
575.169	2.46262e-06
583.847	2.85925e-06
592.525	3.24182e-06
601.203	3.57208e-06
609.882	3.89987e-06
618.56	4.07338e-06
627.238	4.32398e-06
635.916	4.18487e-06
644.594	4.11245e-06
653.272	3.80237e-06
661.951	3.49548e-06
670.629	3.16648e-06
679.307	2.82761e-06
687.985	2.85477e-06
696.663	2.70036e-06
705.341	2.70625e-06
714.019	2.33158e-06
722.698	2.1992e-06
731.376	1.80618e-06
740.054	1.49084e-06
748.732	1.19743e-06
757.41	1.07495e-06
766.088	1.07826e-06
774.767	1.34416e-06
783.445	2.64909e-06
792.123	8.48076e-06
800.801	1.98956e-05
809.479	2.5019e-05
818.157	2.74904e-05
826.835	2.60288e-05
835.514	1.71419e-05
844.192	5.60744e-06
852.87	2.6234e-06
861.548	1.66712e-06
870.226	1.51255e-06
878.904	1.5073e-06
887.583	1.74686e-06
896.261	2.61329e-06
904.939	4.40045e-06
913.617	8.91513e-06
922.295	2.22946e-05
930.973	6.14394e-05
939.651	0.00012551
948.33	0.00014882
957.008	0.000184522
965.686	0.000149182
974.364	7.98653e-05
983.042	2.00466e-05
991.72	7.88073e-06
1000.4	5.58832e-06
1009.08	5.16746e-06
1017.75	5.259e-06
1026.43	7.15472e-06
1035.11	1.18401e-05
1043.79	2.55581e-05
1052.47	5.65834e-05
1061.15	9.31193e-05
1069.82	0.000126998
1078.5	0.000127418
1087.18	0.00011701
1095.86	8.57435e-05
1104.54	6.18614e-05
1113.21	6.95076e-05
1121.89	9.20699e-05
1130.57	0.000117538
1139.25	0.000143093
1147.93	0.00017365
1156.61	0.000175743
1165.28	0.000148455
1173.96	0.000109714
1182.64	7.13184e-05
1191.32	3.52069e-05
1200	2.13495e-05
1208.67	1.91735e-05
1217.35	2.61589e-05
1226.03	4.73365e-05
1234.71	8.18157e-05
1243.39	9.7512e-05
1252.07	0.000131462
1260.74	9.73075e-05
1269.42	7.30808e-05
1278.1	3.71292e-05
1286.78	2.17385e-05
1295.46	1.5859e-05
1304.13	1.50812e-05
1312.81	1.72084e-05
1321.49	2.35977e-05
1330.17	3.4623e-05
1338.85	4.50903e-05
1347.52	5.60065e-05
1356.2	7.16592e-05
1364.88	9.42705e-05
1373.56	0.000148392
1382.24	0.000206066
1390.92	0.00018159
1399.59	0.000131722
1408.27	6.59996e-05
1416.95	3.42947e-05
1425.63	2.28738e-05
1434.31	2.26033e-05
1442.98	2.80737e-05
1451.66	3.47196e-05
1460.34	5.58791e-05
1469.02	3.67026e-05
1477.7	3.35622e-05
1486.38	2.78268e-05
1495.05	1.84181e-05
1503.73	8.86541e-06
1512.41	4.44933e-06
1521.09	2.88566e-06
1529.77	2.02024e-06
1538.44	1.61994e-06
1547.12	1.44683e-06
1555.8	1.24824e-06
1564.48	1.12657e-06
1573.16	1.08378e-06
1581.83	1.00385e-06
1590.51	1.01036e-06
1599.19	9.52829e-07
1607.87	9.0499e-07
1616.55	1.10801e-06
1625.23	9.43809e-07
1633.9	1.12139e-06
1642.58	1.23686e-06
1651.26	1.49912e-06
1659.94	1.57178e-06
1668.62	1.72612e-06
1677.29	1.6921e-06
1685.97	1.64453e-06
1694.65	1.58283e-06
1703.33	1.52506e-06
1712.01	1.68034e-06
1720.69	1.81592e-06
1729.36	1.88738e-06
1738.04	2.18605e-06
1746.72	2.98046e-06
1755.4	3.81764e-06
1764.08	3.91631e-06
1772.75	4.10165e-06
1781.43	3.31284e-06
1790.11	1.52498e-06
1798.79	6.38255e-07
1807.47	5.3664e-07
1816.15	6.13016e-07
1824.82	6.8511e-07
1833.5	7.35777e-07
1842.18	6.51524e-07
1850.86	5.95038e-07
1859.54	8.32062e-07
1868.21	9.99529e-07
1876.89	1.43775e-06
1885.57	1.90355e-06
1894.25	2.27937e-06
1902.93	2.41261e-06
1911.6	1.8872e-06
1920.28	1.46312e-06
1928.96	5.58375e-07
1937.64	2.67637e-07
1946.32	2.51755e-07
1955	3.30981e-07
1963.67	4.29146e-07
1972.35	4.73982e-07
1981.03	5.51827e-07
1989.71	5.1581e-07
1998.39	5.169e-07
2007.06	6.00463e-07
2015.74	6.94395e-07
2024.42	7.78432e-07
2033.1	7.87163e-07
2041.78	7.89591e-07
2050.46	7.41904e-07
2059.13	8.7527e-07
2067.81	1.1006e-06
2076.49	1.31444e-06
2085.17	1.36423e-06
2093.85	1.23399e-06
2102.52	1.00714e-06
2111.2	9.24833e-07
2119.88	1.04074e-06
2128.56	7.30099e-07
2137.24	1.04929e-06
2145.91	9.99425e-07
2154.59	1.5127e-06
2163.27	1.47816e-06
2171.95	1.29468e-06
2180.63	1.41481e-06
2189.31	1.59038e-06
2197.98	1.73293e-06
2206.66	1.43524e-06
2215.34	9.91063e-07
2224.02	5.29475e-07
2232.7	3.8475e-07
2241.37	4.03317e-07
2250.05	4.67754e-07
2258.73	5.52575e-07
2267.41	7.41003e-07
2276.09	9.40577e-07
2284.77	1.35862e-06
2293.44	1.75935e-06
2302.12	2.29307e-06
2310.8	2.62764e-06
2319.48	2.54184e-06
2328.16	2.43091e-06
2336.83	2.20874e-06
2345.51	1.24714e-06
2354.19	5.72804e-07
2362.87	-4.37833e-08
2371.55	4.82617e-07
2380.23	1.06543e-06
2388.9	1.16583e-06
2397.58	1.18938e-06
2406.26	1.13374e-06
2414.94	1.18888e-06
2423.62	1.23968e-06
2432.29	1.378e-06
2440.97	1.3955e-06
2449.65	1.40926e-06
2458.33	1.38693e-06
2467.01	1.25494e-06
2475.68	1.45654e-06
2484.36	1.72811e-06
2493.04	1.96524e-06
2501.72	2.13727e-06
2510.4	2.13028e-06
2519.08	1.89525e-06
2527.75	1.71844e-06
2536.43	1.68094e-06
2545.11	1.45047e-06
2553.79	1.35283e-06
2562.47	1.37158e-06
2571.14	1.52917e-06
2579.82	1.89483e-06
2588.5	2.33373e-06
2597.18	2.91674e-06
2605.86	4.13958e-06
2614.54	4.2255e-06
2623.21	5.24218e-06
2631.89	6.48807e-06
2640.57	8.57824e-06
2649.25	8.51737e-06
2657.93	8.93239e-06
2666.6	9.83414e-06
2675.28	7.15333e-06
2683.96	6.31047e-06
2692.64	5.21615e-06
2701.32	4.74219e-06
2709.99	5.07797e-06
2718.67	5.93383e-06
2727.35	6.48622e-06
2736.03	7.29716e-06
2744.71	7.13231e-06
2753.39	7.12704e-06
2762.06	7.96399e-06
2770.74	9.01408e-06
2779.42	9.43822e-06
2788.1	1.07014e-05
2796.78	1.20333e-05
2805.45	1.27059e-05
2814.13	1.50127e-05
2822.81	1.75654e-05
2831.49	2.00598e-05
2840.17	2.22384e-05
2848.85	3.31525e-05
2857.52	4.88408e-05
2866.2	7.81485e-05
2874.88	0.000101138
2883.56	0.000164676
2892.24	0.000152476
2900.91	0.000132812
2909.59	0.000119063
2918.27	0.000105442
2926.95	0.000108303
2935.63	0.000114683
2944.31	0.000138875
2952.98	0.000206227
2961.66	0.000276336
2970.34	0.00047669
2979.02	0.000494392
2987.7	0.000312777
2996.37	0.000251498
3005.05	0.000132773
3013.73	3.67006e-05
3022.41	8.70602e-06
3031.09	3.1143e-06
3039.76	1.8592e-06
3048.44	1.38448e-06
3057.12	1.11251e-06
3065.8	1.06765e-06
3074.48	1.06946e-06
3083.16	1.17883e-06
3091.83	1.16877e-06
3100.51	1.33778e-06
3109.19	1.50328e-06
3117.87	1.59207e-06
3126.55	1.63554e-06
3135.22	1.77612e-06
3143.9	1.92606e-06
3152.58	2.2912e-06
3161.26	2.89809e-06
3169.94	3.81361e-06
3178.62	4.6062e-06
3187.29	5.1648e-06
3195.97	5.15845e-06
3204.65	4.79732e-06
3213.33	4.60864e-06
3222.01	4.07572e-06
3230.68	3.52573e-06
3239.36	2.76396e-06
3248.04	2.19447e-06
3256.72	1.12229e-06
3265.4	6.52913e-07
3274.07	4.01123e-07
3282.75	2.35266e-07
3291.43	2.72099e-07
3300.11	3.59488e-07
3308.79	5.12785e-07
3317.47	8.64692e-07
3326.14	1.17143e-06
3334.82	1.71888e-06
3343.5	1.79285e-06
3352.18	1.69689e-06
3360.86	1.57894e-06
3369.53	1.44829e-06
3378.21	1.23772e-06
3386.89	1.34304e-06
3395.57	1.58887e-06
3404.25	1.8317e-06
3412.93	1.93512e-06
3421.6	2.45591e-06
3430.28	2.37436e-06
3438.96	2.51952e-06
3447.64	2.62813e-06
3456.32	2.56103e-06
3464.99	2.41055e-06
3473.67	2.06235e-06
3482.35	1.57444e-06
3491.03	1.2098e-06
3499.71	9.76611e-07
3508.39	8.46614e-07
3517.06	7.21257e-07
3525.74	8.24839e-07
3534.42	1.05123e-06
3543.1	1.19207e-06
3551.78	1.07341e-06
3560.45	9.31675e-07
3569.13	9.75993e-07
3577.81	9.36157e-07
3586.49	1.12413e-06
3595.17	1.50772e-06
3603.84	2.13648e-06
3612.52	4.60917e-06
3621.2	8.15498e-06
3629.88	1.30389e-05
3638.56	3.24289e-05
3647.24	4.90294e-05
3655.91	5.60369e-05
3664.59	4.82175e-05
3673.27	4.06009e-05
3681.95	1.80292e-05
3690.63	5.64942e-06
3699.3	2.57272e-06
3707.98	1.72775e-06
3716.66	1.50441e-06
3725.34	1.2641e-06
3734.02	1.13123e-06
3742.7	1.07246e-06
3751.37	1.0058e-06
3760.05	1.04841e-06
3768.73	1.18651e-06
3777.41	1.47771e-06
3786.09	1.99017e-06
3794.76	2.27426e-06
3803.44	2.45933e-06
3812.12	2.69346e-06
3820.8	2.85944e-06
3829.48	2.77954e-06
3838.16	2.70206e-06
3846.83	2.34675e-06
3855.51	2.3057e-06
3864.19	2.20252e-06
3872.87	2.19144e-06
3881.55	2.19853e-06
3890.22	2.07397e-06
3898.9	2.31196e-06
3907.58	1.86602e-06
3916.26	1.7053e-06
3924.94	1.40473e-06
3933.61	1.44151e-06
3942.29	1.22023e-06
3950.97	9.72517e-07
3959.65	9.06991e-07
3968.33	8.1668e-07
