Infrared Spectrum: 2-Propanol
Formula: C H3 C H( O H) C H3
CAS: 67-63-0
State: gas
Melting point: -89.5 C
Boiling point: 82.4 C
Class: IUPAC A
Instrument: IFS66V (Bruker)
Instrument parameters: KBr Beam splitter; MCT Detector; Multipass cell
Sampling: 1 L/min Flow
Resolution: 0.4820
Temperature: 23 C
Pressure: 101.3 kPa
Origin: NIST, Anayltical Chemistry Division, 301-975-3108
cm-1	(micromol/mol)-1m-1 (base 10)
574.928	2.58897e-06
583.606	2.87495e-06
592.284	3.30335e-06
600.962	3.623e-06
609.641	3.98217e-06
618.319	4.04917e-06
626.997	4.34064e-06
635.675	4.16539e-06
644.353	4.16463e-06
653.031	3.84033e-06
661.71	3.4823e-06
670.388	3.20035e-06
679.066	2.90915e-06
687.744	2.8935e-06
696.422	2.66844e-06
705.1	2.69416e-06
713.778	2.33068e-06
722.457	2.19544e-06
731.135	1.82492e-06
739.813	1.50266e-06
748.491	1.18133e-06
757.169	1.08873e-06
765.847	1.06503e-06
774.526	1.26957e-06
783.204	2.52137e-06
791.882	8.24171e-06
800.56	1.9524e-05
809.238	2.48701e-05
817.916	2.7409e-05
826.594	2.58951e-05
835.273	1.75985e-05
843.951	5.77415e-06
852.629	2.6251e-06
861.307	1.65628e-06
869.985	1.52806e-06
878.663	1.50021e-06
887.342	1.76331e-06
896.02	2.55832e-06
904.698	4.35985e-06
913.376	8.69623e-06
922.054	2.16539e-05
930.732	5.97893e-05
939.41	0.000124184
948.089	0.000147488
956.767	0.000180706
965.445	0.000149034
974.123	8.26247e-05
982.801	2.08425e-05
991.479	8.04421e-06
1000.16	5.61216e-06
1008.84	5.23026e-06
1017.51	5.24737e-06
1026.19	7.06857e-06
1034.87	1.16458e-05
1043.55	2.49308e-05
1052.23	5.55451e-05
1060.9	9.26364e-05
1069.58	0.0001273
1078.26	0.000126963
1086.94	0.000117368
1095.62	8.67215e-05
1104.3	6.20967e-05
1112.97	6.89963e-05
1121.65	9.1325e-05
1130.33	0.000115828
1139.01	0.00014198
1147.69	0.000172545
1156.36	0.000176225
1165.04	0.000150572
1173.72	0.000110656
1182.4	7.24095e-05
1191.08	3.58139e-05
1199.76	2.14945e-05
1208.43	1.90716e-05
1217.11	2.57885e-05
1225.79	4.64727e-05
1234.47	8.07505e-05
1243.15	9.76228e-05
1251.82	0.000125568
1260.5	9.78025e-05
1269.18	7.42411e-05
1277.86	3.7873e-05
1286.54	2.20212e-05
1295.21	1.59281e-05
1303.89	1.50834e-05
1312.57	1.71073e-05
1321.25	2.33426e-05
1329.93	3.43004e-05
1338.61	4.4721e-05
1347.28	5.58871e-05
1355.96	7.10864e-05
1364.64	9.33324e-05
1373.32	0.000148445
1382	0.00020414
1390.67	0.000180223
1399.35	0.000134509
1408.03	6.70845e-05
1416.71	3.48305e-05
1425.39	2.29755e-05
1434.07	2.25186e-05
1442.74	2.78885e-05
1451.42	3.45397e-05
1460.1	5.4798e-05
1468.78	3.56199e-05
1477.46	3.42011e-05
1486.13	2.80229e-05
1494.81	1.879e-05
1503.49	9.09947e-06
1512.17	4.578e-06
1520.85	2.78997e-06
1529.52	2.03515e-06
1538.2	1.65363e-06
1546.88	1.45264e-06
1555.56	1.2756e-06
1564.24	1.12091e-06
1572.92	1.06467e-06
1581.59	1.01728e-06
1590.27	9.86004e-07
1598.95	9.64261e-07
1607.63	9.13861e-07
1616.31	9.61152e-07
1624.98	9.47326e-07
1633.66	1.11403e-06
1642.34	1.21211e-06
1651.02	1.46343e-06
1659.7	1.58343e-06
1668.38	1.74703e-06
1677.05	1.66511e-06
1685.73	1.61077e-06
1694.41	1.5401e-06
1703.09	1.54152e-06
1711.77	1.67654e-06
1720.44	1.81786e-06
1729.12	1.86776e-06
1737.8	2.1791e-06
1746.48	2.96248e-06
1755.16	3.81747e-06
1763.84	3.90022e-06
1772.51	4.12489e-06
1781.19	3.3594e-06
1789.87	1.56387e-06
1798.55	6.59513e-07
1807.23	5.30025e-07
1815.9	5.9844e-07
1824.58	6.55815e-07
1833.26	7.33576e-07
1841.94	6.46558e-07
1850.62	6.02367e-07
1859.29	8.35648e-07
1867.97	9.89903e-07
1876.65	1.42145e-06
1885.33	1.89075e-06
1894.01	2.27621e-06
1902.69	2.39986e-06
1911.36	1.905e-06
1920.04	1.48754e-06
1928.72	5.7413e-07
1937.4	2.64176e-07
1946.08	2.45427e-07
1954.75	3.35088e-07
1963.43	4.17382e-07
1972.11	4.53562e-07
1980.79	5.48158e-07
1989.47	5.05033e-07
1998.15	5.21812e-07
2006.82	5.87089e-07
2015.5	6.78535e-07
2024.18	7.62558e-07
2032.86	7.8207e-07
2041.54	7.73324e-07
2050.21	7.25349e-07
2058.89	8.59501e-07
2067.57	1.09859e-06
2076.25	1.27879e-06
2084.93	1.32249e-06
2093.6	1.21072e-06
2102.28	1.04999e-06
2110.96	8.03509e-07
2119.64	1.12558e-06
2128.32	7.43518e-07
2137	1.03805e-06
2145.67	9.69075e-07
2154.35	1.38099e-06
2163.03	1.41836e-06
2171.71	1.39113e-06
2180.39	1.46574e-06
2189.06	1.64494e-06
2197.74	1.7014e-06
2206.42	1.5057e-06
2215.1	9.87033e-07
2223.78	5.30321e-07
2232.46	3.80606e-07
2241.13	4.04022e-07
2249.81	4.50813e-07
2258.49	5.50219e-07
2267.17	7.08499e-07
2275.85	9.19391e-07
2284.52	1.32627e-06
2293.2	1.72938e-06
2301.88	2.23779e-06
2310.56	2.62117e-06
2319.24	2.37702e-06
2327.92	2.49393e-06
2336.59	2.00691e-06
2345.27	1.3058e-06
2353.95	8.50388e-07
2362.63	2.09028e-07
2371.31	5.52973e-07
2379.98	1.05476e-06
2388.66	1.15658e-06
2397.34	1.18367e-06
2406.02	1.13703e-06
2414.7	1.19226e-06
2423.37	1.22966e-06
2432.05	1.36626e-06
2440.73	1.35283e-06
2449.41	1.41642e-06
2458.09	1.35598e-06
2466.77	1.26573e-06
2475.44	1.45482e-06
2484.12	1.71775e-06
2492.8	1.94875e-06
2501.48	2.10359e-06
2510.16	2.12811e-06
2518.83	1.90999e-06
2527.51	1.70457e-06
2536.19	1.71193e-06
2544.87	1.45237e-06
2553.55	1.34308e-06
2562.23	1.35606e-06
2570.9	1.50462e-06
2579.58	1.84959e-06
2588.26	2.30251e-06
2596.94	2.88092e-06
2605.62	4.00376e-06
2614.29	4.18359e-06
2622.97	5.17658e-06
2631.65	6.50026e-06
2640.33	8.57597e-06
2649.01	8.48117e-06
2657.68	8.854e-06
2666.36	9.86216e-06
2675.04	7.13208e-06
2683.72	6.31691e-06
2692.4	5.2007e-06
2701.08	4.73333e-06
2709.75	5.01198e-06
2718.43	5.88172e-06
2727.11	6.42115e-06
2735.79	7.26079e-06
2744.47	7.13905e-06
2753.14	7.0847e-06
2761.82	7.90384e-06
2770.5	8.99391e-06
2779.18	9.39068e-06
2787.86	1.06726e-05
2796.54	1.19899e-05
2805.21	1.26434e-05
2813.89	1.48616e-05
2822.57	1.75288e-05
2831.25	2.00102e-05
2839.93	2.20728e-05
2848.6	3.2571e-05
2857.28	4.81368e-05
2865.96	7.73643e-05
2874.64	0.000100498
2883.32	0.000165379
2892	0.000153626
2900.67	0.000132902
2909.35	0.00011944
2918.03	0.000105768
2926.71	0.000107588
2935.39	0.000114339
2944.06	0.00013674
2952.74	0.000204016
2961.42	0.000274026
2970.1	0.000433324
2978.78	0.000483678
2987.45	0.000313825
2996.13	0.000253949
3004.81	0.000136897
3013.49	3.84869e-05
3022.17	9.26463e-06
3030.85	3.3293e-06
3039.52	2.01328e-06
3048.2	1.50223e-06
3056.88	1.20699e-06
3065.56	1.17729e-06
3074.24	1.14499e-06
3082.91	1.28826e-06
3091.59	1.22986e-06
3100.27	1.40233e-06
3108.95	1.53745e-06
3117.63	1.61228e-06
3126.31	1.7149e-06
3134.98	1.82463e-06
3143.66	1.95328e-06
3152.34	2.30157e-06
3161.02	2.92404e-06
3169.7	3.78688e-06
3178.37	4.64948e-06
3187.05	5.17167e-06
3195.73	5.16641e-06
3204.41	4.85687e-06
3213.09	4.56236e-06
3221.77	4.09426e-06
3230.44	3.55077e-06
3239.12	2.86012e-06
3247.8	2.19935e-06
3256.48	1.20848e-06
3265.16	6.91032e-07
3273.83	4.92194e-07
3282.51	2.79169e-07
3291.19	2.77193e-07
3299.87	4.00008e-07
3308.55	5.25013e-07
3317.22	9.2566e-07
3325.9	1.19451e-06
3334.58	1.75093e-06
3343.26	1.84222e-06
3351.94	1.73871e-06
3360.62	1.59789e-06
3369.29	1.47561e-06
3377.97	1.23724e-06
3386.65	1.41029e-06
3395.33	1.64006e-06
3404.01	1.83549e-06
3412.68	2.00285e-06
3421.36	2.47904e-06
3430.04	2.39282e-06
3438.72	2.52214e-06
3447.4	2.66785e-06
3456.08	2.57261e-06
3464.75	2.44604e-06
3473.43	2.10564e-06
3482.11	1.60681e-06
3490.79	1.23537e-06
3499.47	1.02419e-06
3508.14	8.70024e-07
3516.82	7.67884e-07
3525.5	8.76959e-07
3534.18	1.09618e-06
3542.86	1.26467e-06
3551.53	1.12759e-06
3560.21	9.76727e-07
3568.89	1.02313e-06
3577.57	9.59461e-07
3586.25	1.11661e-06
3594.93	1.57063e-06
3603.6	2.15514e-06
3612.28	4.608e-06
3620.96	8.23069e-06
3629.64	1.34458e-05
3638.32	3.06927e-05
3646.99	4.85434e-05
3655.67	5.55922e-05
3664.35	4.83949e-05
3673.03	4.10486e-05
3681.71	1.86109e-05
3690.39	5.76913e-06
3699.06	2.51493e-06
3707.74	1.72121e-06
3716.42	1.47243e-06
3725.1	1.29399e-06
3733.78	1.1325e-06
3742.45	1.11261e-06
3751.13	1.01209e-06
3759.81	1.01512e-06
3768.49	1.15447e-06
3777.17	1.47515e-06
3785.85	2.04053e-06
3794.52	2.25615e-06
3803.2	2.45776e-06
3811.88	2.65403e-06
3820.56	2.78226e-06
3829.24	2.73086e-06
3837.91	2.74756e-06
3846.59	2.32692e-06
3855.27	2.27196e-06
3863.95	2.21474e-06
3872.63	2.15605e-06
3881.3	2.17356e-06
3889.98	2.11921e-06
3898.66	2.31134e-06
3907.34	1.87536e-06
3916.02	1.71295e-06
3924.7	1.36571e-06
3933.37	1.40389e-06
3942.05	1.12041e-06
3950.73	9.82315e-07
3959.41	8.96473e-07
3968.09	7.76169e-07
