Infrared Spectrum: 2-Propanol
Formula: C H3 C H( O H) C H3
CAS: 67-63-0
State: gas
Melting point: -89.5 C
Boiling point: 82.4 C
Class: IUPAC A
Instrument: IFS66V (Bruker)
Instrument parameters: KBr Beam splitter; MCT Detector; Multipass cell
Sampling: 1 L/min Flow
Resolution: 0.1250
Temperature: 23 C
Pressure: 101.3 kPa
Origin: NIST, Anayltical Chemistry Division, 301-975-3108
cm-1	(micromol/mol)-1m-1 (base 10)
574.988	2.2816e-06
583.546	3.57368e-06
592.103	3.14506e-06
600.661	3.38825e-06
609.219	3.7859e-06
617.776	3.89725e-06
626.334	4.19097e-06
634.891	4.00119e-06
643.449	4.31483e-06
652.007	3.63747e-06
660.564	3.48416e-06
669.122	3.0824e-06
677.68	3.26431e-06
686.237	2.85553e-06
694.795	2.60489e-06
703.352	2.72852e-06
711.91	2.53158e-06
720.468	2.27277e-06
729.025	1.86131e-06
737.583	1.55868e-06
746.141	1.31189e-06
754.698	1.17189e-06
763.256	1.13235e-06
771.813	1.11484e-06
780.371	2.11578e-06
788.929	5.38051e-06
797.486	1.5517e-05
806.044	2.39084e-05
814.602	2.87927e-05
823.159	2.48517e-05
831.717	2.36261e-05
840.274	9.32709e-06
848.832	3.41664e-06
857.39	1.95848e-06
865.947	1.56736e-06
874.505	1.51827e-06
883.063	1.53335e-06
891.62	2.07339e-06
900.178	3.3041e-06
908.735	5.88193e-06
917.293	1.29832e-05
925.851	3.39745e-05
934.408	8.69737e-05
942.966	0.000138483
951.524	0.000166207
960.081	0.000145213
968.639	0.000138733
977.196	5.22453e-05
985.754	1.39028e-05
994.312	6.84503e-06
1002.87	5.47627e-06
1011.43	5.17366e-06
1019.98	5.74775e-06
1028.54	7.86388e-06
1037.1	1.39149e-05
1045.66	3.12662e-05
1054.22	6.41024e-05
1062.77	9.64434e-05
1071.33	0.000136331
1079.89	0.00012473
1088.45	0.000116152
1097	8.0778e-05
1105.56	6.13766e-05
1114.12	7.16235e-05
1122.68	9.4027e-05
1131.23	0.000119768
1139.79	0.000143961
1148.35	0.000175203
1156.91	0.000174605
1165.46	0.000146978
1174.02	0.000109448
1182.58	7.1602e-05
1191.14	3.57553e-05
1199.69	2.16094e-05
1208.25	1.90746e-05
1216.81	2.54573e-05
1225.37	4.49307e-05
1233.93	7.87537e-05
1242.48	9.90928e-05
1251.04	0.000125559
1259.6	9.80843e-05
1268.16	7.90611e-05
1276.71	4.16979e-05
1285.27	2.35364e-05
1293.83	1.64965e-05
1302.39	1.5097e-05
1310.94	1.65126e-05
1319.5	2.16301e-05
1328.06	3.15709e-05
1336.62	4.24014e-05
1345.17	4.99689e-05
1353.73	6.50358e-05
1362.29	8.55216e-05
1370.85	0.000130387
1379.4	0.000188424
1387.96	0.000185383
1396.52	0.000159089
1405.08	8.35108e-05
1413.64	4.37041e-05
1422.19	2.54448e-05
1430.75	2.15291e-05
1439.31	2.54806e-05
1447.87	3.16181e-05
1456.42	4.39119e-05
1464.98	4.58687e-05
1473.54	7.98206e-05
1482.1	2.97553e-05
1490.65	2.41549e-05
1499.21	1.35467e-05
1507.77	6.29991e-06
1516.33	3.47585e-06
1524.88	2.33465e-06
1533.44	1.87475e-06
1542	1.70141e-06
1550.56	1.33445e-06
1559.11	1.25277e-06
1567.67	1.10242e-06
1576.23	1.44911e-06
1584.79	1.00844e-06
1593.35	9.91527e-07
1601.9	9.22414e-07
1610.46	9.17129e-07
1619.02	9.47338e-07
1627.58	9.91507e-07
1636.13	1.14191e-06
1644.69	1.30729e-06
1653.25	1.96158e-06
1661.81	1.6651e-06
1670.36	1.69211e-06
1678.92	1.65433e-06
1687.48	1.60097e-06
1696.04	1.86623e-06
1704.59	1.58999e-06
1713.15	1.65461e-06
1721.71	1.82868e-06
1730.27	1.93346e-06
1738.83	2.22822e-06
1747.38	3.02786e-06
1755.94	3.82955e-06
1764.5	3.9352e-06
1773.06	3.7971e-06
1781.61	3.30674e-06
1790.17	1.50525e-06
1798.73	6.11167e-07
1807.29	5.31355e-07
1815.84	5.92229e-07
1824.4	6.51221e-07
1832.96	7.26092e-07
1841.52	6.35516e-07
1850.07	5.73433e-07
1858.63	8.73521e-07
1867.19	9.11385e-07
1875.75	1.40185e-06
1884.3	1.79443e-06
1892.86	2.25574e-06
1901.42	2.40049e-06
1909.98	2.07456e-06
1918.54	1.58487e-06
1927.09	6.7405e-07
1935.65	2.83653e-07
1944.21	1.95219e-07
1952.77	3.05456e-07
1961.32	3.27904e-07
1969.88	3.97788e-07
1978.44	5.52425e-07
1987	5.39704e-07
1995.55	4.94384e-07
2004.11	5.27411e-07
2012.67	6.18623e-07
2021.23	7.40394e-07
2029.78	7.61406e-07
2038.34	8.35155e-07
2046.9	7.05505e-07
2055.46	8.24201e-07
2064.01	1.00474e-06
2072.57	1.24804e-06
2081.13	1.32883e-06
2089.69	1.25278e-06
2098.25	1.13439e-06
2106.8	8.78899e-07
2115.36	7.58939e-07
2123.92	8.29883e-07
2132.48	7.92431e-07
2141.03	9.69096e-07
2149.59	1.11055e-06
2158.15	1.4814e-06
2166.71	1.45246e-06
2175.26	1.37202e-06
2183.82	1.56592e-06
2192.38	1.73841e-06
2200.94	1.52651e-06
2209.49	1.45541e-06
2218.05	7.74777e-07
2226.61	4.74578e-07
2235.17	3.72587e-07
2243.72	3.69054e-07
2252.28	4.89533e-07
2260.84	5.59684e-07
2269.4	7.71246e-07
2277.96	1.06369e-06
2286.51	1.43795e-06
2295.07	1.93259e-06
2303.63	2.29978e-06
2312.19	2.67382e-06
2320.74	2.58077e-06
2329.3	2.40983e-06
2337.86	1.67303e-06
2346.42	1.20002e-06
2354.97	8.63006e-07
2363.53	7.27114e-07
2372.09	8.50267e-07
2380.65	1.05696e-06
2389.2	1.1617e-06
2397.76	1.19157e-06
2406.32	1.11119e-06
2414.88	1.20746e-06
2423.44	1.23227e-06
2431.99	1.37051e-06
2440.55	1.32602e-06
2449.11	1.46029e-06
2457.67	1.36971e-06
2466.22	1.24263e-06
2474.78	1.44865e-06
2483.34	1.71781e-06
2491.9	1.95138e-06
2500.45	2.09594e-06
2509.01	2.12675e-06
2517.57	1.94818e-06
2526.13	1.68691e-06
2534.68	1.6466e-06
2543.24	1.41931e-06
2551.8	1.31672e-06
2560.36	1.35158e-06
2568.91	1.49523e-06
2577.47	1.73853e-06
2586.03	2.16982e-06
2594.59	2.66096e-06
2603.15	3.47967e-06
2611.7	3.94333e-06
2620.26	4.7511e-06
2628.82	6.65618e-06
2637.38	7.6961e-06
2645.93	8.47667e-06
2654.49	8.59843e-06
2663.05	9.26847e-06
2671.61	8.20463e-06
2680.16	6.74239e-06
2688.72	5.64365e-06
2697.28	4.81325e-06
2705.84	4.63964e-06
2714.39	5.6431e-06
2722.95	6.26517e-06
2731.51	7.00629e-06
2740.07	7.15098e-06
2748.62	6.99303e-06
2757.18	7.40781e-06
2765.74	8.40618e-06
2774.3	8.88131e-06
2782.86	9.86414e-06
2791.41	1.10564e-05
2799.97	1.21703e-05
2808.53	1.33028e-05
2817.09	1.55819e-05
2825.64	1.78857e-05
2834.2	2.04231e-05
2842.76	2.37418e-05
2851.32	3.78888e-05
2859.87	5.62313e-05
2868.43	8.53848e-05
2876.99	0.000108067
2885.55	0.000153122
2894.1	0.000143862
2902.66	0.000131386
2911.22	0.000115587
2919.78	0.000102671
2928.34	0.000112001
2936.89	0.000118251
2945.45	0.000147991
2954.01	0.000214742
2962.57	0.000283506
2971.12	0.000469123
2979.68	0.000519542
2988.24	0.000308173
2996.8	0.000247929
3005.35	0.000128649
3013.91	3.59917e-05
3022.47	8.87504e-06
3031.03	3.34833e-06
3039.58	2.03969e-06
3048.14	1.54581e-06
3056.7	1.24298e-06
3065.26	1.1842e-06
3073.81	1.15194e-06
3082.37	1.2005e-06
3090.93	1.30257e-06
3099.49	1.37692e-06
3108.05	1.45203e-06
3116.6	1.56139e-06
3125.16	1.82083e-06
3133.72	1.87518e-06
3142.28	1.95348e-06
3150.83	2.35949e-06
3159.39	2.85534e-06
3167.95	3.64245e-06
3176.51	4.39515e-06
3185.06	5.0433e-06
3193.62	5.14549e-06
3202.18	5.17968e-06
3210.74	4.60352e-06
3219.29	4.19937e-06
3227.85	3.744e-06
3236.41	3.22355e-06
3244.97	2.36377e-06
3253.52	1.38894e-06
3262.08	8.72918e-07
3270.64	4.30861e-07
3279.2	3.37625e-07
3287.76	3.17994e-07
3296.31	2.8541e-07
3304.87	5.85649e-07
3313.43	7.27328e-07
3321.99	1.04967e-06
3330.54	1.54763e-06
3339.1	1.82798e-06
3347.66	1.74126e-06
3356.22	1.69364e-06
3364.77	1.47951e-06
3373.33	1.37849e-06
3381.89	1.29839e-06
3390.45	1.4884e-06
3399	1.78774e-06
3407.56	1.90404e-06
3416.12	2.08796e-06
3424.68	2.57503e-06
3433.23	2.52276e-06
3441.79	2.55288e-06
3450.35	3.3528e-06
3458.91	2.51914e-06
3467.47	2.24905e-06
3476.02	1.91226e-06
3484.58	1.45437e-06
3493.14	1.13033e-06
3501.7	8.82488e-07
3510.25	7.81973e-07
3518.81	8.20991e-07
3527.37	8.64087e-07
3535.93	1.01168e-06
3544.48	1.25792e-06
3553.04	1.12574e-06
3561.6	9.57802e-07
3570.16	9.78999e-07
3578.71	9.71002e-07
3587.27	1.11072e-06
3595.83	1.60741e-06
3604.39	2.38053e-06
3612.95	4.83074e-06
3621.5	8.54963e-06
3630.06	1.35209e-05
3638.62	3.14191e-05
3647.18	4.87378e-05
3655.73	5.56446e-05
3664.29	4.84683e-05
3672.85	4.13851e-05
3681.41	1.93674e-05
3689.96	6.08914e-06
3698.52	2.69753e-06
3707.08	1.73751e-06
3715.64	1.58154e-06
3724.19	1.24331e-06
3732.75	1.1352e-06
3741.31	1.11782e-06
3749.87	1.08435e-06
3758.42	9.34854e-07
3766.98	1.12003e-06
3775.54	1.38576e-06
3784.1	1.96403e-06
3792.66	2.16491e-06
3801.21	2.52144e-06
3809.77	2.56909e-06
3818.33	2.61123e-06
3826.89	2.65423e-06
3835.44	2.57961e-06
3844	2.46645e-06
3852.56	2.32266e-06
3861.12	2.14128e-06
3869.67	2.45194e-06
3878.23	2.23108e-06
3886.79	2.08269e-06
3895.35	2.64375e-06
3903.9	2.07988e-06
3912.46	1.89579e-06
3921.02	1.4924e-06
3929.58	1.3902e-06
3938.13	1.19683e-06
3946.69	1.12557e-06
3955.25	8.96031e-07
3963.81	8.80536e-07
3972.37	8.86517e-07
