Infrared Spectrum: 2-Propanol
Formula: C H3 C H( O H) C H3
CAS: 67-63-0
State: gas
Melting point: -89.5 C
Boiling point: 82.4 C
Class: IUPAC A
Instrument: IFS66V (Bruker)
Instrument parameters: KBr Beam splitter; MCT Detector; Multipass cell
Sampling: 1 L/min Flow
Resolution: 0.1250
Temperature: 23 C
Pressure: 101.3 kPa
Origin: NIST, Anayltical Chemistry Division, 301-975-3108
cm-1	(micromol/mol)-1m-1 (base 10)
574.988	2.24915e-06
583.546	3.599e-06
592.103	3.15172e-06
600.661	3.36581e-06
609.219	3.78436e-06
617.776	3.8883e-06
626.334	4.1967e-06
634.891	3.99924e-06
643.449	4.33768e-06
652.007	3.6002e-06
660.564	3.47609e-06
669.122	3.07063e-06
677.68	3.27587e-06
686.237	2.8586e-06
694.795	2.59292e-06
703.352	2.73035e-06
711.91	2.52919e-06
720.468	2.28001e-06
729.025	1.83936e-06
737.583	1.55067e-06
746.141	1.30541e-06
754.698	1.17384e-06
763.256	1.13906e-06
771.813	1.10456e-06
780.371	2.10784e-06
788.929	5.34861e-06
797.486	1.55271e-05
806.044	2.39471e-05
814.602	2.88411e-05
823.159	2.48331e-05
831.717	2.3655e-05
840.274	9.31623e-06
848.832	3.40291e-06
857.39	1.94356e-06
865.947	1.55792e-06
874.505	1.50627e-06
883.063	1.50889e-06
891.62	2.05277e-06
900.178	3.28776e-06
908.735	5.85149e-06
917.293	1.29389e-05
925.851	3.39149e-05
934.408	8.69985e-05
942.966	0.000138661
951.524	0.000166353
960.081	0.000145239
968.639	0.000138922
977.196	5.21721e-05
985.754	1.38267e-05
994.312	6.79317e-06
1002.87	5.43961e-06
1011.43	5.1412e-06
1019.98	5.72109e-06
1028.54	7.82324e-06
1037.1	1.38621e-05
1045.66	3.12303e-05
1054.22	6.41058e-05
1062.77	9.64519e-05
1071.33	0.000136746
1079.89	0.000124723
1088.45	0.000116239
1097	8.07459e-05
1105.56	6.12948e-05
1114.12	7.15799e-05
1122.68	9.40012e-05
1131.23	0.000119796
1139.79	0.000143973
1148.35	0.000175324
1156.91	0.000174719
1165.46	0.000146976
1174.02	0.000109468
1182.58	7.15783e-05
1191.14	3.56903e-05
1199.69	2.15467e-05
1208.25	1.90156e-05
1216.81	2.54042e-05
1225.37	4.48878e-05
1233.93	7.87983e-05
1242.48	9.92415e-05
1251.04	0.0001259
1259.6	9.81032e-05
1268.16	7.9095e-05
1276.71	4.16646e-05
1285.27	2.3486e-05
1293.83	1.64628e-05
1302.39	1.50603e-05
1310.94	1.64792e-05
1319.5	2.15941e-05
1328.06	3.15502e-05
1336.62	4.24013e-05
1345.17	4.98939e-05
1353.73	6.50073e-05
1362.29	8.54974e-05
1370.85	0.000130424
1379.4	0.000188588
1387.96	0.000185513
1396.52	0.000159215
1405.08	8.3472e-05
1413.64	4.36407e-05
1422.19	2.53881e-05
1430.75	2.14892e-05
1439.31	2.54559e-05
1447.87	3.16036e-05
1456.42	4.38785e-05
1464.98	4.57045e-05
1473.54	8.06529e-05
1482.1	2.97472e-05
1490.65	2.4147e-05
1499.21	1.35342e-05
1507.77	6.27866e-06
1516.33	3.4598e-06
1524.88	2.32215e-06
1533.44	1.86605e-06
1542	1.70053e-06
1550.56	1.3244e-06
1559.11	1.24617e-06
1567.67	1.09777e-06
1576.23	1.47302e-06
1584.79	1.00511e-06
1593.35	9.88135e-07
1601.9	9.19325e-07
1610.46	9.12671e-07
1619.02	9.4476e-07
1627.58	9.85603e-07
1636.13	1.13592e-06
1644.69	1.3032e-06
1653.25	1.98701e-06
1661.81	1.66531e-06
1670.36	1.69334e-06
1678.92	1.6511e-06
1687.48	1.60015e-06
1696.04	1.88356e-06
1704.59	1.58946e-06
1713.15	1.65187e-06
1721.71	1.82631e-06
1730.27	1.92962e-06
1738.83	2.2239e-06
1747.38	3.02043e-06
1755.94	3.83144e-06
1764.5	3.93627e-06
1773.06	3.79233e-06
1781.61	3.30805e-06
1790.17	1.50005e-06
1798.73	6.06155e-07
1807.29	5.28619e-07
1815.84	5.87723e-07
1824.4	6.49155e-07
1832.96	7.25539e-07
1841.52	6.32058e-07
1850.07	5.68652e-07
1858.63	8.71293e-07
1867.19	9.03943e-07
1875.75	1.40074e-06
1884.3	1.79206e-06
1892.86	2.25173e-06
1901.42	2.4021e-06
1909.98	2.07711e-06
1918.54	1.58455e-06
1927.09	6.68454e-07
1935.65	2.80681e-07
1944.21	1.91854e-07
1952.77	3.06287e-07
1961.32	3.21067e-07
1969.88	3.90572e-07
1978.44	5.52431e-07
1987	5.37263e-07
1995.55	4.92565e-07
2004.11	5.25203e-07
2012.67	6.15172e-07
2021.23	7.39475e-07
2029.78	7.57891e-07
2038.34	8.37666e-07
2046.9	7.05032e-07
2055.46	8.25015e-07
2064.01	1.00439e-06
2072.57	1.24779e-06
2081.13	1.32692e-06
2089.69	1.24844e-06
2098.25	1.13316e-06
2106.8	8.7409e-07
2115.36	7.39547e-07
2123.92	8.19108e-07
2132.48	7.89663e-07
2141.03	9.7038e-07
2149.59	1.10933e-06
2158.15	1.48426e-06
2166.71	1.4493e-06
2175.26	1.36555e-06
2183.82	1.56352e-06
2192.38	1.739e-06
2200.94	1.52279e-06
2209.49	1.46942e-06
2218.05	7.68226e-07
2226.61	4.75488e-07
2235.17	3.67977e-07
2243.72	3.62981e-07
2252.28	4.86882e-07
2260.84	5.53694e-07
2269.4	7.70973e-07
2277.96	1.05998e-06
2286.51	1.43757e-06
2295.07	1.93787e-06
2303.63	2.30135e-06
2312.19	2.67389e-06
2320.74	2.58555e-06
2329.3	2.42089e-06
2337.86	1.68991e-06
2346.42	1.20194e-06
2354.97	8.74263e-07
2363.53	7.3934e-07
2372.09	8.53799e-07
2380.65	1.05413e-06
2389.2	1.15743e-06
2397.76	1.19434e-06
2406.32	1.10837e-06
2414.88	1.20939e-06
2423.44	1.23006e-06
2431.99	1.37204e-06
2440.55	1.32244e-06
2449.11	1.46291e-06
2457.67	1.36783e-06
2466.22	1.23918e-06
2474.78	1.44956e-06
2483.34	1.71936e-06
2491.9	1.95226e-06
2500.45	2.09809e-06
2509.01	2.12905e-06
2517.57	1.94982e-06
2526.13	1.67924e-06
2534.68	1.64215e-06
2543.24	1.417e-06
2551.8	1.31224e-06
2560.36	1.35075e-06
2568.91	1.49825e-06
2577.47	1.73543e-06
2586.03	2.16581e-06
2594.59	2.65558e-06
2603.15	3.47751e-06
2611.7	3.93707e-06
2620.26	4.74735e-06
2628.82	6.66058e-06
2637.38	7.69685e-06
2645.93	8.48087e-06
2654.49	8.5976e-06
2663.05	9.27012e-06
2671.61	8.19981e-06
2680.16	6.7403e-06
2688.72	5.63914e-06
2697.28	4.8098e-06
2705.84	4.62761e-06
2714.39	5.64243e-06
2722.95	6.26811e-06
2731.51	7.01057e-06
2740.07	7.14645e-06
2748.62	6.98639e-06
2757.18	7.40123e-06
2765.74	8.39846e-06
2774.3	8.8693e-06
2782.86	9.84864e-06
2791.41	1.10469e-05
2799.97	1.21569e-05
2808.53	1.32908e-05
2817.09	1.55642e-05
2825.64	1.78614e-05
2834.2	2.03982e-05
2842.76	2.3702e-05
2851.32	3.78616e-05
2859.87	5.62078e-05
2868.43	8.54039e-05
2876.99	0.000108021
2885.55	0.000153118
2894.1	0.000143879
2902.66	0.000131427
2911.22	0.000115588
2919.78	0.000102615
2928.34	0.000111971
2936.89	0.000118166
2945.45	0.000147903
2954.01	0.000214764
2962.57	0.000283504
2971.12	0.000470352
2979.68	0.000520527
2988.24	0.000308057
2996.8	0.000248073
3005.35	0.000128601
3013.91	3.58289e-05
3022.47	8.76159e-06
3031.03	3.27944e-06
3039.58	1.99669e-06
3048.14	1.51633e-06
3056.7	1.21567e-06
3065.26	1.1647e-06
3073.81	1.13386e-06
3082.37	1.18814e-06
3090.93	1.28633e-06
3099.49	1.36531e-06
3108.05	1.44252e-06
3116.6	1.55069e-06
3125.16	1.82019e-06
3133.72	1.87529e-06
3142.28	1.94676e-06
3150.83	2.36021e-06
3159.39	2.85318e-06
3167.95	3.64321e-06
3176.51	4.38344e-06
3185.06	5.03449e-06
3193.62	5.1498e-06
3202.18	5.18379e-06
3210.74	4.60124e-06
3219.29	4.19912e-06
3227.85	3.7493e-06
3236.41	3.21849e-06
3244.97	2.36155e-06
3253.52	1.38175e-06
3262.08	8.76721e-07
3270.64	4.15365e-07
3279.2	3.3239e-07
3287.76	3.14135e-07
3296.31	2.83771e-07
3304.87	5.94337e-07
3313.43	7.17024e-07
3321.99	1.04921e-06
3330.54	1.54842e-06
3339.1	1.82532e-06
3347.66	1.72808e-06
3356.22	1.68995e-06
3364.77	1.48063e-06
3373.33	1.37639e-06
3381.89	1.2943e-06
3390.45	1.48765e-06
3399	1.7893e-06
3407.56	1.90217e-06
3416.12	2.08902e-06
3424.68	2.57746e-06
3433.23	2.53112e-06
3441.79	2.54449e-06
3450.35	3.37476e-06
3458.91	2.51135e-06
3467.47	2.24805e-06
3476.02	1.91188e-06
3484.58	1.44652e-06
3493.14	1.1276e-06
3501.7	8.82013e-07
3510.25	7.69269e-07
3518.81	8.18858e-07
3527.37	8.54865e-07
3535.93	9.96152e-07
3544.48	1.25985e-06
3553.04	1.12452e-06
3561.6	9.53591e-07
3570.16	9.74591e-07
3578.71	9.56442e-07
3587.27	1.1064e-06
3595.83	1.60164e-06
3604.39	2.37576e-06
3612.95	4.81711e-06
3621.5	8.54376e-06
3630.06	1.34857e-05
3638.62	3.13905e-05
3647.18	4.88065e-05
3655.73	5.57441e-05
3664.29	4.84792e-05
3672.85	4.14315e-05
3681.41	1.93553e-05
3689.96	6.06233e-06
3698.52	2.68098e-06
3707.08	1.72604e-06
3715.64	1.58326e-06
3724.19	1.24045e-06
3732.75	1.12425e-06
3741.31	1.11764e-06
3749.87	1.08089e-06
3758.42	9.2441e-07
3766.98	1.11372e-06
3775.54	1.37659e-06
3784.1	1.96588e-06
3792.66	2.17182e-06
3801.21	2.5133e-06
3809.77	2.56987e-06
3818.33	2.60418e-06
3826.89	2.65489e-06
3835.44	2.57752e-06
3844	2.46577e-06
3852.56	2.31755e-06
3861.12	2.14052e-06
3869.67	2.45077e-06
3878.23	2.2308e-06
3886.79	2.078e-06
3895.35	2.65411e-06
3903.9	2.08753e-06
3912.46	1.8993e-06
3921.02	1.48563e-06
3929.58	1.39297e-06
3938.13	1.19807e-06
3946.69	1.12847e-06
3955.25	8.97441e-07
3963.81	8.91016e-07
3972.37	8.98956e-07
