Infrared Spectrum: Chloroform
Formula: C H Cl3
CAS: 67-66-3
State: gas
Melting point: -63.5 C
Boiling point: 61.7 C
Class: IUPAC A
Instrument: IFS66V (Bruker)
Instrument parameters: KBr Beam Splitter; MCT Detector; Multipass cell
Sampling: 1 L/min Flow
Resolution: 0.1250
Temperature: 23 C
Pressure: 101.3 Pa
Origin: NIST, Analytical Chemistry Division, 301-975-3108
cm-1	(micromol/mol)-1m-1 (base 10)
575.05	1.03085e-06
583.608	4.4521e-07
592.165	1.09826e-06
600.723	3.42791e-06
609.281	3.9887e-06
617.838	-9.86562e-08
626.396	4.05525e-06
634.954	2.54716e-06
643.511	1.41042e-06
652.069	2.34555e-06
660.626	3.08274e-06
669.184	1.42494e-05
677.742	1.09102e-05
686.299	4.4796e-05
694.857	5.37499e-06
703.415	6.46997e-07
711.972	4.98185e-07
720.53	3.48256e-07
729.088	2.07443e-06
737.645	1.53834e-05
746.203	6.82553e-05
754.761	0.000240181
763.318	0.00101299
771.876	0.00281197
780.434	0.00110297
788.991	0.000160208
797.549	3.3246e-05
806.106	3.57932e-06
814.664	1.0912e-06
823.222	-5.77735e-08
831.779	7.9845e-07
840.337	5.3209e-07
848.895	3.88713e-06
857.452	4.91432e-06
866.01	1.36163e-06
874.568	-4.96137e-08
883.125	6.92038e-07
891.683	2.12817e-08
900.241	-6.76377e-07
908.798	5.32181e-07
917.356	3.86517e-06
925.914	3.91374e-06
934.471	5.81002e-06
943.029	3.21451e-06
951.586	2.14069e-06
960.144	-2.6604e-07
968.702	-5.26106e-07
977.259	7.27835e-07
985.817	4.07227e-08
994.375	-6.7236e-07
1002.93	-2.72733e-08
1011.49	5.0697e-07
1020.05	2.15203e-06
1028.61	2.61083e-06
1037.16	1.71517e-06
1045.72	6.08766e-08
1054.28	-2.75258e-07
1062.84	-1.15916e-06
1071.39	-5.33134e-08
1079.95	6.75027e-07
1088.51	1.27581e-07
1097.07	-4.50798e-07
1105.62	-5.85702e-08
1114.18	1.62996e-07
1122.74	-6.42115e-07
1131.3	8.99129e-07
1139.85	-4.67161e-07
1148.41	-8.78673e-07
1156.97	-3.88633e-07
1165.53	-8.45059e-07
1174.09	5.89194e-08
1182.64	7.8456e-07
1191.2	2.37134e-06
1199.76	1.08074e-05
1208.32	6.84937e-05
1216.87	0.000384983
1225.43	0.000201202
1233.99	3.25642e-05
1242.55	5.1278e-06
1251.1	6.58132e-07
1259.66	1.42453e-07
1268.22	-1.90841e-07
1276.78	-4.23233e-08
1285.33	4.34329e-08
1293.89	-3.31267e-07
1302.45	-2.66243e-07
1311.01	-2.88849e-07
1319.57	-1.60002e-07
1328.12	-4.39906e-07
1336.68	-1.90328e-07
1345.24	2.84495e-07
1353.8	-1.51832e-06
1362.35	-2.25637e-07
1370.91	3.50162e-07
1379.47	-2.77714e-07
1388.03	-8.40097e-07
1396.58	2.19998e-07
1405.14	-7.64887e-07
1413.7	-2.03071e-07
1422.26	4.46971e-07
1430.81	2.34722e-06
1439.37	7.91051e-06
1447.93	5.63182e-06
1456.49	-4.44463e-06
1465.05	-7.59335e-07
1473.6	-1.99427e-06
1482.16	1.17035e-06
1490.72	-1.00713e-06
1499.28	-9.3796e-08
1507.83	-1.79236e-07
1516.39	1.37344e-06
1524.95	2.43204e-06
1533.51	4.98915e-06
1542.06	1.29368e-06
1550.62	5.03294e-06
1559.18	3.9621e-06
1567.74	1.9952e-06
1576.29	-6.65041e-06
1584.85	-2.83494e-07
1593.41	-8.69305e-07
1601.97	3.21052e-07
1610.53	-5.91894e-07
1619.08	-2.88784e-07
1627.64	-1.03673e-06
1636.2	-7.12021e-07
1644.76	8.61964e-08
1653.31	-1.39225e-05
1661.87	-1.10873e-06
1670.43	-2.16375e-07
1678.99	-4.80861e-07
1687.54	-1.64873e-07
1696.1	-4.26157e-06
1704.66	-7.45726e-07
1713.22	-1.17755e-07
1721.77	-5.25735e-07
1730.33	-6.68275e-07
1738.89	-1.78097e-07
1747.45	-5.004e-07
1756.01	1.50645e-07
1764.56	-1.93664e-07
1773.12	-9.94435e-07
1781.68	-4.87897e-07
1790.24	-1.98226e-07
1798.79	1.00348e-07
1807.35	-1.71985e-07
1815.91	1.75325e-07
1824.47	4.10064e-07
1833.02	8.62753e-07
1841.58	-2.10052e-08
1850.14	-1.41929e-07
1858.7	-2.92651e-07
1867.25	-1.9091e-07
1875.81	-1.92805e-07
1884.37	-2.6485e-07
1892.93	-1.24478e-07
1901.49	1.23263e-07
1910.04	-6.02225e-07
1918.6	-1.02749e-07
1927.16	-3.2828e-07
1935.72	-2.37886e-07
1944.27	-3.04059e-07
1952.83	-1.22834e-07
1961.39	-6.05856e-08
1969.95	2.57163e-08
1978.5	2.49007e-07
1987.06	-1.61355e-07
1995.62	-4.43358e-07
2004.18	-1.466e-07
2012.73	-3.87436e-09
2021.29	-1.82433e-07
2029.85	-3.78625e-07
2038.41	-1.15685e-09
2046.97	-3.24173e-07
2055.52	-2.39625e-07
2064.08	1.5062e-07
2072.64	-1.62574e-07
2081.2	-2.13217e-08
2089.75	-7.98563e-07
2098.31	-4.82669e-07
2106.87	-7.1372e-08
2115.43	-7.8328e-07
2123.98	2.08979e-07
2132.54	-1.43861e-07
2141.1	7.15793e-08
2149.66	-3.58399e-07
2158.21	-4.7304e-07
2166.77	-3.34177e-08
2175.33	2.96234e-08
2183.89	-2.70929e-07
2192.45	2.1651e-07
2201	-2.40436e-07
2209.56	5.94571e-07
2218.12	-5.34699e-08
2226.68	1.0288e-08
2235.23	-1.07114e-07
2243.79	3.26891e-07
2252.35	-1.19047e-07
2260.91	-2.33753e-07
2269.46	1.65266e-07
2278.02	-2.11551e-07
2286.58	2.21097e-07
2295.14	2.76073e-07
2303.69	-1.33613e-07
2312.25	1.60031e-07
2320.81	-4.90098e-08
2329.37	1.74696e-07
2337.93	8.48809e-07
2346.48	1.40867e-07
2355.04	7.05462e-08
2363.6	1.38564e-07
2372.16	1.1347e-07
2380.71	6.13346e-07
2389.27	2.59553e-07
2397.83	2.23216e-06
2406.39	1.66757e-06
2414.94	1.92455e-06
2423.5	2.05691e-06
2432.06	7.70918e-07
2440.62	1.02722e-06
2449.17	4.4509e-07
2457.73	1.06694e-06
2466.29	1.80614e-07
2474.85	2.42295e-07
2483.41	-1.41671e-07
2491.96	-7.46461e-08
2500.52	-8.64183e-08
2509.08	-5.92352e-07
2517.64	-2.76891e-07
2526.19	-5.17109e-07
2534.75	1.91761e-07
2543.31	-2.69816e-07
2551.87	-3.876e-07
2560.42	-6.04524e-07
2568.98	-4.05968e-07
2577.54	-5.62998e-07
2586.1	-1.32689e-07
2594.65	-7.90057e-07
2603.21	-9.20163e-07
2611.77	-6.42919e-07
2620.33	-1.07861e-06
2628.89	-4.01209e-07
2637.44	-9.8037e-07
2646	-6.57358e-07
2654.56	-5.93058e-07
2663.12	-5.39821e-07
2671.67	-5.79445e-08
2680.23	3.55565e-07
2688.79	-4.36213e-07
2697.35	-3.12408e-07
2705.9	-7.29017e-07
2714.46	-6.274e-07
2723.02	-6.83205e-07
2731.58	-2.09823e-07
2740.13	-8.55863e-07
2748.69	-4.4028e-07
2757.25	-3.14365e-07
2765.81	-1.21757e-07
2774.37	-3.42708e-07
2782.92	-1.35614e-07
2791.48	-9.90833e-07
2800.04	-5.83235e-07
2808.6	-7.25179e-08
2817.15	-7.41335e-07
2825.71	1.51515e-07
2834.27	-6.08872e-07
2842.83	-3.45859e-07
2851.38	-4.26955e-07
2859.94	5.14199e-07
2868.5	-3.04827e-07
2877.06	3.21401e-07
2885.61	-8.36812e-07
2894.17	-9.27828e-07
2902.73	-1.12272e-06
2911.29	2.13792e-07
2919.85	-4.05935e-07
2928.4	-1.94442e-07
2936.96	-5.17419e-08
2945.52	-7.86103e-07
2954.08	-7.29319e-07
2962.63	-1.17679e-07
2971.19	-4.09467e-07
2979.75	-7.37559e-07
2988.31	-6.76686e-07
2996.86	5.96692e-07
3005.42	-8.44782e-07
3013.98	1.42024e-08
3022.54	1.28441e-06
3031.09	-1.69923e-07
3039.65	7.41844e-07
3048.21	1.73113e-07
3056.77	-3.32366e-07
3065.33	-4.31528e-07
3073.88	-7.17994e-07
3082.44	1.1889e-07
3091	-1.63997e-08
3099.56	9.3323e-08
3108.11	-3.18018e-07
3116.67	-4.73924e-07
3125.23	1.69948e-07
3133.79	-8.49788e-07
3142.34	-1.11392e-08
3150.9	-2.87882e-07
3159.46	2.88653e-07
3168.02	5.26368e-08
3176.57	-9.70992e-07
3185.13	9.33412e-08
3193.69	-2.81384e-07
3202.25	-2.47254e-07
3210.81	1.3362e-07
3219.36	-1.80745e-07
3227.92	7.16142e-07
3236.48	6.54858e-08
3245.04	5.55198e-07
3253.59	2.90057e-07
3262.15	3.65689e-07
3270.71	2.05087e-07
3279.27	-6.95566e-09
3287.82	-9.13229e-07
3296.38	-4.56011e-08
3304.94	4.65666e-07
3313.5	-4.23266e-07
3322.05	7.21465e-07
3330.61	1.25235e-07
3339.17	-8.70069e-07
3347.73	-1.6416e-07
3356.29	6.97593e-07
3364.84	-4.79442e-07
3373.4	-8.74005e-08
3381.96	-2.39606e-06
3390.52	7.85775e-07
3399.07	-1.85347e-07
3407.63	3.50886e-07
3416.19	-8.40053e-07
3424.75	-4.0719e-07
3433.3	6.41595e-07
3441.86	-1.89491e-07
3450.42	-8.11314e-07
3458.98	-6.40681e-07
3467.53	-5.97398e-07
3476.09	-3.58817e-07
3484.65	-6.59744e-07
3493.21	-6.11295e-07
3501.77	-2.02937e-07
3510.32	-4.45963e-07
3518.88	-8.37837e-07
3527.44	-6.04619e-09
3536	-7.89515e-07
3544.55	-3.80281e-07
3553.11	-8.06566e-07
3561.67	-3.43112e-07
3570.23	-7.03384e-07
3578.78	5.34771e-07
3587.34	4.93998e-07
3595.9	1.02592e-07
3604.46	4.01013e-07
3613.01	-7.70427e-07
3621.57	-5.91479e-07
3630.13	-1.41514e-08
3638.69	-6.08548e-07
3647.25	-1.46031e-06
3655.8	-1.06105e-06
3664.36	-8.94581e-07
3672.92	-1.04586e-07
3681.48	-5.85702e-08
3690.03	7.75273e-08
3698.59	1.75641e-07
3707.15	4.78751e-07
3715.71	-1.72135e-07
3724.26	2.19416e-07
3732.82	-5.80172e-07
3741.38	-1.67387e-06
3749.94	-1.20069e-06
3758.49	-3.7279e-07
3767.05	-1.11191e-06
3775.61	7.74582e-08
3784.17	1.50136e-07
3792.73	2.79634e-07
3801.28	-4.92421e-06
3809.84	-7.20643e-07
3818.4	-8.22576e-07
3826.96	-4.00409e-07
3835.51	-7.8933e-07
3844.07	-1.23525e-06
3852.63	-1.36152e-07
3861.19	-7.73316e-07
3869.74	-8.24086e-07
3878.3	-5.35361e-07
3886.86	-2.91905e-08
3895.42	1.28571e-07
3903.97	-5.37642e-07
3912.53	-6.9485e-07
3921.09	-4.13222e-07
3929.65	-1.08665e-06
3938.21	-6.49722e-07
3946.76	-4.47411e-07
3955.32	3.07188e-07
3963.88	8.51996e-09
3972.44	-7.91145e-07
