Infrared Spectrum: Chloroform
Formula: C H Cl3
CAS: 67-66-3
State: gas
Melting point: -63.5 C
Boiling point: 61.7 C
Class: IUPAC A
Instrument: IFS66V (Bruker)
Instrument parameters: KBr Beam Splitter; MCT Detector; Multipass cell
Sampling: 1 L/min Flow
Resolution: 0.9640
Temperature: 23 C
Pressure: 101.3 Pa
Origin: NIST, Analytical Chemistry Division, 301-975-3108
cm-1	(micromol/mol)-1m-1 (base 10)
575.17	-2.37616e-06
583.848	-6.75922e-07
592.526	-3.71091e-07
601.205	2.92043e-07
609.883	1.24515e-06
618.561	1.24427e-06
627.239	4.94131e-06
635.917	1.96508e-06
644.595	5.58272e-07
653.274	9.78428e-07
661.952	3.90927e-06
670.63	2.37232e-05
679.308	1.86055e-05
687.986	3.86784e-05
696.664	3.30488e-06
705.343	-5.63874e-09
714.021	2.68681e-07
722.699	8.38449e-07
731.377	4.53939e-06
740.055	2.32072e-05
748.734	9.82159e-05
757.412	0.000364847
766.09	0.001615
774.768	0.00258911
783.446	0.000555543
792.124	8.68555e-05
800.803	1.50242e-05
809.481	1.83153e-06
818.159	1.27956e-07
826.837	3.67588e-07
835.515	9.33893e-07
844.194	2.17267e-06
852.872	4.74525e-06
861.55	2.254e-06
870.228	4.81378e-07
878.906	4.50758e-07
887.584	5.23785e-08
896.263	-6.23827e-08
904.941	6.22325e-07
913.619	2.53954e-06
922.297	4.40883e-06
930.975	7.11156e-06
939.653	2.97325e-06
948.332	2.43576e-06
957.01	4.99866e-07
965.688	1.22237e-07
974.366	-1.92154e-08
983.044	-1.63902e-07
991.723	-1.28989e-07
1000.4	-1.124e-07
1009.08	1.33122e-07
1017.76	1.26967e-06
1026.44	2.0416e-06
1035.11	1.99408e-06
1043.79	5.08677e-07
1052.47	-1.03902e-07
1061.15	-1.67784e-07
1069.83	9.32758e-09
1078.5	-1.7758e-07
1087.18	-3.14329e-07
1095.86	-2.3714e-07
1104.54	-2.05301e-07
1113.22	-2.03413e-07
1121.9	-2.64475e-07
1130.57	-1.86388e-07
1139.25	-3.14835e-07
1147.93	-1.7849e-07
1156.61	-3.79262e-07
1165.29	-2.83647e-07
1173.96	-8.15217e-08
1182.64	6.28866e-07
1191.32	2.73903e-06
1200	1.12889e-05
1208.68	7.54611e-05
1217.36	0.000426565
1226.03	0.000178599
1234.71	2.8503e-05
1243.39	4.51516e-06
1252.07	5.50527e-07
1260.75	-8.04849e-08
1269.42	-2.14531e-07
1278.1	-3.64576e-07
1286.78	-2.39494e-07
1295.46	-2.68026e-07
1304.14	-3.23464e-07
1312.82	-1.63338e-07
1321.49	-2.10438e-07
1330.17	-6.30375e-08
1338.85	-2.52929e-07
1347.53	-1.6798e-07
1356.21	-1.71341e-07
1364.88	-4.36588e-07
1373.56	-7.61191e-07
1382.24	-1.41762e-07
1390.92	-1.60944e-07
1399.6	-5.52466e-07
1408.28	-4.29199e-08
1416.95	8.46903e-09
1425.63	1.28249e-06
1434.31	4.37551e-06
1442.99	8.97588e-06
1451.67	4.13279e-06
1460.34	3.50137e-07
1469.02	1.23365e-06
1477.7	1.43322e-06
1486.38	1.14947e-06
1495.06	9.9693e-08
1503.73	2.00772e-07
1512.41	2.69223e-07
1521.09	-3.09916e-07
1529.77	4.52233e-06
1538.45	3.84495e-06
1547.13	7.41441e-06
1555.8	4.50148e-06
1564.48	2.55727e-06
1573.16	3.66311e-07
1581.84	-1.03757e-07
1590.52	-1.91761e-07
1599.19	-2.70572e-07
1607.87	-2.29082e-07
1616.55	-3.58322e-06
1625.23	-2.52987e-07
1633.91	-4.63243e-07
1642.59	-3.24675e-07
1651.26	-7.38443e-07
1659.94	-2.53765e-07
1668.62	-1.0146e-06
1677.3	-2.01547e-07
1685.98	-5.85222e-07
1694.65	-6.00577e-07
1703.33	-3.62389e-07
1712.01	-2.55115e-07
1720.69	-2.73319e-07
1729.37	-4.76856e-07
1738.05	-2.38199e-07
1746.72	-4.61529e-07
1755.4	-2.93167e-07
1764.08	-2.17892e-07
1772.76	-2.30861e-06
1781.44	-2.38774e-07
1790.11	-1.98855e-07
1798.79	-1.09057e-07
1807.47	8.61055e-08
1816.15	3.88982e-07
1824.83	-1.01064e-07
1833.51	8.02142e-07
1842.18	1.58798e-07
1850.86	-3.54513e-08
1859.54	-1.58725e-07
1868.22	-4.84732e-07
1876.9	-2.6748e-07
1885.57	-2.65425e-07
1894.25	-5.61946e-08
1902.93	-2.3351e-07
1911.61	-2.98071e-07
1920.29	-3.00985e-07
1928.97	-2.38461e-07
1937.64	-2.75465e-07
1946.32	-3.28837e-07
1955	-2.50629e-07
1963.68	-1.44614e-07
1972.36	-5.63802e-08
1981.03	-3.17843e-08
1989.71	-5.94688e-08
1998.39	-1.01967e-07
2007.07	-1.64524e-07
2015.75	-2.47832e-07
2024.43	-2.4426e-07
2033.1	-2.8105e-07
2041.78	-2.89701e-07
2050.46	-2.27256e-07
2059.14	-2.62605e-07
2067.82	-3.55274e-07
2076.49	-3.08589e-07
2085.17	-3.04751e-07
2093.85	-3.18804e-07
2102.53	-3.20066e-07
2111.21	-4.43787e-07
2119.89	-2.77201e-07
2128.56	-1.7921e-07
2137.24	-1.99364e-07
2145.92	-2.74254e-07
2154.6	-3.35036e-07
2163.28	-1.44934e-07
2171.95	-2.64483e-07
2180.63	-1.94107e-07
2189.31	-1.02574e-07
2197.99	-6.90728e-08
2206.67	1.45796e-07
2215.35	1.92507e-07
2224.02	-4.4426e-08
2232.7	1.12888e-07
2241.38	1.35337e-07
2250.06	-1.24162e-07
2258.74	-1.54898e-07
2267.41	-3.67246e-08
2276.09	4.42514e-08
2284.77	1.39772e-07
2293.45	2.75218e-07
2302.13	-2.75389e-08
2310.81	1.35974e-07
2319.48	5.59254e-07
2328.16	1.03999e-06
2336.84	9.8263e-07
2345.52	7.26998e-07
2354.2	1.50066e-06
2362.87	2.37966e-06
2371.55	1.01316e-06
2380.23	2.09441e-07
2388.91	4.35766e-07
2397.59	2.21754e-06
2406.27	1.61835e-06
2414.94	1.85228e-06
2423.62	2.2367e-06
2432.3	5.96707e-07
2440.98	1.27244e-06
2449.66	6.56259e-07
2458.33	7.71326e-07
2467.01	2.66305e-07
2475.69	-1.13895e-07
2484.37	-2.81901e-07
2493.05	-2.24775e-07
2501.73	-1.33689e-07
2510.4	-3.00058e-07
2519.08	-2.60808e-07
2527.76	-2.99894e-07
2536.44	-3.29295e-07
2545.12	-3.7522e-07
2553.79	-3.75802e-07
2562.47	-2.64661e-07
2571.15	-4.04545e-07
2579.83	-3.3194e-07
2588.51	-2.98661e-07
2597.19	-2.99814e-07
2605.86	-3.41901e-07
2614.54	-2.1158e-07
2623.22	-3.55619e-07
2631.9	-2.8707e-07
2640.58	-2.44336e-07
2649.25	-3.54361e-07
2657.93	-3.56994e-07
2666.61	-2.75829e-07
2675.29	-3.09945e-07
2683.97	-2.37482e-07
2692.65	-3.2453e-07
2701.32	-2.69274e-07
2710	-8.44247e-08
2718.68	-3.09884e-07
2727.36	-3.2919e-07
2736.04	-2.3133e-07
2744.71	-3.19924e-07
2753.39	-2.16208e-07
2762.07	-3.35105e-07
2770.75	-4.39607e-07
2779.43	-2.94546e-07
2788.11	-3.42963e-07
2796.78	-3.32071e-07
2805.46	-2.08837e-07
2814.14	-5.20984e-07
2822.82	-3.19462e-07
2831.5	-1.24292e-07
2840.17	-2.16295e-07
2848.85	-3.14125e-07
2857.53	-4.06237e-07
2866.21	-4.32383e-07
2874.89	-4.65477e-07
2883.57	-3.22558e-07
2892.24	-3.64769e-07
2900.92	-2.49349e-07
2909.6	-3.5603e-07
2918.28	-3.88277e-07
2926.96	-3.87989e-07
2935.63	-4.98491e-07
2944.31	-2.9857e-07
2952.99	-4.1216e-07
2961.67	-6.96352e-07
2970.35	-7.18372e-07
2979.03	-5.55064e-07
2987.7	-2.89984e-07
2996.38	-4.39291e-07
3005.06	-3.12004e-07
3013.74	-4.6667e-08
3022.42	6.3752e-07
3031.09	-8.28423e-08
3039.77	7.18383e-07
3048.45	6.91034e-07
3057.13	-2.82563e-07
3065.81	-2.94597e-07
3074.49	-2.39709e-07
3083.16	-2.40352e-07
3091.84	-2.95743e-07
3100.52	-7.29181e-08
3109.2	-5.30333e-08
3117.88	-6.91055e-08
3126.55	5.06614e-08
3135.23	-1.23463e-07
3143.91	-4.4175e-08
3152.59	2.76007e-08
3161.27	2.04803e-07
3169.95	-1.17468e-08
3178.62	8.76698e-08
3187.3	1.30488e-07
3195.98	-4.48917e-09
3204.66	2.09161e-07
3213.34	4.58266e-08
3222.01	2.41513e-07
3230.69	3.13652e-07
3239.37	1.43522e-07
3248.05	2.65541e-07
3256.73	1.0969e-07
3265.41	6.53549e-08
3274.08	5.09124e-08
3282.76	7.53191e-08
3291.44	-7.62249e-08
3300.12	-2.3137e-09
3308.8	1.2558e-08
3317.47	-2.11668e-07
3326.15	-2.17241e-07
3334.83	-1.78337e-07
3343.51	-5.28805e-08
3352.19	-1.13797e-07
3360.86	-1.85868e-07
3369.54	-1.06249e-07
3378.22	-2.85859e-07
3386.9	-1.17708e-07
3395.58	-2.52674e-07
3404.26	-1.95704e-07
3412.93	1.55331e-07
3421.61	-2.54322e-07
3430.29	-4.46723e-07
3438.97	-4.27817e-07
3447.65	-4.37414e-07
3456.32	-2.47483e-07
3465	-3.90088e-07
3473.68	-1.12986e-07
3482.36	-2.89337e-07
3491.04	-4.49495e-07
3499.72	-4.95591e-07
3508.39	-4.86911e-07
3517.07	-3.58249e-07
3525.75	-5.02147e-07
3534.43	-2.31782e-07
3543.11	-4.98054e-07
3551.78	-5.84152e-07
3560.46	-2.95121e-07
3569.14	-4.00194e-07
3577.82	-5.09539e-07
3586.5	-1.02973e-06
3595.18	-4.8411e-07
3603.85	-3.63939e-07
3612.53	-1.1731e-06
3621.21	-5.07505e-07
3629.89	-2.01911e-06
3638.57	-4.45792e-07
3647.24	-1.57056e-06
3655.92	-1.52043e-06
3664.6	-5.39304e-07
3673.28	-6.32198e-07
3681.96	-3.40457e-07
3690.64	-6.03375e-07
3699.31	5.21638e-08
3707.99	-3.45753e-07
3716.67	1.63163e-07
3725.35	-5.59433e-07
3734.03	-8.13569e-07
3742.7	-6.69028e-07
3751.38	-1.6546e-06
3760.06	-1.24148e-06
3768.74	-5.53968e-07
3777.42	-4.44515e-07
3786.1	-4.69245e-07
3794.77	-5.12275e-07
3803.45	-3.07333e-07
3812.13	-1.79465e-07
3820.81	-1.92979e-06
3829.49	-4.58488e-07
3838.16	-3.32062e-06
3846.84	-5.48046e-07
3855.52	-7.97082e-07
3864.2	-9.23663e-07
3872.88	-6.87359e-07
3881.56	-7.57e-07
3890.23	-6.44436e-07
3898.91	-1.20873e-06
3907.59	-5.57195e-07
3916.27	-7.01114e-07
3924.95	-6.60264e-07
3933.62	-5.05079e-07
3942.3	-7.29755e-07
3950.98	-5.4495e-07
3959.66	-6.19978e-07
3968.34	-5.09833e-07
