Infrared Spectrum: Chloroform
Formula: C H Cl3
CAS: 67-66-3
State: gas
Melting point: -63.5 C
Boiling point: 61.7 C
Class: IUPAC A
Instrument: IFS66V (Bruker)
Instrument parameters: KBr Beam Splitter; MCT Detector; Multipass cell
Sampling: 1 L/min Flow
Resolution: 0.2410
Temperature: 23 C
Pressure: 101.3 Pa
Origin: NIST, Analytical Chemistry Division, 301-975-3108
cm-1	(micromol/mol)-1m-1 (base 10)
575.05	-2.42399e-06
583.608	-5.03063e-07
592.165	1.49024e-06
600.723	2.25441e-07
609.281	2.16359e-06
617.838	1.43674e-06
626.396	4.57492e-06
634.954	1.99556e-06
643.511	8.97128e-07
652.069	1.24471e-06
660.626	4.29379e-06
669.184	1.37634e-05
677.742	1.14254e-05
686.299	4.44897e-05
694.857	5.92195e-06
703.415	4.11392e-07
711.972	3.69371e-07
720.53	7.82734e-07
729.088	2.94582e-06
737.645	1.54637e-05
746.203	6.87141e-05
754.761	0.000242048
763.318	0.00101296
771.876	0.00279413
780.434	0.00111215
788.991	0.000163658
797.549	3.49052e-05
806.106	4.36253e-06
814.664	1.15483e-06
823.222	9.04273e-08
831.779	3.0797e-07
840.337	1.49504e-06
848.895	3.86329e-06
857.452	5.14272e-06
866.01	9.8904e-07
874.568	7.51114e-07
883.125	4.3737e-07
891.683	-2.53449e-07
900.241	1.52133e-07
908.798	1.13881e-06
917.356	3.71857e-06
925.914	4.56905e-06
934.471	5.89317e-06
943.029	3.71818e-06
951.586	1.63593e-06
960.144	1.37476e-07
968.702	5.9356e-08
977.259	-4.06353e-08
985.817	-2.90061e-07
994.375	-2.14185e-07
1002.93	-9.92674e-08
1011.49	3.69967e-07
1020.05	1.81106e-06
1028.61	2.17107e-06
1037.16	2.11904e-06
1045.72	-1.3071e-08
1054.28	3.23773e-09
1062.84	-1.77973e-07
1071.39	1.25526e-07
1079.95	-8.3839e-08
1088.51	-1.82492e-07
1097.07	-4.54457e-07
1105.62	4.78893e-08
1114.18	-2.10198e-08
1122.74	-3.63383e-07
1131.3	3.04128e-09
1139.85	-2.4124e-07
1148.41	-4.59212e-07
1156.97	-3.45499e-07
1165.53	-3.24639e-07
1174.09	-2.9598e-08
1182.64	7.57884e-07
1191.2	2.97547e-06
1199.76	1.08394e-05
1208.32	6.90358e-05
1216.87	0.000384011
1225.43	0.000202594
1233.99	3.3156e-05
1242.55	5.58392e-06
1251.1	9.72203e-07
1259.66	1.91601e-07
1268.22	-6.09785e-08
1276.78	-6.40561e-08
1285.33	-1.80884e-07
1293.89	-1.64702e-07
1302.45	-2.49476e-07
1311.01	-2.97067e-07
1319.57	-7.64432e-08
1328.12	-1.60646e-07
1336.68	-3.93803e-07
1345.24	1.02036e-07
1353.8	-9.6966e-07
1362.35	-5.1469e-07
1370.91	-3.93948e-08
1379.47	-2.31028e-07
1388.03	-6.34734e-07
1396.58	-4.6536e-08
1405.14	-9.70865e-07
1413.7	-1.2625e-07
1422.26	5.59942e-07
1430.81	2.76192e-06
1439.37	7.69884e-06
1447.93	6.30205e-06
1456.49	-2.76904e-06
1465.05	-1.2767e-06
1473.6	-2.08342e-06
1482.16	1.20719e-06
1490.72	-9.2239e-07
1499.28	-1.51057e-07
1507.83	-2.23054e-07
1516.39	1.13201e-06
1524.95	2.75959e-06
1533.51	4.77216e-06
1542.06	1.78767e-06
1550.62	5.19703e-06
1559.18	3.65276e-06
1567.74	1.87357e-06
1576.29	-6.8603e-06
1584.85	-2.77645e-07
1593.41	-3.65969e-07
1601.97	-1.56502e-07
1610.53	-4.50947e-07
1619.08	-2.49513e-07
1627.64	-1.07571e-06
1636.2	-8.28139e-07
1644.76	-1.92212e-07
1653.31	-1.05539e-05
1661.87	-5.31017e-07
1670.43	-3.01098e-07
1678.99	-3.99023e-07
1687.54	-2.31185e-07
1696.1	-5.22725e-06
1704.66	-9.9108e-07
1713.22	-2.83713e-07
1721.77	-4.02326e-07
1730.33	-6.33104e-07
1738.89	-3.21354e-07
1747.45	-4.98221e-07
1756.01	-1.53516e-07
1764.56	-1.80982e-07
1773.12	-9.48986e-07
1781.68	-1.51642e-07
1790.24	-1.84292e-07
1798.79	-2.0616e-08
1807.35	7.32891e-08
1815.91	2.74767e-07
1824.47	3.68305e-07
1833.02	8.41246e-07
1841.58	2.04785e-07
1850.14	-1.39917e-07
1858.7	-2.13796e-07
1867.25	-2.86565e-07
1875.81	-2.79976e-07
1884.37	-1.36749e-07
1892.93	-1.44396e-07
1901.49	-1.16213e-07
1910.04	-3.95356e-07
1918.6	-1.93474e-07
1927.16	-1.53738e-07
1935.72	-3.87687e-07
1944.27	-2.62409e-07
1952.83	-1.78639e-07
1961.39	-1.34668e-07
1969.95	-2.22818e-07
1978.5	4.97883e-08
1987.06	-6.97931e-08
1995.62	-5.69404e-08
2004.18	-9.5524e-08
2012.73	1.15103e-08
2021.29	-2.14134e-07
2029.85	-1.56935e-07
2038.41	-1.687e-07
2046.97	-4.32073e-07
2055.52	-4.0329e-07
2064.08	-2.03537e-07
2072.64	-2.60412e-07
2081.2	-2.12282e-07
2089.75	-5.0923e-07
2098.31	-3.07966e-07
2106.87	-8.68403e-08
2115.43	-4.11097e-07
2123.98	-2.4351e-07
2132.54	-1.37956e-07
2141.1	-1.86188e-08
2149.66	-1.81389e-07
2158.21	-4.86784e-07
2166.77	-2.72406e-08
2175.33	-2.37515e-07
2183.89	-8.7939e-08
2192.45	5.57181e-08
2201	-9.68445e-08
2209.56	3.14904e-07
2218.12	-2.3479e-08
2226.68	-1.04684e-07
2235.23	3.0693e-08
2243.79	3.93894e-07
2252.35	-2.12068e-07
2260.91	-1.41791e-07
2269.46	7.07281e-08
2278.02	-7.72435e-08
2286.58	3.04772e-07
2295.14	1.03098e-08
2303.69	-1.79167e-07
2312.25	-1.45221e-07
2320.81	2.9172e-07
2329.37	2.07357e-07
2337.93	1.2215e-06
2346.48	1.21448e-07
2355.04	2.58866e-07
2363.6	5.99282e-07
2372.16	2.29879e-07
2380.71	4.67328e-07
2389.27	3.69469e-07
2397.83	2.20959e-06
2406.39	1.724e-06
2414.94	1.95812e-06
2423.5	2.16218e-06
2432.06	6.32871e-07
2440.62	1.25243e-06
2449.17	5.74599e-07
2457.73	8.11808e-07
2466.29	3.5499e-07
2474.85	-1.17148e-07
2483.41	-2.02478e-07
2491.96	-1.70632e-07
2500.52	-2.86721e-07
2509.08	-2.94259e-07
2517.64	-2.53529e-07
2526.19	-3.70091e-07
2534.75	-1.888e-07
2543.31	-4.37199e-07
2551.87	-3.09371e-07
2560.42	-4.30898e-07
2568.98	-3.18436e-07
2577.54	-2.83192e-07
2586.1	-2.67135e-07
2594.65	-3.09603e-07
2603.21	-4.74939e-07
2611.77	-4.62264e-07
2620.33	-4.60966e-07
2628.89	-2.87441e-07
2637.44	-3.85694e-07
2646	-3.46703e-07
2654.56	-3.13289e-07
2663.12	-3.45259e-07
2671.67	-7.04698e-08
2680.23	-1.69774e-07
2688.79	-2.88151e-07
2697.35	-3.97735e-07
2705.9	-4.17209e-07
2714.46	-3.01338e-07
2723.02	-4.77824e-07
2731.58	-2.14003e-07
2740.13	-4.47855e-07
2748.69	-3.95098e-07
2757.25	-3.74958e-07
2765.81	-3.20444e-07
2774.37	-4.24943e-07
2782.92	-2.88693e-07
2791.48	-4.40582e-07
2800.04	-5.76727e-07
2808.6	-1.6237e-07
2817.15	-4.87511e-07
2825.71	-4.53391e-08
2834.27	-3.23577e-07
2842.83	-2.80409e-07
2851.38	-9.09511e-08
2859.94	-2.33637e-07
2868.5	-4.5875e-07
2877.06	-1.15776e-07
2885.61	-4.81043e-07
2894.17	-6.90524e-07
2902.73	-5.01379e-07
2911.29	-2.36936e-07
2919.85	-3.51643e-07
2928.4	-4.5839e-07
2936.96	-5.76756e-07
2945.52	-8.387e-07
2954.08	-4.28454e-07
2962.63	5.19274e-08
2971.19	-4.78802e-07
2979.75	-6.76759e-07
2988.31	-5.48555e-07
2996.86	-8.93177e-08
3005.42	-4.96461e-07
3013.98	1.73142e-07
3022.54	6.33933e-07
3031.09	-1.07616e-07
3039.65	8.35058e-07
3048.21	6.61974e-07
3056.77	-2.45755e-07
3065.33	-3.36917e-07
3073.88	-5.07676e-07
3082.44	-4.38909e-07
3091	-1.38353e-07
3099.56	4.31055e-08
3108.11	-5.63292e-08
3116.67	-1.6921e-07
3125.23	-8.95178e-08
3133.79	-2.34132e-07
3142.34	-1.05241e-07
3150.9	-5.49287e-08
3159.46	3.66231e-07
3168.02	-1.19301e-07
3176.57	-2.64748e-07
3185.13	2.10245e-07
3193.69	-4.308e-08
3202.25	1.03953e-07
3210.81	1.34038e-07
3219.36	1.17933e-07
3227.92	2.21937e-07
3236.48	-6.75194e-08
3245.04	1.52905e-07
3253.59	-8.94632e-08
3262.15	2.99872e-07
3270.71	1.2064e-07
3279.27	-1.85708e-07
3287.82	-1.64688e-07
3296.38	4.82058e-08
3304.94	2.1178e-07
3313.5	-1.13073e-07
3322.05	-1.14128e-07
3330.61	-2.54646e-07
3339.17	-2.77917e-07
3347.73	5.03485e-09
3356.29	2.25313e-07
3364.84	-5.97314e-07
3373.4	-3.27073e-07
3381.96	-1.02828e-06
3390.52	-8.91176e-08
3399.07	-1.89495e-07
3407.63	-2.4004e-07
3416.19	-4.89803e-07
3424.75	-4.76714e-07
3433.3	7.51554e-08
3441.86	-5.86895e-07
3450.42	-6.32634e-07
3458.98	-3.66053e-07
3467.53	-4.61911e-07
3476.09	-3.97299e-07
3484.65	-2.90512e-07
3493.21	-5.3627e-07
3501.77	-4.9e-07
3510.32	-3.36418e-07
3518.88	-5.97438e-07
3527.44	-3.43705e-07
3536	-6.42406e-07
3544.55	-3.81285e-07
3553.11	-3.24188e-07
3561.67	-5.40268e-07
3570.23	-5.56602e-07
3578.78	1.54549e-07
3587.34	-2.3893e-07
3595.9	-4.98756e-07
3604.46	-2.13145e-07
3613.01	-7.18216e-07
3621.57	-3.30187e-07
3630.13	-4.6803e-07
3638.69	-2.47421e-07
3647.25	-1.91914e-06
3655.8	-7.79104e-07
3664.36	-6.86435e-07
3672.92	-3.26203e-07
3681.48	-1.81768e-07
3690.03	-1.0559e-07
3698.59	1.97793e-07
3707.15	8.96706e-08
3715.71	-7.51954e-08
3724.26	-2.92473e-07
3732.82	-3.9564e-07
3741.38	-1.30959e-06
3749.94	-1.43013e-06
3758.49	-5.89227e-07
3767.05	-6.08431e-07
3775.61	-2.30723e-07
3784.17	-3.65805e-07
3792.73	-1.75423e-07
3801.28	-4.84513e-06
3809.84	-1.886e-07
3818.4	-4.51471e-07
3826.96	-6.72338e-07
3835.51	-7.82185e-07
3844.07	-6.85999e-07
3852.63	-1.05241e-06
3861.19	-8.50723e-07
3869.74	-1.47721e-06
3878.3	-7.20755e-07
3886.86	-6.0073e-07
3895.42	-2.66756e-07
3903.97	-1.41979e-06
3912.53	-8.46332e-07
3921.09	-3.92271e-07
3929.65	-9.69544e-07
3938.21	-5.57243e-07
3946.76	-4.52926e-07
3955.32	2.23938e-07
3963.88	-2.69165e-07
3972.44	-4.85641e-07
