Infrared Spectrum: 2-Propanol
Formula: C H3 C H( O H) C H3
CAS: 67-63-0
State: gas
Melting point: -89.5 C
Boiling point: 82.4 C
Class: IUPAC A
Instrument: IFS66V (Bruker)
Instrument parameters: KBr Beam splitter; MCT Detector; Multipass cell
Sampling: 1 L/min Flow
Resolution: 0.1250
Temperature: 23 C
Pressure: 101.3 kPa
Origin: NIST, Anayltical Chemistry Division, 301-975-3108
cm-1	(micromol/mol)-1m-1 (base 10)
574.988	2.24832e-06
583.546	3.6056e-06
592.103	3.14708e-06
600.661	3.36721e-06
609.219	3.78356e-06
617.776	3.88685e-06
626.334	4.19473e-06
634.891	3.99904e-06
643.449	4.33952e-06
652.007	3.59589e-06
660.564	3.47671e-06
669.122	3.06979e-06
677.68	3.27647e-06
686.237	2.85782e-06
694.795	2.59259e-06
703.352	2.72959e-06
711.91	2.52825e-06
720.468	2.27931e-06
729.025	1.83782e-06
737.583	1.54986e-06
746.141	1.3041e-06
754.698	1.17545e-06
763.256	1.13981e-06
771.813	1.10426e-06
780.371	2.10787e-06
788.929	5.34707e-06
797.486	1.55294e-05
806.044	2.3948e-05
814.602	2.88427e-05
823.159	2.48316e-05
831.717	2.36565e-05
840.274	9.31638e-06
848.832	3.40288e-06
857.39	1.9429e-06
865.947	1.55723e-06
874.505	1.50631e-06
883.063	1.50832e-06
891.62	2.05223e-06
900.178	3.28843e-06
908.735	5.85059e-06
917.293	1.29403e-05
925.851	3.39153e-05
934.408	8.6997e-05
942.966	0.000138668
951.524	0.000166354
960.081	0.000145242
968.639	0.000138923
977.196	5.21717e-05
985.754	1.38273e-05
994.312	6.79322e-06
1002.87	5.43997e-06
1011.43	5.14128e-06
1019.98	5.72112e-06
1028.54	7.82212e-06
1037.1	1.38622e-05
1045.66	3.12292e-05
1054.22	6.4107e-05
1062.77	9.64508e-05
1071.33	0.000136751
1079.89	0.000124721
1088.45	0.000116242
1097	8.07457e-05
1105.56	6.12939e-05
1114.12	7.15809e-05
1122.68	9.40014e-05
1131.23	0.000119793
1139.79	0.000143974
1148.35	0.00017532
1156.91	0.000174718
1165.46	0.000146976
1174.02	0.000109468
1182.58	7.1579e-05
1191.14	3.56913e-05
1199.69	2.1547e-05
1208.25	1.90151e-05
1216.81	2.54033e-05
1225.37	4.48874e-05
1233.93	7.87975e-05
1242.48	9.92458e-05
1251.04	0.000125895
1259.6	9.81033e-05
1268.16	7.90948e-05
1276.71	4.1665e-05
1285.27	2.34848e-05
1293.83	1.64637e-05
1302.39	1.50597e-05
1310.94	1.64792e-05
1319.5	2.1594e-05
1328.06	3.15499e-05
1336.62	4.2403e-05
1345.17	4.98928e-05
1353.73	6.50068e-05
1362.29	8.54994e-05
1370.85	0.000130422
1379.4	0.000188586
1387.96	0.000185513
1396.52	0.000159217
1405.08	8.3473e-05
1413.64	4.36399e-05
1422.19	2.53877e-05
1430.75	2.14893e-05
1439.31	2.54568e-05
1447.87	3.16028e-05
1456.42	4.38792e-05
1464.98	4.57014e-05
1473.54	8.06669e-05
1482.1	2.97476e-05
1490.65	2.4146e-05
1499.21	1.35346e-05
1507.77	6.27845e-06
1516.33	3.45973e-06
1524.88	2.322e-06
1533.44	1.86612e-06
1542	1.70028e-06
1550.56	1.3244e-06
1559.11	1.24618e-06
1567.67	1.0983e-06
1576.23	1.47396e-06
1584.79	1.00481e-06
1593.35	9.87971e-07
1601.9	9.19111e-07
1610.46	9.12755e-07
1619.02	9.4485e-07
1627.58	9.84779e-07
1636.13	1.13621e-06
1644.69	1.30313e-06
1653.25	1.98915e-06
1661.81	1.6655e-06
1670.36	1.69363e-06
1678.92	1.65089e-06
1687.48	1.60007e-06
1696.04	1.88305e-06
1704.59	1.58877e-06
1713.15	1.65183e-06
1721.71	1.82621e-06
1730.27	1.92898e-06
1738.83	2.22408e-06
1747.38	3.02005e-06
1755.94	3.83123e-06
1764.5	3.93619e-06
1773.06	3.79191e-06
1781.61	3.3082e-06
1790.17	1.4994e-06
1798.73	6.05206e-07
1807.29	5.28526e-07
1815.84	5.87483e-07
1824.4	6.49152e-07
1832.96	7.256e-07
1841.52	6.31866e-07
1850.07	5.68307e-07
1858.63	8.71095e-07
1867.19	9.0308e-07
1875.75	1.40066e-06
1884.3	1.7918e-06
1892.86	2.25172e-06
1901.42	2.40273e-06
1909.98	2.07737e-06
1918.54	1.58404e-06
1927.09	6.68017e-07
1935.65	2.80461e-07
1944.21	1.91383e-07
1952.77	3.06725e-07
1961.32	3.19816e-07
1969.88	3.89923e-07
1978.44	5.52468e-07
1987	5.37213e-07
1995.55	4.92067e-07
2004.11	5.2525e-07
2012.67	6.14864e-07
2021.23	7.3979e-07
2029.78	7.5749e-07
2038.34	8.38491e-07
2046.9	7.05163e-07
2055.46	8.25085e-07
2064.01	1.00494e-06
2072.57	1.24798e-06
2081.13	1.32658e-06
2089.69	1.24808e-06
2098.25	1.13325e-06
2106.8	8.74269e-07
2115.36	7.38108e-07
2123.92	8.17663e-07
2132.48	7.89719e-07
2141.03	9.70763e-07
2149.59	1.10904e-06
2158.15	1.48113e-06
2166.71	1.44988e-06
2175.26	1.36533e-06
2183.82	1.5634e-06
2192.38	1.73918e-06
2200.94	1.52312e-06
2209.49	1.47116e-06
2218.05	7.68304e-07
2226.61	4.75617e-07
2235.17	3.67607e-07
2243.72	3.62657e-07
2252.28	4.87206e-07
2260.84	5.52773e-07
2269.4	7.70785e-07
2277.96	1.06008e-06
2286.51	1.43781e-06
2295.07	1.93881e-06
2303.63	2.30099e-06
2312.19	2.67334e-06
2320.74	2.58509e-06
2329.3	2.42169e-06
2337.86	1.69314e-06
2346.42	1.2019e-06
2354.97	8.74916e-07
2363.53	7.38872e-07
2372.09	8.53403e-07
2380.65	1.05465e-06
2389.2	1.15741e-06
2397.76	1.1948e-06
2406.32	1.10839e-06
2414.88	1.20911e-06
2423.44	1.23004e-06
2431.99	1.37283e-06
2440.55	1.32244e-06
2449.11	1.46333e-06
2457.67	1.36808e-06
2466.22	1.23887e-06
2474.78	1.44957e-06
2483.34	1.7203e-06
2491.9	1.95264e-06
2500.45	2.09873e-06
2509.01	2.12966e-06
2517.57	1.95035e-06
2526.13	1.67893e-06
2534.68	1.64201e-06
2543.24	1.41727e-06
2551.8	1.31231e-06
2560.36	1.35062e-06
2568.91	1.49871e-06
2577.47	1.73493e-06
2586.03	2.16585e-06
2594.59	2.65532e-06
2603.15	3.47694e-06
2611.7	3.93651e-06
2620.26	4.74752e-06
2628.82	6.65964e-06
2637.38	7.69675e-06
2645.93	8.48216e-06
2654.49	8.59685e-06
2663.05	9.26974e-06
2671.61	8.19968e-06
2680.16	6.73977e-06
2688.72	5.63889e-06
2697.28	4.80991e-06
2705.84	4.62671e-06
2714.39	5.64346e-06
2722.95	6.26872e-06
2731.51	7.01137e-06
2740.07	7.14598e-06
2748.62	6.9869e-06
2757.18	7.40208e-06
2765.74	8.39817e-06
2774.3	8.86902e-06
2782.86	9.84871e-06
2791.41	1.10474e-05
2799.97	1.21571e-05
2808.53	1.32914e-05
2817.09	1.55643e-05
2825.64	1.78612e-05
2834.2	2.03974e-05
2842.76	2.37032e-05
2851.32	3.78616e-05
2859.87	5.62065e-05
2868.43	8.54049e-05
2876.99	0.000108021
2885.55	0.000153119
2894.1	0.000143877
2902.66	0.000131428
2911.22	0.000115593
2919.78	0.000102615
2928.34	0.00011197
2936.89	0.000118169
2945.45	0.000147904
2954.01	0.000214772
2962.57	0.000283503
2971.12	0.000470334
2979.68	0.000520534
2988.24	0.000308047
2996.8	0.000248075
3005.35	0.000128601
3013.91	3.583e-05
3022.47	8.7614e-06
3031.03	3.27963e-06
3039.58	1.99676e-06
3048.14	1.51661e-06
3056.7	1.21581e-06
3065.26	1.16408e-06
3073.81	1.13342e-06
3082.37	1.18824e-06
3090.93	1.28741e-06
3099.49	1.36569e-06
3108.05	1.44307e-06
3116.6	1.55016e-06
3125.16	1.8216e-06
3133.72	1.87602e-06
3142.28	1.94659e-06
3150.83	2.36186e-06
3159.39	2.85314e-06
3167.95	3.64405e-06
3176.51	4.38298e-06
3185.06	5.03328e-06
3193.62	5.15138e-06
3202.18	5.18406e-06
3210.74	4.60315e-06
3219.29	4.19969e-06
3227.85	3.74993e-06
3236.41	3.21815e-06
3244.97	2.3614e-06
3253.52	1.38134e-06
3262.08	8.7636e-07
3270.64	4.147e-07
3279.2	3.32053e-07
3287.76	3.15111e-07
3296.31	2.84203e-07
3304.87	5.96934e-07
3313.43	7.16266e-07
3321.99	1.04988e-06
3330.54	1.54823e-06
3339.1	1.82349e-06
3347.66	1.72827e-06
3356.22	1.6916e-06
3364.77	1.48024e-06
3373.33	1.37618e-06
3381.89	1.29431e-06
3390.45	1.48826e-06
3399	1.7895e-06
3407.56	1.90153e-06
3416.12	2.08861e-06
3424.68	2.57618e-06
3433.23	2.53246e-06
3441.79	2.54526e-06
3450.35	3.37581e-06
3458.91	2.50996e-06
3467.47	2.24783e-06
3476.02	1.91162e-06
3484.58	1.44615e-06
3493.14	1.12624e-06
3501.7	8.8111e-07
3510.25	7.69209e-07
3518.81	8.1828e-07
3527.37	8.5345e-07
3535.93	9.94531e-07
3544.48	1.25931e-06
3553.04	1.12482e-06
3561.6	9.52266e-07
3570.16	9.73718e-07
3578.71	9.54615e-07
3587.27	1.10732e-06
3595.83	1.60074e-06
3604.39	2.37648e-06
3612.95	4.81764e-06
3621.5	8.54443e-06
3630.06	1.34844e-05
3638.62	3.1391e-05
3647.18	4.88073e-05
3655.73	5.57455e-05
3664.29	4.84789e-05
3672.85	4.14324e-05
3681.41	1.93557e-05
3689.96	6.06284e-06
3698.52	2.6811e-06
3707.08	1.72389e-06
3715.64	1.5837e-06
3724.19	1.24051e-06
3732.75	1.12345e-06
3741.31	1.1171e-06
3749.87	1.08101e-06
3758.42	9.25061e-07
3766.98	1.11376e-06
3775.54	1.37601e-06
3784.1	1.96605e-06
3792.66	2.17209e-06
3801.21	2.51127e-06
3809.77	2.57062e-06
3818.33	2.60367e-06
3826.89	2.65445e-06
3835.44	2.57851e-06
3844	2.46644e-06
3852.56	2.31855e-06
3861.12	2.14049e-06
3869.67	2.44994e-06
3878.23	2.23079e-06
3886.79	2.07676e-06
3895.35	2.65546e-06
3903.9	2.08788e-06
3912.46	1.89989e-06
3921.02	1.48537e-06
3929.58	1.39192e-06
3938.13	1.19852e-06
3946.69	1.12904e-06
3955.25	8.97312e-07
3963.81	8.92698e-07
3972.37	9.01406e-07
