Infrared Spectrum: 2-Propanol
Formula: C H3 C H( O H) C H3
CAS: 67-63-0
State: gas
Melting point: -89.5 C
Boiling point: 82.4 C
Class: IUPAC A
Instrument: IFS66V (Bruker)
Instrument parameters: KBr Beam splitter; MCT Detector; Multipass cell
Sampling: 1 L/min Flow
Resolution: 0.2410
Temperature: 23 C
Pressure: 101.3 kPa
Origin: NIST, Anayltical Chemistry Division, 301-975-3108
cm-1	(micromol/mol)-1m-1 (base 10)
575.048	2.2727e-06
583.606	3.51517e-06
592.163	3.24918e-06
600.721	3.40979e-06
609.279	3.76056e-06
617.836	3.9401e-06
626.394	4.21194e-06
634.951	4.05491e-06
643.509	4.19853e-06
652.067	3.60833e-06
660.624	3.53324e-06
669.182	2.966e-06
677.74	3.36609e-06
686.297	2.99216e-06
694.855	2.69229e-06
703.412	2.69454e-06
711.97	2.54358e-06
720.528	2.43153e-06
729.085	1.77913e-06
737.643	1.47022e-06
746.201	1.3508e-06
754.758	1.18432e-06
763.316	1.22806e-06
771.873	1.0288e-06
780.431	2.20212e-06
788.989	5.39471e-06
797.546	1.55196e-05
806.104	2.38742e-05
814.662	2.88349e-05
823.219	2.47488e-05
831.777	2.36532e-05
840.334	9.22185e-06
848.892	3.34595e-06
857.45	2.01658e-06
866.007	1.63657e-06
874.565	1.43284e-06
883.123	1.50571e-06
891.68	2.10193e-06
900.238	3.27873e-06
908.795	5.91011e-06
917.353	1.3109e-05
925.911	3.403e-05
934.468	8.75716e-05
943.026	0.00013878
951.584	0.000166471
960.141	0.000144882
968.699	0.000138454
977.256	5.16913e-05
985.814	1.36714e-05
994.372	6.77724e-06
1002.93	5.41707e-06
1011.49	5.14611e-06
1020.04	5.77877e-06
1028.6	7.85848e-06
1037.16	1.40186e-05
1045.72	3.13588e-05
1054.28	6.45012e-05
1062.83	9.66604e-05
1071.39	0.000139101
1079.95	0.00012469
1088.51	0.000116129
1097.06	8.04578e-05
1105.62	6.12761e-05
1114.18	7.16361e-05
1122.74	9.41601e-05
1131.29	0.000120235
1139.85	0.000144121
1148.41	0.000175641
1156.97	0.00017453
1165.52	0.000146611
1174.08	0.000109152
1182.64	7.12232e-05
1191.2	3.55378e-05
1199.75	2.1547e-05
1208.31	1.90173e-05
1216.87	2.55164e-05
1225.43	4.50851e-05
1233.99	7.90355e-05
1242.54	9.9284e-05
1251.1	0.00012683
1259.66	9.79146e-05
1268.22	7.89814e-05
1276.77	4.14081e-05
1285.33	2.34287e-05
1293.89	1.64811e-05
1302.45	1.50047e-05
1311	1.64938e-05
1319.56	2.16856e-05
1328.12	3.16026e-05
1336.68	4.24876e-05
1345.23	4.98667e-05
1353.79	6.52837e-05
1362.35	8.54865e-05
1370.91	0.000130911
1379.46	0.000189226
1388.02	0.000185208
1396.58	0.000158613
1405.14	8.30432e-05
1413.7	4.35358e-05
1422.25	2.53841e-05
1430.81	2.14531e-05
1439.37	2.54707e-05
1447.93	3.16645e-05
1456.48	4.42797e-05
1465.04	4.49234e-05
1473.6	7.87197e-05
1482.16	2.97093e-05
1490.71	2.41537e-05
1499.27	1.33988e-05
1507.83	6.28406e-06
1516.39	3.47218e-06
1524.94	2.33809e-06
1533.5	1.85376e-06
1542.06	1.75204e-06
1550.62	1.30636e-06
1559.18	1.2349e-06
1567.73	1.11602e-06
1576.29	1.36531e-06
1584.85	1.02096e-06
1593.41	1.01824e-06
1601.96	9.2408e-07
1610.52	9.10643e-07
1619.08	9.05157e-07
1627.64	9.95745e-07
1636.19	1.13523e-06
1644.75	1.32583e-06
1653.31	2.02248e-06
1661.87	1.66105e-06
1670.42	1.71155e-06
1678.98	1.64904e-06
1687.54	1.5788e-06
1696.1	1.6881e-06
1704.65	1.61945e-06
1713.21	1.65401e-06
1721.77	1.8351e-06
1730.33	1.93345e-06
1738.89	2.21777e-06
1747.44	3.02067e-06
1756	3.84945e-06
1764.56	3.92514e-06
1773.12	3.76922e-06
1781.67	3.34543e-06
1790.23	1.51638e-06
1798.79	6.06202e-07
1807.35	5.21927e-07
1815.9	5.96552e-07
1824.46	6.66055e-07
1833.02	7.16627e-07
1841.58	6.43126e-07
1850.13	5.75314e-07
1858.69	8.6161e-07
1867.25	9.24869e-07
1875.81	1.38035e-06
1884.36	1.79956e-06
1892.92	2.24555e-06
1901.48	2.38513e-06
1910.04	2.05693e-06
1918.6	1.58178e-06
1927.15	6.55736e-07
1935.71	2.6921e-07
1944.27	2.17958e-07
1952.83	2.80616e-07
1961.38	3.3838e-07
1969.94	3.8881e-07
1978.5	5.30883e-07
1987.06	5.22769e-07
1995.61	5.08802e-07
2004.17	5.34993e-07
2012.73	6.28452e-07
2021.29	7.17115e-07
2029.84	7.64533e-07
2038.4	8.3353e-07
2046.96	7.43534e-07
2055.52	8.0261e-07
2064.08	1.02585e-06
2072.63	1.22882e-06
2081.19	1.32181e-06
2089.75	1.25957e-06
2098.31	1.15726e-06
2106.86	8.92797e-07
2115.42	7.51105e-07
2123.98	8.01647e-07
2132.54	7.91707e-07
2141.09	9.77423e-07
2149.65	1.15644e-06
2158.21	1.75721e-06
2166.77	1.4032e-06
2175.32	1.38236e-06
2183.88	1.50168e-06
2192.44	1.76553e-06
2201	1.49428e-06
2209.55	1.48354e-06
2218.11	7.82325e-07
2226.67	4.52407e-07
2235.23	3.77457e-07
2243.79	3.55555e-07
2252.34	4.43822e-07
2260.9	5.27315e-07
2269.46	7.57558e-07
2278.02	1.09057e-06
2286.57	1.43603e-06
2295.13	1.96303e-06
2303.69	2.30482e-06
2312.25	2.70038e-06
2320.8	2.5804e-06
2329.36	2.49004e-06
2337.92	1.81863e-06
2346.48	1.21303e-06
2355.03	8.81235e-07
2363.59	7.26546e-07
2372.15	8.69881e-07
2380.71	1.06482e-06
2389.26	1.19105e-06
2397.82	1.16529e-06
2406.38	1.08672e-06
2414.94	1.22212e-06
2423.5	1.23514e-06
2432.05	1.36862e-06
2440.61	1.31947e-06
2449.17	1.48926e-06
2457.73	1.38586e-06
2466.28	1.27412e-06
2474.84	1.45465e-06
2483.4	1.67503e-06
2491.96	1.9337e-06
2500.51	2.097e-06
2509.07	2.10735e-06
2517.63	1.93807e-06
2526.19	1.66614e-06
2534.74	1.61896e-06
2543.3	1.42349e-06
2551.86	1.28752e-06
2560.42	1.30919e-06
2568.98	1.5548e-06
2577.53	1.79253e-06
2586.09	2.19992e-06
2594.65	2.70321e-06
2603.21	3.53162e-06
2611.76	4.00483e-06
2620.32	4.70056e-06
2628.88	6.69801e-06
2637.44	7.72523e-06
2645.99	8.38757e-06
2654.55	8.64585e-06
2663.11	9.31062e-06
2671.67	8.16587e-06
2680.22	6.80518e-06
2688.78	5.62301e-06
2697.34	4.74973e-06
2705.9	4.63308e-06
2714.45	5.69222e-06
2723.01	6.2578e-06
2731.57	7.04332e-06
2740.13	7.14908e-06
2748.69	7.00012e-06
2757.24	7.38874e-06
2765.8	8.43985e-06
2774.36	8.97428e-06
2782.92	9.89016e-06
2791.47	1.10735e-05
2800.03	1.21067e-05
2808.59	1.33039e-05
2817.15	1.55442e-05
2825.7	1.79208e-05
2834.26	2.04186e-05
2842.82	2.37274e-05
2851.38	3.79347e-05
2859.93	5.64423e-05
2868.49	8.57532e-05
2877.05	0.000108204
2885.61	0.000153099
2894.16	0.000143579
2902.72	0.000131415
2911.28	0.000115486
2919.84	0.000102572
2928.4	0.000112246
2936.95	0.000118481
2945.51	0.000148454
2954.07	0.000215133
2962.63	0.000283913
2971.18	0.000463656
2979.74	0.00052334
2988.3	0.000307035
2996.86	0.000247554
3005.41	0.000127912
3013.97	3.5516e-05
3022.53	8.63898e-06
3031.09	3.17048e-06
3039.64	2.01515e-06
3048.2	1.53171e-06
3056.76	1.21036e-06
3065.32	1.20001e-06
3073.88	1.21486e-06
3082.43	1.22226e-06
3090.99	1.26056e-06
3099.55	1.38573e-06
3108.11	1.42656e-06
3116.66	1.56437e-06
3125.22	1.78654e-06
3133.78	1.94425e-06
3142.34	1.87354e-06
3150.89	2.33134e-06
3159.45	2.82862e-06
3168.01	3.62803e-06
3176.57	4.33565e-06
3185.12	5.04776e-06
3193.68	5.1125e-06
3202.24	5.21599e-06
3210.8	4.50455e-06
3219.35	4.15712e-06
3227.91	3.85262e-06
3236.47	3.19198e-06
3245.03	2.32246e-06
3253.59	1.39872e-06
3262.14	9.79588e-07
3270.7	4.48345e-07
3279.26	2.77027e-07
3287.82	3.39388e-07
3296.37	3.77346e-07
3304.93	5.29597e-07
3313.49	6.66475e-07
3322.05	1.09555e-06
3330.6	1.53527e-06
3339.16	1.87303e-06
3347.72	1.73477e-06
3356.28	1.61752e-06
3364.83	1.46425e-06
3373.39	1.35201e-06
3381.95	1.28465e-06
3390.51	1.42538e-06
3399.06	1.9007e-06
3407.62	1.85278e-06
3416.18	2.15681e-06
3424.74	2.5262e-06
3433.3	2.52645e-06
3441.85	2.55027e-06
3450.41	3.40495e-06
3458.97	2.55028e-06
3467.53	2.28776e-06
3476.08	1.90608e-06
3484.64	1.43683e-06
3493.2	1.26124e-06
3501.76	9.84959e-07
3510.31	7.29529e-07
3518.87	8.90641e-07
3527.43	8.72802e-07
3535.99	1.06632e-06
3544.54	1.2451e-06
3553.1	1.10989e-06
3561.66	9.31774e-07
3570.22	9.52976e-07
3578.78	9.70207e-07
3587.33	1.08818e-06
3595.89	1.60787e-06
3604.45	2.41039e-06
3613.01	4.77067e-06
3621.56	8.67286e-06
3630.12	1.35901e-05
3638.68	3.15611e-05
3647.24	4.87333e-05
3655.79	5.57146e-05
3664.35	4.82931e-05
3672.91	4.13578e-05
3681.47	1.90998e-05
3690.02	6.0415e-06
3698.58	2.70631e-06
3707.14	1.79271e-06
3715.7	1.5978e-06
3724.25	1.20672e-06
3732.81	1.07202e-06
3741.37	1.22127e-06
3749.93	1.01843e-06
3758.49	9.38334e-07
3767.04	1.11494e-06
3775.6	1.381e-06
3784.16	1.92878e-06
3792.72	2.25816e-06
3801.27	2.55795e-06
3809.83	2.60067e-06
3818.39	2.6259e-06
3826.95	2.69846e-06
3835.5	2.60038e-06
3844.06	2.54016e-06
3852.62	2.45682e-06
3861.18	2.22151e-06
3869.73	2.43621e-06
3878.29	2.17826e-06
3886.85	2.18454e-06
3895.41	2.5608e-06
3903.96	2.11679e-06
3912.52	1.89936e-06
3921.08	1.52726e-06
3929.64	1.37599e-06
3938.2	1.14981e-06
3946.75	1.09285e-06
3955.31	8.82401e-07
3963.87	8.44201e-07
3972.43	8.67188e-07
