Infrared Spectrum: 2-Propanol
Formula: C H3 C H( O H) C H3
CAS: 67-63-0
State: gas
Melting point: -89.5 C
Boiling point: 82.4 C
Class: IUPAC A
Instrument: IFS66V (Bruker)
Instrument parameters: KBr Beam splitter; MCT Detector; Multipass cell
Sampling: 1 L/min Flow
Resolution: 0.9640
Temperature: 23 C
Pressure: 101.3 kPa
Origin: NIST, Anayltical Chemistry Division, 301-975-3108
cm-1	(micromol/mol)-1m-1 (base 10)
575.169	2.56368e-06
583.847	2.88456e-06
592.525	3.26338e-06
601.203	3.56514e-06
609.882	3.92151e-06
618.56	4.05864e-06
627.238	4.30878e-06
635.916	4.15566e-06
644.594	4.11458e-06
653.272	3.79551e-06
661.951	3.49778e-06
670.629	3.20918e-06
679.307	2.93687e-06
687.985	2.84052e-06
696.663	2.68873e-06
705.341	2.68015e-06
714.019	2.35086e-06
722.698	2.18945e-06
731.376	1.8413e-06
740.054	1.4742e-06
748.732	1.1923e-06
757.41	1.06866e-06
766.088	1.07036e-06
774.767	1.29789e-06
783.445	2.63391e-06
792.123	8.47629e-06
800.801	1.98365e-05
809.479	2.50095e-05
818.157	2.71588e-05
826.835	2.59669e-05
835.514	1.71466e-05
844.192	5.60953e-06
852.87	2.57722e-06
861.548	1.69185e-06
870.226	1.54111e-06
878.904	1.4976e-06
887.583	1.77097e-06
896.261	2.59045e-06
904.939	4.4215e-06
913.617	8.90606e-06
922.295	2.22969e-05
930.973	6.1401e-05
939.651	0.000125421
948.33	0.000148688
957.008	0.000180709
965.686	0.000149062
974.364	7.99197e-05
983.042	2.01147e-05
991.72	7.90109e-06
1000.4	5.58877e-06
1009.08	5.20712e-06
1017.75	5.25837e-06
1026.43	7.15338e-06
1035.11	1.18696e-05
1043.79	2.5594e-05
1052.47	5.66323e-05
1061.15	9.30814e-05
1069.82	0.000127322
1078.5	0.00012745
1087.18	0.000117096
1095.86	8.57169e-05
1104.54	6.18968e-05
1113.21	6.95414e-05
1121.89	9.20236e-05
1130.57	0.00011726
1139.25	0.000142662
1147.93	0.000173641
1156.61	0.000175545
1165.28	0.000148648
1173.96	0.000109672
1182.64	7.13382e-05
1191.32	3.51996e-05
1200	2.13163e-05
1208.67	1.91398e-05
1217.35	2.6136e-05
1226.03	4.72962e-05
1234.71	8.17288e-05
1243.39	9.75043e-05
1252.07	0.000125696
1260.74	9.74401e-05
1269.42	7.30942e-05
1278.1	3.72085e-05
1286.78	2.17721e-05
1295.46	1.58873e-05
1304.13	1.51005e-05
1312.81	1.72102e-05
1321.49	2.3603e-05
1330.17	3.4655e-05
1338.85	4.49715e-05
1347.52	5.58431e-05
1356.2	7.16989e-05
1364.88	9.42804e-05
1373.56	0.000149142
1382.24	0.00020386
1390.92	0.000181444
1399.59	0.000131842
1408.27	6.59024e-05
1416.95	3.43324e-05
1425.63	2.2863e-05
1434.31	2.25826e-05
1442.98	2.80446e-05
1451.66	3.47608e-05
1460.34	5.59086e-05
1469.02	3.69177e-05
1477.7	3.36864e-05
1486.38	2.78641e-05
1495.05	1.84422e-05
1503.73	8.88259e-06
1512.41	4.44947e-06
1521.09	2.85333e-06
1529.77	2.03462e-06
1538.44	1.69912e-06
1547.12	1.44088e-06
1555.8	1.26418e-06
1564.48	1.13164e-06
1573.16	1.06064e-06
1581.83	1.01609e-06
1590.51	1.0006e-06
1599.19	9.5801e-07
1607.87	9.00896e-07
1616.55	1.05572e-06
1625.23	9.51184e-07
1633.9	1.12743e-06
1642.58	1.22683e-06
1651.26	1.46996e-06
1659.94	1.58186e-06
1668.62	1.74466e-06
1677.29	1.67405e-06
1685.97	1.61284e-06
1694.65	1.56118e-06
1703.33	1.5448e-06
1712.01	1.6743e-06
1720.69	1.81424e-06
1729.36	1.89171e-06
1738.04	2.20356e-06
1746.72	2.98965e-06
1755.4	3.81529e-06
1764.08	3.91788e-06
1772.75	4.00213e-06
1781.43	3.32844e-06
1790.11	1.53206e-06
1798.79	6.40361e-07
1807.47	5.30768e-07
1816.15	6.05338e-07
1824.82	6.76777e-07
1833.5	7.22907e-07
1842.18	6.47067e-07
1850.86	6.06324e-07
1859.54	8.29034e-07
1868.21	9.88215e-07
1876.89	1.42592e-06
1885.57	1.89568e-06
1894.25	2.28508e-06
1902.93	2.4045e-06
1911.6	1.90024e-06
1920.28	1.44971e-06
1928.96	5.62813e-07
1937.64	2.59387e-07
1946.32	2.40325e-07
1955	3.43509e-07
1963.67	4.20117e-07
1972.35	4.64956e-07
1981.03	5.5244e-07
1989.71	5.02739e-07
1998.39	5.22343e-07
2007.06	5.99947e-07
2015.74	6.86341e-07
2024.42	7.83474e-07
2033.1	7.85923e-07
2041.78	7.81848e-07
2050.46	7.37385e-07
2059.13	8.73602e-07
2067.81	1.09394e-06
2076.49	1.28791e-06
2085.17	1.32798e-06
2093.85	1.21299e-06
2102.52	1.07459e-06
2111.2	9.41981e-07
2119.88	9.19457e-07
2128.56	7.46224e-07
2137.24	1.04061e-06
2145.91	9.9033e-07
2154.59	1.38945e-06
2163.27	1.41777e-06
2171.95	1.41056e-06
2180.63	1.47662e-06
2189.31	1.68041e-06
2197.98	1.69797e-06
2206.66	1.41694e-06
2215.34	9.88568e-07
2224.02	5.32242e-07
2232.7	3.85063e-07
2241.37	4.018e-07
2250.05	4.59992e-07
2258.73	5.49107e-07
2267.41	7.27438e-07
2276.09	9.49495e-07
2284.77	1.34494e-06
2293.44	1.7543e-06
2302.12	2.25872e-06
2310.8	2.61446e-06
2319.48	2.52312e-06
2328.16	2.36216e-06
2336.83	1.97553e-06
2345.51	1.21317e-06
2354.19	6.54886e-07
2362.87	3.32503e-07
2371.55	6.73595e-07
2380.23	1.05139e-06
2388.9	1.16509e-06
2397.58	1.17503e-06
2406.26	1.12922e-06
2414.94	1.20464e-06
2423.62	1.24185e-06
2432.29	1.35777e-06
2440.97	1.38425e-06
2449.65	1.41686e-06
2458.33	1.37032e-06
2467.01	1.27244e-06
2475.68	1.46246e-06
2484.36	1.71194e-06
2493.04	1.94363e-06
2501.72	2.11041e-06
2510.4	2.1151e-06
2519.08	1.88887e-06
2527.75	1.7008e-06
2536.43	1.67586e-06
2545.11	1.44174e-06
2553.79	1.33771e-06
2562.47	1.36193e-06
2571.14	1.51928e-06
2579.82	1.87244e-06
2588.5	2.32107e-06
2597.18	2.89974e-06
2605.86	4.12071e-06
2614.54	4.20297e-06
2623.21	5.2134e-06
2631.89	6.46946e-06
2640.57	8.55302e-06
2649.25	8.50104e-06
2657.93	8.91355e-06
2666.6	9.81014e-06
2675.28	7.11728e-06
2683.96	6.30611e-06
2692.64	5.20712e-06
2701.32	4.71337e-06
2709.99	5.03997e-06
2718.67	5.90358e-06
2727.35	6.45543e-06
2736.03	7.26666e-06
2744.71	7.11993e-06
2753.39	7.08976e-06
2762.06	7.93749e-06
2770.74	8.97443e-06
2779.42	9.39927e-06
2788.1	1.06692e-05
2796.78	1.19914e-05
2805.45	1.26706e-05
2814.13	1.49671e-05
2822.81	1.75415e-05
2831.49	2.00174e-05
2840.17	2.21851e-05
2848.85	3.31392e-05
2857.52	4.88109e-05
2866.2	7.81267e-05
2874.88	0.000101129
2883.56	0.000163984
2892.24	0.000152419
2900.91	0.000132726
2909.59	0.000119043
2918.27	0.000105381
2926.95	0.000108187
2935.63	0.000114731
2944.31	0.000138708
2952.98	0.000206016
2961.66	0.000275922
2970.34	0.000465712
2979.02	0.00049298
2987.7	0.000313228
2996.37	0.000251733
3005.05	0.000133107
3013.73	3.69869e-05
3022.41	8.89868e-06
3031.09	3.2708e-06
3039.76	1.97193e-06
3048.44	1.45167e-06
3057.12	1.19792e-06
3065.8	1.14926e-06
3074.48	1.13605e-06
3083.16	1.24151e-06
3091.83	1.24262e-06
3100.51	1.38122e-06
3109.19	1.52035e-06
3117.87	1.60141e-06
3126.55	1.68508e-06
3135.22	1.80877e-06
3143.9	1.9575e-06
3152.58	2.34208e-06
3161.26	2.93979e-06
3169.94	3.84499e-06
3178.62	4.65106e-06
3187.29	5.20868e-06
3195.97	5.18319e-06
3204.65	4.84418e-06
3213.33	4.64901e-06
3222.01	4.10604e-06
3230.68	3.54806e-06
3239.36	2.83963e-06
3248.04	2.2326e-06
3256.72	1.16902e-06
3265.4	6.98231e-07
3274.07	4.3886e-07
3282.75	2.85975e-07
3291.43	2.95918e-07
3300.11	3.81005e-07
3308.79	5.22319e-07
3317.47	9.13297e-07
3326.14	1.21666e-06
3334.82	1.72337e-06
3343.5	1.83493e-06
3352.18	1.73299e-06
3360.86	1.61256e-06
3369.53	1.43173e-06
3378.21	1.24881e-06
3386.89	1.38023e-06
3395.57	1.63066e-06
3404.25	1.84211e-06
3412.93	1.99838e-06
3421.6	2.46586e-06
3430.28	2.39602e-06
3438.96	2.54561e-06
3447.64	2.66947e-06
3456.32	2.5552e-06
3464.99	2.43379e-06
3473.67	2.05817e-06
3482.35	1.61607e-06
3491.03	1.23648e-06
3499.71	1.00466e-06
3508.39	8.50308e-07
3517.06	7.78408e-07
3525.74	8.80833e-07
3534.42	1.07702e-06
3543.1	1.24365e-06
3551.78	1.08875e-06
3560.45	9.82282e-07
3569.13	1.00313e-06
3577.81	9.71435e-07
3586.49	1.15537e-06
3595.17	1.56308e-06
3603.84	2.20268e-06
3612.52	4.69233e-06
3621.2	8.31377e-06
3629.88	1.35066e-05
3638.56	3.12561e-05
3647.24	4.86556e-05
3655.91	5.57548e-05
3664.59	4.81888e-05
3673.27	4.05408e-05
3681.95	1.80282e-05
3690.63	5.61372e-06
3699.3	2.53793e-06
3707.98	1.72057e-06
3716.66	1.47594e-06
3725.34	1.24514e-06
3734.02	1.13314e-06
3742.7	1.08117e-06
3751.37	1.02652e-06
3760.05	1.00222e-06
3768.73	1.17195e-06
3777.41	1.49096e-06
3786.09	2.01781e-06
3794.76	2.24886e-06
3803.44	2.45883e-06
3812.12	2.63713e-06
3820.8	2.79296e-06
3829.48	2.73088e-06
3838.16	2.63504e-06
3846.83	2.33154e-06
3855.51	2.29204e-06
3864.19	2.20143e-06
3872.87	2.18546e-06
3881.55	2.18675e-06
3890.22	2.10852e-06
3898.9	2.31114e-06
3907.58	1.86172e-06
3916.26	1.69162e-06
3924.94	1.43164e-06
3933.61	1.41199e-06
3942.29	1.16383e-06
3950.97	9.71226e-07
3959.65	9.05083e-07
3968.33	7.94224e-07
