Infrared Spectrum: Chloroform
Formula: C H Cl3
CAS: 67-66-3
State: gas
Melting point: -63.5 C
Boiling point: 61.7 C
Class: IUPAC A
Instrument: IFS66V (Bruker)
Instrument parameters: KBr Beam Splitter; MCT Detector; Multipass cell
Sampling: 1 L/min Flow
Resolution: 1.9290
Temperature: 23 C
Pressure: 101.3 Pa
Origin: NIST, Analytical Chemistry Division, 301-975-3108
cm-1	(micromol/mol)-1m-1 (base 10)
575.652	-1.64922e-06
584.33	-4.62312e-07
593.008	-4.93554e-07
601.687	2.32305e-07
610.365	1.90744e-06
619.043	7.89803e-07
627.721	3.25665e-06
636.399	1.42567e-06
645.077	7.34437e-07
653.756	7.86052e-07
662.434	5.29086e-06
671.112	2.58959e-05
679.79	2.09834e-05
688.468	3.62984e-05
697.146	3.28557e-06
705.825	-5.66094e-07
714.503	1.25031e-06
723.181	-2.00165e-07
731.859	6.01835e-06
740.537	2.40753e-05
749.216	0.000107081
757.894	0.000391311
766.572	0.00174361
775.25	0.00258538
783.928	0.000487286
792.606	8.29438e-05
801.285	1.1194e-05
809.963	3.23646e-06
818.641	-1.10295e-06
827.319	1.32053e-06
835.997	7.74509e-08
844.676	2.9571e-06
853.354	4.31458e-06
862.032	2.83296e-06
870.71	-2.5633e-07
879.388	8.27509e-07
888.066	-4.01228e-07
896.745	4.54163e-07
905.423	3.56438e-07
914.101	3.09008e-06
922.779	4.06251e-06
931.457	7.47134e-06
940.135	2.99587e-06
948.814	2.54046e-06
957.492	9.67427e-08
966.17	3.65271e-07
974.848	-2.59004e-07
983.526	9.4891e-08
992.205	-2.73199e-07
1000.88	1.65404e-07
1009.56	6.69737e-09
1018.24	1.41649e-06
1026.92	1.7736e-06
1035.6	2.1868e-06
1044.27	2.65534e-07
1052.95	7.79129e-08
1061.63	-3.83577e-07
1070.31	-5.62783e-09
1078.99	-3.80775e-07
1087.66	-1.19087e-07
1096.34	-3.59443e-07
1105.02	1.37185e-08
1113.7	-3.81528e-07
1122.38	-1.77675e-07
1131.06	-3.62539e-07
1139.73	-9.4218e-08
1148.41	-4.81421e-07
1157.09	-1.08919e-07
1165.77	-3.1502e-07
1174.45	2.32713e-07
1183.12	4.73484e-07
1191.8	2.97711e-06
1200.48	1.2085e-05
1209.16	8.50115e-05
1217.84	0.000466019
1226.52	0.000159068
1235.19	2.63226e-05
1243.87	3.69467e-06
1252.55	6.23885e-07
1261.23	-1.65263e-07
1269.91	-7.98119e-08
1278.58	-5.51207e-07
1287.26	-1.6503e-07
1295.94	-3.11193e-07
1304.62	-3.25181e-07
1313.3	-3.37212e-07
1321.98	-1.54742e-07
1330.65	-2.18358e-07
1339.33	-4.16176e-08
1348.01	-1.36298e-07
1356.69	1.40539e-07
1365.37	-5.38638e-07
1374.04	-7.8424e-07
1382.72	-3.04751e-07
1391.4	-9.92783e-08
1400.08	-3.84562e-07
1408.76	-2.63129e-08
1417.44	-2.44765e-07
1426.11	1.51382e-06
1434.79	4.53397e-06
1443.47	9.43843e-06
1452.15	3.31456e-06
1460.83	3.10269e-07
1469.5	1.04244e-06
1478.18	1.38408e-06
1486.86	7.8687e-07
1495.54	-8.7708e-07
1504.22	5.44226e-07
1512.9	6.12473e-07
1521.57	-7.04698e-08
1530.25	4.87594e-06
1538.93	2.15716e-06
1547.61	7.37737e-06
1556.29	4.35217e-06
1564.96	2.28399e-06
1573.64	-2.03657e-07
1582.32	-1.92401e-07
1591	-1.37047e-07
1599.68	-2.00343e-07
1608.36	-3.30696e-07
1617.03	-3.61703e-06
1625.71	-3.02539e-07
1634.39	-4.4677e-07
1643.07	-1.77111e-07
1651.75	-1.74174e-06
1660.42	-2.37657e-07
1669.1	-2.48662e-06
1677.78	-3.57718e-07
1686.46	5.25407e-07
1695.14	-2.24408e-06
1703.82	-7.08397e-07
1712.49	-3.60676e-07
1721.17	-2.6991e-07
1729.85	-7.26525e-07
1738.53	1.69504e-07
1747.21	-6.56786e-07
1755.88	-3.71539e-07
1764.56	-3.00083e-07
1773.24	-1.67979e-06
1781.92	4.63432e-08
1790.6	-5.95135e-07
1799.28	-5.60037e-07
1807.95	6.85198e-08
1816.63	3.43174e-07
1825.31	-3.63717e-07
1833.99	7.0035e-07
1842.67	4.14364e-07
1851.34	-5.35717e-08
1860.02	-1.19978e-07
1868.7	-6.84627e-07
1877.38	-3.16101e-07
1886.06	-2.34263e-07
1894.74	-1.31594e-07
1903.41	-2.57691e-07
1912.09	-3.05915e-07
1920.77	-4.17518e-07
1929.45	-2.50648e-07
1938.13	-3.35011e-07
1946.8	-2.61059e-07
1955.48	-3.83322e-07
1964.16	-8.65456e-08
1972.84	-1.46997e-07
1981.52	-3.17334e-08
1990.19	-3.17007e-08
1998.87	-5.6071e-08
2007.55	-2.67484e-07
2016.23	-2.93007e-07
2024.91	-3.08865e-07
2033.59	-2.32378e-07
2042.26	-2.39767e-07
2050.94	-1.55276e-07
2059.62	-4.02574e-07
2068.3	-2.52972e-07
2076.98	-3.68705e-07
2085.65	-2.43346e-07
2094.33	-4.28919e-07
2103.01	-3.70906e-07
2111.69	-5.26575e-07
2120.37	-8.36462e-08
2129.05	-1.855e-07
2137.72	-1.71436e-07
2146.4	-3.34167e-07
2155.08	-2.87856e-07
2163.76	-1.13412e-07
2172.44	-2.42943e-07
2181.11	-1.28618e-07
2189.79	-1.63662e-07
2198.47	-7.59994e-08
2207.15	2.51473e-07
2215.83	5.02285e-08
2224.51	-3.89728e-08
2233.18	1.73491e-08
2241.86	1.60977e-07
2250.54	-1.2398e-07
2259.22	-1.21448e-07
2267.9	-8.66148e-08
2276.57	1.62367e-07
2285.25	1.06649e-07
2293.93	2.80133e-07
2302.61	-2.07142e-08
2311.29	3.36488e-07
2319.97	-5.78462e-08
2328.64	1.57561e-06
2337.32	1.39505e-06
2346	7.74905e-07
2354.68	1.26605e-06
2363.36	2.19526e-06
2372.03	8.01695e-07
2380.71	2.81744e-07
2389.39	4.55265e-07
2398.07	2.41988e-06
2406.75	2.70988e-06
2415.43	2.36089e-06
2424.1	1.85862e-06
2432.78	6.79869e-07
2441.46	1.18378e-06
2450.14	7.64788e-07
2458.82	6.58889e-07
2467.49	3.26585e-07
2476.17	-1.62203e-07
2484.85	-1.2076e-07
2493.53	-3.64914e-07
2502.21	-2.67058e-08
2510.89	-4.43897e-07
2519.56	-2.06898e-07
2528.24	-3.45411e-07
2536.92	-1.81986e-07
2545.6	-5.34076e-07
2554.28	-2.3682e-07
2562.95	-3.71852e-07
2571.63	-3.57642e-07
2580.31	-3.31929e-07
2588.99	-1.93296e-07
2597.67	-5.05843e-07
2606.35	-2.11282e-07
2615.02	-3.50508e-07
2623.7	-2.54256e-07
2632.38	-4.44068e-07
2641.06	-1.76325e-07
2649.74	-4.09718e-07
2658.41	-3.64689e-07
2667.09	-3.7366e-07
2675.77	-1.69526e-09
2684.45	-3.59515e-07
2693.13	-2.19114e-07
2701.81	-3.58173e-07
2710.48	-5.25931e-08
2719.16	-2.87263e-07
2727.84	-1.55389e-07
2736.52	-3.68577e-07
2745.2	-1.3457e-07
2753.87	-2.37602e-07
2762.55	-1.57004e-07
2771.23	-4.55538e-07
2779.91	-3.46328e-07
2788.59	-3.93293e-07
2797.27	-6.48819e-08
2805.94	-4.74982e-07
2814.62	-4.94161e-07
2823.3	-3.93115e-07
2831.98	-1.33875e-08
2840.66	-3.01778e-07
2849.33	-3.48151e-07
2858.01	-4.27777e-07
2866.69	-3.16261e-07
2875.37	-5.8448e-07
2884.05	-3.23573e-07
2892.73	-4.23161e-07
2901.4	-1.33791e-07
2910.08	-4.91637e-07
2918.76	-2.64541e-07
2927.44	-6.57365e-07
2936.12	-2.75178e-07
2944.79	-3.98346e-07
2953.47	-3.82722e-07
2962.15	-7.6935e-07
2970.83	-5.16647e-07
2979.51	-6.45851e-07
2988.19	-2.41356e-07
2996.86	-5.97689e-07
3005.54	-2.04137e-07
3014.22	-1.86009e-07
3022.9	1.07603e-06
3031.58	-2.08714e-06
3040.25	5.83628e-07
3048.93	8.13918e-07
3057.61	-8.83464e-08
3066.29	-2.35736e-07
3074.97	-2.44081e-07
3083.65	-1.97181e-07
3092.32	-1.29498e-07
3101	-1.90244e-07
3109.68	7.93062e-08
3118.36	-3.25519e-08
3127.04	3.85654e-08
3135.71	-1.67609e-07
3144.39	6.13059e-08
3153.07	-6.26992e-08
3161.75	1.8462e-07
3170.43	-2.01405e-07
3179.11	1.50242e-07
3187.78	7.4024e-08
3196.46	1.46153e-07
3205.14	-1.36057e-09
3213.82	1.17359e-07
3222.5	2.71205e-08
3231.17	3.3078e-07
3239.85	1.41914e-07
3248.53	3.85457e-07
3257.21	5.28223e-08
3265.89	2.26317e-07
3274.57	-1.18916e-07
3283.24	1.82895e-07
3291.92	-9.96384e-08
3300.6	1.21633e-07
3309.28	-1.63957e-07
3317.96	6.52639e-09
3326.63	-4.20428e-07
3335.31	8.35516e-08
3343.99	-2.38606e-07
3352.67	-1.06409e-07
3361.35	-2.59382e-07
3370.03	-5.75261e-08
3378.7	-5.66752e-07
3387.38	-1.06379e-07
3396.06	-3.54259e-07
3404.74	-8.84555e-08
3413.42	1.4126e-07
3422.09	-8.45593e-08
3430.77	-4.34809e-07
3439.45	-4.57226e-07
3448.13	-5.73602e-07
3456.81	-3.4703e-07
3465.49	-4.05102e-07
3474.16	-5.74497e-08
3482.84	-5.20347e-07
3491.52	-1.63862e-07
3500.2	-6.33166e-07
3508.88	-3.51068e-07
3517.55	-4.18086e-07
3526.23	-4.08311e-07
3534.91	-3.17541e-07
3543.59	-1.77817e-07
3552.27	-8.42076e-07
3560.95	-1.89025e-07
3569.62	-3.46652e-07
3578.3	-3.6232e-07
3586.98	-1.03244e-06
3595.66	-4.83797e-07
3604.34	-3.75999e-07
3613.01	-8.31129e-07
3621.69	-7.13749e-07
3630.37	-8.42127e-07
3639.05	-5.28765e-07
3647.73	-1.00668e-06
3656.41	-2.09127e-06
3665.08	-3.14507e-07
3673.76	-5.61132e-07
3682.44	-5.49054e-07
3691.12	-1.41132e-06
3699.8	-5.67512e-10
3708.47	-5.98522e-07
3717.15	2.09285e-07
3725.83	-6.72891e-07
3734.51	-1.86139e-06
3743.19	-8.96779e-08
3751.87	-4.26382e-06
3760.54	-1.0727e-06
3769.22	-7.82876e-07
3777.9	-5.4212e-07
3786.58	-1.75696e-07
3795.26	-6.48412e-07
3803.93	-3.28561e-07
3812.61	-4.43205e-08
3821.29	-2.00736e-06
3829.97	-6.673e-07
3838.65	-1.30819e-06
3847.33	-8.0394e-07
3856	-1.26246e-07
3864.68	-1.74067e-06
3873.36	-5.92327e-07
3882.04	-5.34313e-07
3890.72	-1.01487e-06
3899.39	-1.98451e-06
3908.07	-5.77775e-07
3916.75	-1.18922e-06
3925.43	-5.28616e-07
3934.11	-6.16166e-07
3942.79	-6.25886e-07
3951.46	-3.61313e-07
3960.14	-6.37349e-07
3968.82	-5.46263e-07
