Infrared Spectrum: Chloroform
Formula: C H Cl3
CAS: 67-66-3
State: gas
Melting point: -63.5 C
Boiling point: 61.7 C
Class: IUPAC A
Instrument: IFS66V (Bruker)
Instrument parameters: KBr Beam Splitter; MCT Detector; Multipass cell
Sampling: 1 L/min Flow
Resolution: 0.2410
Temperature: 23 C
Pressure: 101.3 Pa
Origin: NIST, Analytical Chemistry Division, 301-975-3108
cm-1	(micromol/mol)-1m-1 (base 10)
575.05	-2.22696e-06
583.608	-6.48343e-07
592.165	1.36545e-06
600.723	2.04235e-07
609.281	1.78797e-06
617.838	1.5924e-06
626.396	4.68609e-06
634.954	2.03762e-06
643.511	9.18337e-07
652.069	1.26105e-06
660.626	4.14789e-06
669.184	1.34939e-05
677.742	1.0961e-05
686.299	4.45729e-05
694.857	5.82654e-06
703.415	2.98144e-07
711.972	1.89607e-07
720.53	5.31956e-07
729.088	2.61229e-06
737.645	1.48745e-05
746.203	6.76865e-05
754.761	0.000240233
763.318	0.00101129
771.876	0.00280859
780.434	0.00110997
788.991	0.000161369
797.549	3.39511e-05
806.106	3.64107e-06
814.664	7.73756e-07
823.222	-2.19886e-07
831.779	2.90181e-07
840.337	1.453e-06
848.895	3.72506e-06
857.452	5.0986e-06
866.01	9.18854e-07
874.568	6.93533e-07
883.125	4.11141e-07
891.683	-3.23966e-07
900.241	1.27708e-07
908.798	1.10172e-06
917.356	3.62263e-06
925.914	4.6157e-06
934.471	5.96989e-06
943.029	3.74166e-06
951.586	1.57724e-06
960.144	9.77067e-08
968.702	9.3705e-08
977.259	-7.8244e-08
985.817	-3.27735e-07
994.375	-1.71713e-07
1002.93	-1.48597e-07
1011.49	3.39405e-07
1020.05	1.7261e-06
1028.61	2.15941e-06
1037.16	2.15072e-06
1045.72	2.48323e-08
1054.28	-2.0998e-08
1062.84	-1.86279e-07
1071.39	5.25713e-08
1079.95	-1.6448e-07
1088.51	-2.95732e-07
1097.07	-4.37156e-07
1105.62	6.40452e-08
1114.18	-5.46049e-08
1122.74	-3.77727e-07
1131.3	-6.06947e-08
1139.85	-2.08936e-07
1148.41	-3.75249e-07
1156.97	-3.93312e-07
1165.53	-3.31224e-07
1174.09	-6.25792e-08
1182.64	6.80269e-07
1191.2	2.84557e-06
1199.76	1.05822e-05
1208.32	6.85001e-05
1216.87	0.000385131
1225.43	0.000202373
1233.99	3.27531e-05
1242.55	5.40412e-06
1251.1	8.94771e-07
1259.66	1.0591e-07
1268.22	-1.29855e-07
1276.78	-6.08148e-08
1285.33	-2.16873e-07
1293.89	-1.2343e-07
1302.45	-2.47035e-07
1311.01	-3.37826e-07
1319.57	-9.37778e-08
1328.12	-1.6778e-07
1336.68	-3.87065e-07
1345.24	1.11374e-07
1353.8	-8.84428e-07
1362.35	-5.61317e-07
1370.91	-8.49995e-08
1379.47	-2.53169e-07
1388.03	-5.84039e-07
1396.58	-6.10476e-08
1405.14	-1.09272e-06
1413.7	-1.45461e-07
1422.26	5.42127e-07
1430.81	2.80738e-06
1439.37	7.68602e-06
1447.93	6.37079e-06
1456.49	-2.56012e-06
1465.05	-1.49812e-06
1473.6	-2.16722e-06
1482.16	1.21341e-06
1490.72	-9.35271e-07
1499.28	-1.07318e-07
1507.83	-1.29127e-07
1516.39	1.14181e-06
1524.95	2.80938e-06
1533.51	4.78705e-06
1542.06	1.65686e-06
1550.62	5.20649e-06
1559.18	3.86151e-06
1567.74	1.84694e-06
1576.29	-7.28042e-06
1584.85	-2.72133e-07
1593.41	-3.38336e-07
1601.97	-1.7081e-07
1610.53	-4.50139e-07
1619.08	-2.25346e-07
1627.64	-1.19641e-06
1636.2	-7.492e-07
1644.76	-1.86504e-07
1653.31	-1.03483e-05
1661.87	-4.78904e-07
1670.43	-2.65232e-07
1678.99	-3.68887e-07
1687.54	-1.98331e-07
1696.1	-6.0977e-06
1704.66	-1.15739e-06
1713.22	-2.74298e-07
1721.77	-3.923e-07
1730.33	-6.33064e-07
1738.89	-2.76502e-07
1747.45	-4.81487e-07
1756.01	-1.73022e-07
1764.56	-1.68013e-07
1773.12	-8.54386e-07
1781.68	-1.25086e-07
1790.24	-1.61035e-07
1798.79	-2.47741e-08
1807.35	7.77019e-08
1815.91	2.76422e-07
1824.47	3.65824e-07
1833.02	8.40941e-07
1841.58	2.09623e-07
1850.14	-1.25006e-07
1858.7	-2.33066e-07
1867.25	-2.86961e-07
1875.81	-2.9981e-07
1884.37	-1.59857e-07
1892.93	-1.47877e-07
1901.49	-1.11473e-07
1910.04	-4.25278e-07
1918.6	-1.83034e-07
1927.16	-1.41634e-07
1935.72	-4.14517e-07
1944.27	-2.6624e-07
1952.83	-1.64484e-07
1961.39	-1.37542e-07
1969.95	-2.20635e-07
1978.5	4.98574e-08
1987.06	-7.66105e-08
1995.62	-6.53076e-08
2004.18	-1.26304e-07
2012.73	-2.12635e-08
2021.29	-2.15564e-07
2029.85	-1.43242e-07
2038.41	-1.94595e-07
2046.97	-4.5915e-07
2055.52	-3.98721e-07
2064.08	-2.1835e-07
2072.64	-2.29377e-07
2081.2	-2.27994e-07
2089.75	-4.79501e-07
2098.31	-3.36993e-07
2106.87	-8.20892e-08
2115.43	-4.31153e-07
2123.98	-2.93353e-07
2132.54	-1.8092e-07
2141.1	-3.08639e-08
2149.66	-1.60297e-07
2158.21	-4.75881e-07
2166.77	-3.73249e-08
2175.33	-2.34419e-07
2183.89	-8.72441e-08
2192.45	2.66585e-08
2201	-7.93171e-08
2209.56	3.11153e-07
2218.12	-6.90401e-08
2226.68	-9.82742e-08
2235.23	1.59777e-08
2243.79	4.03025e-07
2252.35	-2.1197e-07
2260.91	-1.08802e-07
2269.46	6.05165e-08
2278.02	-5.96652e-08
2286.58	3.12063e-07
2295.14	-2.44831e-09
2303.69	-1.83863e-07
2312.25	-1.65481e-07
2320.81	3.41642e-07
2329.37	9.84598e-08
2337.93	1.46812e-06
2346.48	8.29405e-08
2355.04	1.39332e-07
2363.6	4.4254e-07
2372.16	1.32794e-07
2380.71	5.05341e-07
2389.27	3.52571e-07
2397.83	2.23482e-06
2406.39	1.62683e-06
2414.94	1.90082e-06
2423.5	2.19368e-06
2432.06	6.06794e-07
2440.62	1.25728e-06
2449.17	6.17457e-07
2457.73	8.19542e-07
2466.29	3.83042e-07
2474.85	-1.31365e-07
2483.41	-2.33673e-07
2491.96	-1.74717e-07
2500.52	-3.03175e-07
2509.08	-2.44805e-07
2517.64	-2.37129e-07
2526.19	-3.83442e-07
2534.75	-2.2089e-07
2543.31	-4.29203e-07
2551.87	-2.95936e-07
2560.42	-4.23801e-07
2568.98	-3.11011e-07
2577.54	-2.72784e-07
2586.1	-2.52321e-07
2594.65	-2.4872e-07
2603.21	-4.49572e-07
2611.77	-4.35511e-07
2620.33	-4.54759e-07
2628.89	-2.52947e-07
2637.44	-3.63874e-07
2646	-3.4822e-07
2654.56	-3.35178e-07
2663.12	-3.00254e-07
2671.67	-8.07577e-08
2680.23	-2.34823e-07
2688.79	-2.41571e-07
2697.35	-4.07485e-07
2705.9	-3.33606e-07
2714.46	-2.9391e-07
2723.02	-4.44348e-07
2731.58	-2.63428e-07
2740.13	-4.69144e-07
2748.69	-4.25889e-07
2757.25	-3.93726e-07
2765.81	-3.34301e-07
2774.37	-4.34678e-07
2782.92	-2.67979e-07
2791.48	-4.07387e-07
2800.04	-5.46671e-07
2808.6	-1.96505e-07
2817.15	-4.70886e-07
2825.71	-5.6151e-08
2834.27	-3.12426e-07
2842.83	-3.08723e-07
2851.38	-7.83058e-08
2859.94	-2.46821e-07
2868.5	-4.46865e-07
2877.06	-1.68424e-07
2885.61	-4.76216e-07
2894.17	-6.46553e-07
2902.73	-4.75834e-07
2911.29	-2.65487e-07
2919.85	-4.04203e-07
2928.4	-4.39775e-07
2936.96	-6.00988e-07
2945.52	-8.20034e-07
2954.08	-4.4529e-07
2962.63	6.36487e-08
2971.19	-4.23888e-07
2979.75	-6.44607e-07
2988.31	-5.63398e-07
2996.86	-1.69985e-07
3005.42	-4.69264e-07
3013.98	1.94908e-07
3022.54	5.79845e-07
3031.09	-2.42368e-07
3039.65	8.11539e-07
3048.21	6.52214e-07
3056.77	-2.47639e-07
3065.33	-3.50297e-07
3073.88	-5.16047e-07
3082.44	-4.46905e-07
3091	-1.7793e-07
3099.56	3.32104e-08
3108.11	3.00127e-09
3116.67	-1.46953e-07
3125.23	-1.05928e-07
3133.79	-1.54298e-07
3142.34	-7.97573e-08
3150.9	-5.66203e-08
3159.46	3.39507e-07
3168.02	-1.10516e-07
3176.57	-2.39552e-07
3185.13	2.57265e-07
3193.69	-2.75789e-08
3202.25	1.32507e-07
3210.81	1.43472e-07
3219.36	1.57208e-07
3227.92	2.34052e-07
3236.48	-7.30308e-08
3245.04	1.29928e-07
3253.59	-6.1375e-08
3262.15	2.50146e-07
3270.71	1.24634e-07
3279.27	-1.68257e-07
3287.82	-9.1686e-08
3296.38	-3.25228e-09
3304.94	2.24448e-07
3313.5	-9.695e-08
3322.05	-1.35945e-07
3330.61	-2.873e-07
3339.17	-3.07999e-07
3347.73	5.36226e-09
3356.29	1.45913e-07
3364.84	-5.98951e-07
3373.4	-4.2084e-07
3381.96	-9.56207e-07
3390.52	-1.84667e-07
3399.07	-2.12763e-07
3407.63	-2.73348e-07
3416.19	-4.49295e-07
3424.75	-4.56837e-07
3433.3	-2.44722e-08
3441.86	-5.84512e-07
3450.42	-5.7776e-07
3458.98	-3.07748e-07
3467.53	-5.1843e-07
3476.09	-3.53477e-07
3484.65	-1.82764e-07
3493.21	-4.85329e-07
3501.77	-4.70239e-07
3510.32	-3.48253e-07
3518.88	-6.25042e-07
3527.44	-3.84431e-07
3536	-6.40034e-07
3544.55	-4.02628e-07
3553.11	-2.92986e-07
3561.67	-4.87715e-07
3570.23	-5.34571e-07
3578.78	1.20429e-07
3587.34	-2.83392e-07
3595.9	-4.57826e-07
3604.46	-2.29435e-07
3613.01	-6.41871e-07
3621.57	-2.5724e-07
3630.13	-4.08274e-07
3638.69	-2.72457e-07
3647.25	-2.00097e-06
3655.8	-7.27038e-07
3664.36	-7.17332e-07
3672.92	-3.35469e-07
3681.48	-2.76339e-07
3690.03	-1.29058e-07
3698.59	2.17907e-07
3707.15	9.86235e-08
3715.71	7.08299e-09
3724.26	-2.81384e-07
3732.82	-4.02286e-07
3741.38	-1.34698e-06
3749.94	-1.33837e-06
3758.49	-6.07897e-07
3767.05	-5.76152e-07
3775.61	-2.26055e-07
3784.17	-3.84442e-07
3792.73	-2.3981e-07
3801.28	-5.29098e-06
3809.84	-1.55371e-07
3818.4	-4.43635e-07
3826.96	-8.0848e-07
3835.51	-6.6324e-07
3844.07	-7.47257e-07
3852.63	-9.53181e-07
3861.19	-7.70624e-07
3869.74	-1.37331e-06
3878.3	-7.03981e-07
3886.86	-5.64551e-07
3895.42	-2.84349e-07
3903.97	-1.63852e-06
3912.53	-9.13902e-07
3921.09	-3.91991e-07
3929.65	-1.00483e-06
3938.21	-5.16193e-07
3946.76	-4.15881e-07
3955.32	1.66274e-07
3963.88	-3.54663e-07
3972.44	-4.05593e-07
