Infrared Spectrum: Chloroform
Formula: C H Cl3
CAS: 67-66-3
State: gas
Melting point: -63.5 C
Boiling point: 61.7 C
Class: IUPAC A
Instrument: IFS66V (Bruker)
Instrument parameters: KBr Beam Splitter; MCT Detector; Multipass cell
Sampling: 1 L/min Flow
Resolution: 0.4820
Temperature: 23 C
Pressure: 101.3 Pa
Origin: NIST, Analytical Chemistry Division, 301-975-3108
cm-1	(micromol/mol)-1m-1 (base 10)
575.17	-3.76784e-06
583.848	-1.12315e-06
592.526	-6.6889e-07
601.205	-1.61981e-07
609.883	9.86213e-07
618.561	1.39001e-06
627.239	5.74505e-06
635.917	1.89378e-06
644.595	7.89071e-07
653.274	8.06464e-07
661.952	3.59583e-06
670.63	2.29476e-05
679.308	1.82571e-05
687.986	3.8932e-05
696.664	3.22267e-06
705.343	-2.0099e-07
714.021	3.99361e-07
722.699	7.48047e-07
731.377	4.74226e-06
740.055	2.30218e-05
748.734	9.81482e-05
757.412	0.000363805
766.09	0.00161528
774.768	0.00256297
783.446	0.000552931
792.124	8.6746e-05
800.803	1.50397e-05
809.481	1.88953e-06
818.159	2.13981e-07
826.837	5.73708e-07
835.515	7.2595e-07
844.193	2.24511e-06
852.872	4.51583e-06
861.55	2.10335e-06
870.228	5.09291e-07
878.906	4.65466e-07
887.584	8.15654e-08
896.263	1.10974e-07
904.941	7.66749e-07
913.619	2.39897e-06
922.297	4.42782e-06
930.975	7.37301e-06
939.653	2.94296e-06
948.332	2.37711e-06
957.01	5.05439e-07
965.688	9.02126e-08
974.366	-3.17043e-08
983.044	-1.13481e-07
991.723	-9.39851e-08
1000.4	-6.92802e-08
1009.08	1.75914e-07
1017.76	1.22808e-06
1026.44	2.05942e-06
1035.11	2.08562e-06
1043.79	5.02114e-07
1052.47	-2.25386e-07
1061.15	-1.61497e-07
1069.83	3.09302e-07
1078.5	-1.15867e-07
1087.18	-2.01569e-07
1095.86	-2.12468e-07
1104.54	-1.35439e-07
1113.22	-1.81422e-07
1121.9	-3.00014e-07
1130.57	-9.80669e-08
1139.25	-3.67242e-07
1147.93	-2.10063e-07
1156.61	-4.60762e-07
1165.29	-4.40612e-07
1173.96	1.92445e-08
1182.64	6.51533e-07
1191.32	2.75513e-06
1200	1.12379e-05
1208.68	7.51575e-05
1217.36	0.000426012
1226.03	0.000177954
1234.71	2.84194e-05
1243.39	4.45057e-06
1252.07	4.75073e-07
1260.75	-1.06474e-07
1269.42	-1.95574e-07
1278.1	-4.24343e-07
1286.78	-3.30991e-07
1295.46	-3.10895e-07
1304.14	-3.57376e-07
1312.82	-1.81702e-07
1321.49	-2.19165e-07
1330.17	1.52355e-08
1338.85	-2.78398e-07
1347.53	-2.17481e-07
1356.21	-2.86492e-07
1364.88	-6.26781e-07
1373.56	-9.67154e-07
1382.24	-1.10094e-07
1390.92	-1.37567e-07
1399.6	-2.30581e-07
1408.28	-1.76329e-08
1416.95	2.26572e-07
1425.63	1.19155e-06
1434.31	4.40383e-06
1442.99	8.84004e-06
1451.67	4.25808e-06
1460.34	3.25312e-07
1469.02	1.18003e-06
1477.7	1.37498e-06
1486.38	1.26458e-06
1495.06	2.53136e-07
1503.73	2.0776e-07
1512.41	-3.35829e-07
1521.09	-1.96379e-06
1529.77	4.50958e-06
1538.45	4.92057e-06
1547.13	7.42318e-06
1555.8	4.52522e-06
1564.48	2.63198e-06
1573.16	3.12627e-07
1581.84	-1.4744e-07
1590.52	-1.31266e-07
1599.19	-2.55071e-07
1607.87	-2.29835e-07
1616.55	-5.70898e-06
1625.23	-2.53016e-07
1633.91	-3.67439e-07
1642.59	-3.38998e-07
1651.26	-5.18888e-07
1659.94	-3.12477e-07
1668.62	-5.61233e-07
1677.3	-2.25113e-07
1685.98	-3.77163e-07
1694.65	-3.37724e-07
1703.33	-3.31696e-07
1712.01	-3.01633e-07
1720.69	-1.8769e-07
1729.37	-3.38965e-07
1738.05	-1.19261e-07
1746.72	-3.97473e-07
1755.4	-3.5396e-07
1764.08	-2.31501e-07
1772.76	-4.44307e-06
1781.44	-1.10825e-07
1790.11	-9.91801e-08
1798.79	-3.95294e-08
1807.47	4.61577e-08
1816.15	3.6698e-07
1824.83	6.26483e-08
1833.51	8.42563e-07
1842.18	1.50194e-07
1850.86	1.44279e-08
1859.54	-1.7773e-07
1868.22	-3.81925e-07
1876.9	-2.23443e-07
1885.57	-3.53535e-07
1894.25	-6.76395e-08
1902.93	-2.3567e-07
1911.61	-2.61823e-07
1920.29	-2.75211e-07
1928.97	-2.47068e-07
1937.64	-2.40636e-07
1946.32	-3.36844e-07
1955	-2.82643e-07
1963.68	-1.76744e-07
1972.36	-1.72509e-08
1981.03	-9.64044e-09
1989.71	-4.58994e-08
1998.39	-8.97761e-08
2007.07	-1.29258e-07
2015.75	-2.30312e-07
2024.43	-2.82672e-07
2033.1	-2.68732e-07
2041.78	-3.21448e-07
2050.46	-2.49665e-07
2059.14	-2.08812e-07
2067.82	-4.14335e-07
2076.49	-3.77901e-07
2085.17	-3.1533e-07
2093.85	-2.70427e-07
2102.53	-3.26301e-07
2111.21	-4.75659e-07
2119.89	-3.59283e-07
2128.56	-9.05837e-08
2137.24	-1.96789e-07
2145.92	-2.23742e-07
2154.6	-4.98243e-07
2163.28	-2.09914e-07
2171.95	-2.62071e-07
2180.63	-1.43242e-07
2189.31	-4.02606e-08
2197.99	-1.32521e-07
2206.67	2.65421e-07
2215.35	1.97865e-07
2224.02	1.40496e-08
2232.7	1.03844e-07
2241.38	6.15242e-08
2250.06	-1.78024e-07
2258.74	-1.77973e-07
2267.41	-1.06991e-08
2276.09	9.82051e-08
2284.77	1.12597e-07
2293.45	2.39898e-07
2302.13	-3.54768e-08
2310.81	5.53579e-08
2319.48	4.75874e-07
2328.16	2.60368e-07
2336.84	2.18321e-07
2345.52	4.54723e-07
2354.2	2.12249e-06
2362.87	4.5191e-06
2371.55	1.77541e-06
2380.23	4.91589e-08
2388.91	4.72872e-07
2397.59	2.1927e-06
2406.27	1.47767e-06
2414.94	1.83579e-06
2423.62	2.21242e-06
2432.3	5.75603e-07
2440.98	1.24908e-06
2449.66	6.4365e-07
2458.33	7.33022e-07
2467.01	2.14007e-07
2475.69	-1.15263e-07
2484.37	-3.91293e-07
2493.05	-2.82497e-07
2501.73	-1.37931e-07
2510.4	-3.44458e-07
2519.08	-1.8188e-07
2527.76	-3.21809e-07
2536.44	-3.46219e-07
2545.12	-4.5771e-07
2553.79	-3.21987e-07
2562.47	-2.23232e-07
2571.15	-3.65493e-07
2579.83	-3.48424e-07
2588.51	-2.06451e-07
2597.19	-1.63702e-07
2605.86	-3.38983e-07
2614.54	-6.52166e-08
2623.22	-3.15337e-07
2631.9	-2.65185e-07
2640.58	-2.86325e-07
2649.25	-4.55745e-07
2657.93	-2.69783e-07
2666.61	-3.00421e-07
2675.29	-3.21892e-07
2683.97	-2.0226e-07
2692.65	-4.00806e-07
2701.32	-2.42011e-07
2710	-9.78049e-08
2718.68	-3.19408e-07
2727.36	-3.1151e-07
2736.04	-1.78705e-07
2744.71	-3.60498e-07
2753.39	-1.84016e-07
2762.07	-4.45537e-07
2770.75	-3.60087e-07
2779.43	-3.79695e-07
2788.11	-3.09494e-07
2796.78	-3.3648e-07
2805.46	-5.95197e-08
2814.14	-5.66065e-07
2822.82	-3.28124e-07
2831.5	4.3582e-09
2840.17	-2.37893e-07
2848.85	-3.23104e-07
2857.53	-3.76523e-07
2866.21	-4.18188e-07
2874.89	-5.64289e-07
2883.57	-2.75225e-07
2892.24	-3.80503e-07
2900.92	-2.7588e-07
2909.6	-5.21693e-07
2918.28	-3.74245e-07
2926.96	-3.52349e-07
2935.63	-5.45951e-07
2944.31	-2.4243e-07
2952.99	-4.67819e-07
2961.67	-8.17975e-07
2970.35	-7.02144e-07
2979.03	-5.37747e-07
2987.7	-1.94599e-07
2996.38	-6.27592e-07
3005.06	-2.37388e-07
3013.74	-8.96851e-08
3022.42	6.30812e-07
3031.09	-2.7417e-07
3039.77	7.32575e-07
3048.45	7.16172e-07
3057.13	-3.95534e-07
3065.81	-3.34519e-07
3074.49	-2.34062e-08
3083.16	-3.17447e-07
3091.84	-3.78498e-07
3100.52	-1.82804e-07
3109.2	-6.77995e-08
3117.88	-6.67336e-08
3126.55	9.24609e-08
3135.23	-9.43089e-08
3143.91	3.28539e-08
3152.59	-3.78487e-08
3161.27	3.56863e-07
3169.95	1.02276e-07
3178.62	1.64037e-07
3187.3	5.85265e-08
3195.98	2.67931e-08
3204.66	3.18185e-07
3213.34	1.13211e-07
3222.01	3.92729e-07
3230.69	3.48864e-07
3239.37	2.92524e-08
3248.05	9.76958e-08
3256.73	2.17423e-07
3265.4	-4.04134e-08
3274.08	1.42427e-07
3282.76	6.43836e-08
3291.44	-2.82996e-07
3300.12	-1.45782e-07
3308.8	1.8948e-07
3317.47	-2.18645e-07
3326.15	-2.7783e-07
3334.83	-8.54615e-08
3343.51	1.25518e-07
3352.19	-2.2109e-07
3360.86	-3.06122e-07
3369.54	8.9827e-08
3378.22	-3.47918e-07
3386.9	-4.88752e-08
3395.58	-3.63535e-08
3404.26	-2.40487e-07
3412.93	5.43193e-07
3421.61	-2.20424e-07
3430.29	-6.51886e-07
3438.97	-4.10995e-07
3447.65	-6.72757e-07
3456.32	-1.35283e-07
3465	-3.81008e-07
3473.68	-1.15241e-07
3482.36	-2.20737e-07
3491.04	-5.93523e-07
3499.72	-3.94036e-07
3508.39	-5.06585e-07
3517.07	-4.1448e-07
3525.75	-5.98005e-07
3534.43	-3.69687e-07
3543.11	-6.91357e-07
3551.78	-4.15961e-07
3560.46	-2.35001e-07
3569.14	-3.23802e-07
3577.82	-5.08342e-07
3586.5	-1.60287e-06
3595.18	-6.53858e-07
3603.85	-4.54541e-07
3612.53	-1.86489e-06
3621.21	-7.78474e-07
3629.89	-2.1768e-06
3638.57	-3.92973e-07
3647.24	-1.98717e-06
3655.92	-1.17112e-06
3664.6	-6.28917e-07
3673.28	-5.68342e-07
3681.96	-3.4197e-07
3690.64	-3.751e-07
3699.31	-5.76971e-08
3707.99	-3.25268e-07
3716.67	3.51137e-07
3725.35	-4.56211e-07
3734.03	-7.17674e-07
3742.7	-7.23928e-07
3751.38	-1.12632e-06
3760.06	-1.69115e-06
3768.74	-5.58738e-07
3777.42	-4.82033e-07
3786.1	-5.52193e-07
3794.77	-5.69542e-07
3803.45	-2.26088e-07
3812.13	-2.81748e-07
3820.81	-2.85285e-06
3829.49	-3.33279e-07
3838.16	-3.47892e-06
3846.84	-6.45651e-07
3855.52	-5.44139e-07
3864.2	-8.70477e-07
3872.88	-7.0935e-07
3881.56	-6.44178e-07
3890.23	-5.15629e-07
3898.91	-1.00857e-06
3907.59	-4.30625e-07
3916.27	-7.36336e-07
3924.95	-5.24811e-07
3933.62	-4.01661e-07
3942.3	-6.93515e-07
3950.98	-6.32551e-07
3959.66	-8.0008e-07
3968.34	-5.07985e-07
