Infrared Spectrum: 2-Propanol
Formula: C H3 C H( O H) C H3
CAS: 67-63-0
State: gas
Melting point: -89.5 C
Boiling point: 82.4 C
Class: IUPAC A
Instrument: IFS66V (Bruker)
Instrument parameters: KBr Beam splitter; MCT Detector; Multipass cell
Sampling: 1 L/min Flow
Resolution: 1.9290
Temperature: 23 C
Pressure: 101.3 kPa
Origin: NIST, Anayltical Chemistry Division, 301-975-3108
cm-1	(micromol/mol)-1m-1 (base 10)
574.687	2.6453e-06
583.365	2.94821e-06
592.043	3.22253e-06
600.721	3.54656e-06
609.4	3.86595e-06
618.078	4.01241e-06
626.756	4.28108e-06
635.434	4.11639e-06
644.112	4.14283e-06
652.79	3.84356e-06
661.469	3.52194e-06
670.147	3.25383e-06
678.825	3.03221e-06
687.503	2.89994e-06
696.181	2.6739e-06
704.859	2.7316e-06
713.537	2.43413e-06
722.216	2.24037e-06
730.894	1.92732e-06
739.572	1.55579e-06
748.25	1.28283e-06
756.928	1.15153e-06
765.606	1.15187e-06
774.285	1.38698e-06
782.963	2.69306e-06
791.641	8.12801e-06
800.319	1.90376e-05
808.997	2.45875e-05
817.675	2.74304e-05
826.353	2.54868e-05
835.032	1.79664e-05
843.71	6.27247e-06
852.388	2.86528e-06
861.066	1.94104e-06
869.744	1.74602e-06
878.422	1.71553e-06
887.101	2.00963e-06
895.779	2.84972e-06
904.457	4.70235e-06
913.135	9.16966e-06
921.813	2.20202e-05
930.491	5.87745e-05
939.169	0.000121016
947.848	0.000145925
956.526	0.000168354
965.204	0.0001463
973.882	8.52026e-05
982.56	2.31488e-05
991.238	9.07152e-06
999.917	6.24376e-06
1008.59	5.72115e-06
1017.27	5.71706e-06
1025.95	7.5382e-06
1034.63	1.21313e-05
1043.31	2.51775e-05
1051.99	5.47908e-05
1060.66	9.09701e-05
1069.34	0.000124244
1078.02	0.000126393
1086.7	0.000116972
1095.38	8.79508e-05
1104.05	6.33928e-05
1112.73	6.92844e-05
1121.41	9.08982e-05
1130.09	0.000115684
1138.77	0.000141105
1147.45	0.000169942
1156.12	0.000174692
1164.8	0.000150644
1173.48	0.000111776
1182.16	7.3864e-05
1190.84	3.75413e-05
1199.51	2.26484e-05
1208.19	1.98919e-05
1216.87	2.63366e-05
1225.55	4.61398e-05
1234.23	7.93795e-05
1242.9	9.74052e-05
1251.58	0.000121694
1260.26	9.72518e-05
1268.94	7.49568e-05
1277.62	3.93291e-05
1286.3	2.29664e-05
1294.97	1.65984e-05
1303.65	1.55878e-05
1312.33	1.74973e-05
1321.01	2.35229e-05
1329.69	3.41967e-05
1338.36	4.44915e-05
1347.04	5.49951e-05
1355.72	7.06786e-05
1364.4	9.29154e-05
1373.08	0.000146848
1381.76	0.000197807
1390.43	0.000178595
1399.11	0.000135237
1407.79	6.88452e-05
1416.47	3.63898e-05
1425.15	2.38631e-05
1433.82	2.2915e-05
1442.5	2.80174e-05
1451.18	3.49022e-05
1459.86	5.33173e-05
1468.54	3.68266e-05
1477.22	3.58924e-05
1485.89	2.81462e-05
1494.57	1.92426e-05
1503.25	9.5697e-06
1511.93	4.83846e-06
1520.61	3.04121e-06
1529.28	2.19984e-06
1537.96	1.79918e-06
1546.64	1.55723e-06
1555.32	1.37509e-06
1564	1.20623e-06
1572.67	1.13534e-06
1581.35	1.08998e-06
1590.03	1.04748e-06
1598.71	1.01384e-06
1607.39	9.59647e-07
1616.07	1.02298e-06
1624.74	1.00278e-06
1633.42	1.14467e-06
1642.1	1.26299e-06
1650.78	1.50767e-06
1659.46	1.61176e-06
1668.13	1.75736e-06
1676.81	1.71527e-06
1685.49	1.70765e-06
1694.17	1.58726e-06
1702.85	1.58862e-06
1711.53	1.69086e-06
1720.2	1.83579e-06
1728.88	1.91751e-06
1737.56	2.21581e-06
1746.24	2.9514e-06
1754.92	3.76609e-06
1763.59	3.90283e-06
1772.27	3.92566e-06
1780.95	3.34582e-06
1789.63	1.6698e-06
1798.31	7.03908e-07
1806.98	5.62206e-07
1815.66	6.1984e-07
1824.34	6.80737e-07
1833.02	7.39909e-07
1841.7	6.76371e-07
1850.38	6.30521e-07
1859.05	8.751e-07
1867.73	9.96868e-07
1876.41	1.42101e-06
1885.09	1.8705e-06
1893.77	2.27316e-06
1902.44	2.38861e-06
1911.12	1.94857e-06
1919.8	1.49029e-06
1928.48	6.30017e-07
1937.16	2.87789e-07
1945.84	2.58735e-07
1954.51	3.53358e-07
1963.19	4.27527e-07
1971.87	4.7978e-07
1980.55	5.71827e-07
1989.23	5.20648e-07
1997.9	5.3886e-07
2006.58	5.98965e-07
2015.26	6.89879e-07
2023.94	7.84651e-07
2032.62	8.06196e-07
2041.3	7.9119e-07
2049.97	7.41951e-07
2058.65	8.79573e-07
2067.33	1.09172e-06
2076.01	1.27854e-06
2084.69	1.33094e-06
2093.36	1.23735e-06
2102.04	1.07255e-06
2110.72	8.78688e-07
2119.4	8.33025e-07
2128.08	8.2861e-07
2136.75	1.0277e-06
2145.43	9.93035e-07
2154.11	1.29172e-06
2162.79	1.48028e-06
2171.47	1.43074e-06
2180.15	1.57137e-06
2188.82	1.66903e-06
2197.5	1.73539e-06
2206.18	1.42961e-06
2214.86	1.02167e-06
2223.54	5.72354e-07
2232.21	4.22438e-07
2240.89	4.2143e-07
2249.57	4.82169e-07
2258.25	5.59501e-07
2266.93	7.43349e-07
2275.61	9.60061e-07
2284.28	1.3407e-06
2292.96	1.74183e-06
2301.64	2.23146e-06
2310.32	2.5983e-06
2319	2.55872e-06
2327.67	2.33399e-06
2336.35	1.84144e-06
2345.03	1.22701e-06
2353.71	7.53825e-07
2362.39	4.86572e-07
2371.06	7.17462e-07
2379.74	1.04994e-06
2388.42	1.16418e-06
2397.1	1.20515e-06
2405.78	1.14971e-06
2414.46	1.23183e-06
2423.13	1.25584e-06
2431.81	1.34621e-06
2440.49	1.40424e-06
2449.17	1.4332e-06
2457.85	1.38857e-06
2466.52	1.29141e-06
2475.2	1.47018e-06
2483.88	1.71241e-06
2492.56	1.94223e-06
2501.24	2.09801e-06
2509.92	2.11747e-06
2518.59	1.91907e-06
2527.27	1.73995e-06
2535.95	1.72005e-06
2544.63	1.47856e-06
2553.31	1.38209e-06
2561.98	1.38807e-06
2570.66	1.54725e-06
2579.34	1.88892e-06
2588.02	2.33184e-06
2596.7	2.88565e-06
2605.38	3.96481e-06
2614.05	4.20753e-06
2622.73	5.17684e-06
2631.41	6.54708e-06
2640.09	8.47197e-06
2648.77	8.48097e-06
2657.44	8.84697e-06
2666.12	9.7312e-06
2674.8	7.26703e-06
2683.48	6.41844e-06
2692.16	5.32534e-06
2700.83	4.79732e-06
2709.51	5.07037e-06
2718.19	5.93063e-06
2726.87	6.47891e-06
2735.55	7.29977e-06
2744.23	7.22239e-06
2752.9	7.1771e-06
2761.58	7.99978e-06
2770.26	9.05728e-06
2778.94	9.48989e-06
2787.62	1.07588e-05
2796.29	1.20957e-05
2804.97	1.28504e-05
2813.65	1.4996e-05
2822.33	1.76854e-05
2831.01	2.02629e-05
2839.69	2.24515e-05
2848.36	3.2628e-05
2857.04	4.81355e-05
2865.72	7.65742e-05
2874.4	0.000100236
2883.08	0.000158975
2891.75	0.000153349
2900.43	0.00013266
2909.11	0.00012009
2917.79	0.000106741
2926.47	0.000107742
2935.14	0.000116125
2943.82	0.000137043
2952.5	0.000201968
2961.18	0.000270839
2969.86	0.000410332
2978.54	0.000467288
2987.21	0.00032093
2995.89	0.000253692
3004.57	0.000141069
3013.25	4.26706e-05
3021.93	1.13338e-05
3030.6	4.47939e-06
3039.28	2.72186e-06
3047.96	1.99001e-06
3056.64	1.62444e-06
3065.32	1.48431e-06
3074	1.4127e-06
3082.67	1.44767e-06
3091.35	1.46861e-06
3100.03	1.54709e-06
3108.71	1.6312e-06
3117.39	1.71292e-06
3126.06	1.81818e-06
3134.74	1.90513e-06
3143.42	2.08063e-06
3152.1	2.4055e-06
3160.78	2.98039e-06
3169.46	3.82944e-06
3178.13	4.67042e-06
3186.81	5.19348e-06
3195.49	5.16212e-06
3204.17	4.92965e-06
3212.85	4.59227e-06
3221.52	4.14886e-06
3230.2	3.58717e-06
3238.88	2.95293e-06
3247.56	2.24186e-06
3256.24	1.27731e-06
3264.91	7.87976e-07
3273.59	4.96362e-07
3282.27	3.63757e-07
3290.95	3.38183e-07
3299.63	4.04308e-07
3308.31	5.66652e-07
3316.98	9.42832e-07
3325.66	1.24907e-06
3334.34	1.71555e-06
3343.02	1.84748e-06
3351.7	1.79236e-06
3360.37	1.6441e-06
3369.05	1.44585e-06
3377.73	1.30687e-06
3386.41	1.39819e-06
3395.09	1.64916e-06
3403.77	1.85142e-06
3412.44	2.02973e-06
3421.12	2.41356e-06
3429.8	2.38924e-06
3438.48	2.5427e-06
3447.16	2.67684e-06
3455.83	2.54557e-06
3464.51	2.47055e-06
3473.19	2.09559e-06
3481.87	1.67579e-06
3490.55	1.2772e-06
3499.22	1.06714e-06
3507.9	8.62316e-07
3516.58	8.06722e-07
3525.26	8.97771e-07
3533.94	1.11764e-06
3542.62	1.26393e-06
3551.29	1.14286e-06
3559.97	1.03899e-06
3568.65	1.05372e-06
3577.33	1.01525e-06
3586.01	1.20539e-06
3594.68	1.61966e-06
3603.36	2.28018e-06
3612.04	4.68505e-06
3620.72	8.26289e-06
3629.4	1.39922e-05
3638.08	3.13423e-05
3646.75	4.74275e-05
3655.43	5.38594e-05
3664.11	4.85585e-05
3672.79	4.08202e-05
3681.47	1.9397e-05
3690.14	6.30128e-06
3698.82	2.81291e-06
3707.5	1.88067e-06
3716.18	1.5911e-06
3724.86	1.31033e-06
3733.54	1.19874e-06
3742.21	1.16416e-06
3750.89	1.09044e-06
3759.57	1.0296e-06
3768.25	1.1938e-06
3776.93	1.5169e-06
3785.6	2.00888e-06
3794.28	2.24517e-06
3802.96	2.46595e-06
3811.64	2.62938e-06
3820.32	2.76793e-06
3828.99	2.71282e-06
3837.67	2.59006e-06
3846.35	2.34246e-06
3855.03	2.36888e-06
3863.71	2.21481e-06
3872.39	2.20671e-06
3881.06	2.20961e-06
3889.74	2.15048e-06
3898.42	2.2906e-06
3907.1	1.88017e-06
3915.78	1.68779e-06
3924.45	1.4536e-06
3933.13	1.39155e-06
3941.81	1.15486e-06
3950.49	9.85184e-07
3959.17	8.9694e-07
3967.85	7.90599e-07
