Infrared Spectrum: Isopropanol or 2-Propanol
Formula: C 3 H 7 O H
CAS: 67-63-0
State: liquid
Instrument: Bruker Tensor 27 FTIR
Resolution: 0.48212986
Origin: Pacific Northwest National Laboratory Under IARPA Contract
1/cm	dispersion index
7797.49	1.36228
7778.93	1.36228
7760.37	1.36227
7741.81	1.36225
7723.24	1.36223
7704.68	1.36222
7686.12	1.36219
7667.56	1.36217
7649	1.36215
7630.44	1.36213
7611.88	1.36211
7593.31	1.36208
7574.75	1.36207
7556.19	1.36205
7537.63	1.36203
7519.07	1.362
7500.51	1.36198
7481.95	1.36195
7463.38	1.36192
7444.82	1.3619
7426.26	1.36188
7407.7	1.36185
7389.14	1.36182
7370.58	1.36179
7352.02	1.36176
7333.46	1.36173
7314.89	1.3617
7296.33	1.36167
7277.77	1.36164
7259.21	1.36161
7240.65	1.36158
7222.09	1.36155
7203.53	1.36152
7184.96	1.36149
7166.4	1.36145
7147.84	1.36142
7129.28	1.36138
7110.72	1.36134
7092.16	1.36131
7073.6	1.36127
7055.03	1.36124
7036.47	1.3612
7017.91	1.36116
6999.35	1.36112
6980.79	1.36107
6962.23	1.36102
6943.67	1.36097
6925.1	1.36091
6906.54	1.36085
6887.98	1.36077
6869.42	1.36069
6850.86	1.3607
6832.3	1.36069
6813.74	1.36063
6795.17	1.36055
6776.61	1.36052
6758.05	1.36047
6739.49	1.36039
6720.93	1.36035
6702.37	1.36027
6683.81	1.36018
6665.25	1.3601
6646.68	1.36004
6628.12	1.35996
6609.56	1.35988
6591	1.35979
6572.44	1.3597
6553.88	1.3596
6535.32	1.3595
6516.75	1.3594
6498.19	1.3593
6479.63	1.35919
6461.07	1.35908
6442.51	1.35895
6423.95	1.35882
6405.39	1.35869
6386.82	1.35855
6368.26	1.3584
6349.7	1.35824
6331.14	1.3581
6312.58	1.35797
6294.02	1.35787
6275.46	1.35775
6256.89	1.3576
6238.33	1.35743
6219.77	1.35723
6201.21	1.35701
6182.65	1.35677
6164.09	1.3565
6145.53	1.35619
6126.96	1.35579
6108.4	1.35543
6089.84	1.35541
6071.28	1.35503
6052.72	1.35526
6034.16	1.35505
6015.6	1.35466
5997.03	1.35415
5978.47	1.35357
5959.91	1.35329
5941.35	1.35278
5922.79	1.35244
5904.23	1.35201
5885.67	1.35125
5867.11	1.35034
5848.54	1.3495
5829.98	1.34849
5811.42	1.34737
5792.86	1.34611
5774.3	1.34446
5755.74	1.34242
5737.18	1.33983
5718.61	1.33603
5700.05	1.33186
5681.49	1.3259
5662.93	1.31913
5644.37	1.31275
5625.81	1.31027
5607.25	1.31426
5588.68	1.3279
5570.12	1.35238
5551.56	1.37447
5533	1.38871
5514.44	1.39485
5495.88	1.39344
5477.32	1.38785
5458.75	1.38054
5440.19	1.37226
5421.63	1.36147
5403.07	1.34026
5384.51	1.3624
5365.95	1.38573
5347.39	1.38838
5328.82	1.40262
5310.26	1.3951
5291.7	1.38928
5273.14	1.38497
5254.58	1.38296
5236.02	1.38009
5217.46	1.38069
5198.89	1.37836
5180.33	1.37799
5161.77	1.37619
5143.21	1.3756
5124.65	1.37448
5106.09	1.37299
5087.53	1.3728
5068.97	1.37138
5050.4	1.37035
5031.84	1.36957
5013.28	1.36849
4994.72	1.36811
4976.16	1.36721
4957.6	1.36608
4939.04	1.36527
4920.47	1.36472
4901.91	1.36351
4883.35	1.36252
4864.79	1.36126
4846.23	1.36121
4827.67	1.35988
4809.11	1.3583
4790.54	1.35613
4771.98	1.35639
4753.42	1.35444
4734.86	1.35205
4716.3	1.3493
4697.74	1.34562
4679.18	1.34043
4660.61	1.33239
4642.05	1.31614
4623.49	1.34438
4604.93	1.32962
4586.37	1.37398
4567.81	1.3664
4549.25	1.38433
4530.68	1.37746
4512.12	1.35582
4493.56	1.31786
4475	1.36923
4456.44	1.41442
4437.88	1.43269
4419.32	1.39363
4400.75	1.36639
4382.19	1.27634
4363.63	1.45546
4345.07	1.40233
4326.51	1.37806
4307.95	1.3501
4289.39	1.37961
4270.83	1.37078
4252.26	1.37216
4233.7	1.38302
4215.14	1.39947
4196.58	1.41134
4178.02	1.4142
4159.46	1.40953
4140.9	1.4233
4122.33	1.41079
4103.77	1.4427
4085.21	0.000107536
4066.65	0.000103876
4048.09	0.00010113
4029.53	9.92995e-05
4010.97	9.60965e-05
3992.4	9.28936e-05
3973.84	0.000102046
3955.28	0.000109824
3936.72	0.000113943
3918.16	0.000120349
3899.6	0.000141399
3881.04	0.00016794
3862.47	0.00016794
3843.91	0.000161991
3825.35	0.000157873
3806.79	0.000147805
3788.23	0.000141399
3769.67	0.000131332
3751.11	0.00016016
3732.54	0.000164737
3713.98	0.000146891
3695.42	0.000156499
3676.86	0.000169771
3658.3	0.000183041
3639.74	0.000200888
3621.18	0.000215988
3602.61	0.00023109
3584.05	0.000247106
3565.49	0.000262206
3546.93	0.000272731
3528.37	0.00027502
3509.81	0.000276849
3491.25	0.000277765
3472.69	0.000277765
3454.12	0.000280053
3435.56	0.000285545
3417	0.000296068
3398.44	0.000309797
3379.88	0.000322609
3361.32	0.000328559
3342.76	0.000321237
3324.19	0.000302475
3305.63	0.00028051
3287.07	0.000260376
3268.51	0.00023841
3249.95	0.000217818
3231.39	0.00020409
3212.83	0.000199973
3194.26	0.000224226
3175.7	0.000416419
3157.14	0.000572004
3138.58	0.000567427
3120.02	0.000444789
3101.46	0.000415045
3082.9	0.000517091
3064.33	0.000382556
3045.77	0.000318034
3027.21	0.000396742
3008.65	0.000279595
2990.09	0.000245732
2971.53	0.000269985
2952.97	0.00030522
2934.4	0.000287832
2915.84	0.00023109
2897.28	0.000186702
2878.72	0.000186244
2860.16	0.000185329
2841.6	0.000199515
2823.04	0.000228801
2804.47	0.000235665
2785.91	0.000218276
2767.35	0.000201345
2748.79	0.000203633
2730.23	0.000234751
2711.67	0.000267698
2693.11	0.000317118
2674.55	0.000375234
2655.98	0.000498786
2637.42	0.000709284
2618.86	0.000951813
2600.3	0.00110282
2581.74	0.0011074
2563.18	0.00103418
2544.62	0.000915205
2526.05	0.000800804
2507.49	0.000723012
2488.93	0.000700132
2470.37	0.000672676
2451.81	0.000672676
2433.25	0.000814533
2414.69	0.00197227
2396.12	0.00266325
2377.56	0.00323525
2359	0.00434265
2340.44	0.00293323
2321.88	0.0022331
2303.32	0.00163822
2284.76	0.00180753
2266.19	0.00304763
2247.63	0.00300645
2229.07	0.00339083
2210.51	0.00255342
2191.95	0.001565
2173.39	0.00118519
2154.83	0.00133162
2136.26	0.0013362
2117.7	0.00145518
2099.14	0.00163822
2080.58	0.00106621
2062.02	0.000992997
2043.46	0.00125383
2024.9	0.00194481
2006.33	0.007825
1987.77	0.0172974
1969.21	0.0384844
1950.65	0.0777924
1932.09	0.140942
1913.53	0.218276
1894.97	0.302018
1876.41	0.35693
1857.84	0.340914
1839.28	0.285544
1820.72	0.2137
1802.16	0.144602
1783.6	0.0928933
1765.04	0.0604035
1746.48	0.0419164
1727.91	0.0332677
1709.35	0.0385759
1690.79	0.299272
1672.23	0.14506
1653.67	0.151466
1635.11	0.142314
1616.55	0.0590307
1597.98	0.0388047
1579.42	0.0291035
1560.86	0.0316203
1542.3	0.0223768
1523.74	0.0261291
1505.18	0.0188075
1486.62	0.0185787
1468.05	0.0142314
1449.49	0.0118977
1430.93	0.00901477
1412.37	0.00828261
1393.81	0.007825
1375.25	0.00400402
1356.69	0.00475907
1338.12	0.00411385
1319.56	0.00321695
1301	0.00498787
1282.44	0.00267697
1263.88	0.00257173
1245.32	0.00352354
1226.76	0.00383929
1208.19	0.00238868
1189.63	0.00380268
1171.07	0.00388962
1152.51	0.00960965
1133.95	0.00521667
1115.39	0.00498787
1096.83	0.00604035
1078.27	0.0113028
1059.7	0.00796228
1041.14	0.00791652
1022.58	0.00883173
1004.02	0.0103418
985.458	0.0137281
966.897	0.0225598
948.335	0.0535395
929.774	0.194939
911.213	0.170686
892.651	0.293781
874.09	0.143687
855.528	0.292866
836.967	0.100215
818.406	0.0507939
799.844	0.0447993
781.283	0.686404
762.721	0.677252
744.16	0.157873
725.599	0.0277765
707.037	0.0212328
688.476	0.0535395
669.915	0.23292
651.353	0.0181211
632.792	0.0165194
614.23	0.0686404
595.669	0.0718436
577.108	0.118061
558.546	0.178007
539.985	0.233377
521.423	0.254427
502.862	0.222852
484.301	0.172059
465.739	0.131332
447.178	0.179838
428.616	0.120349
410.055	0.204548
