Infrared Spectrum: 2-Propanol
Formula: C H3 C H( O H) C H3
CAS: 67-63-0
State: gas
Melting point: -89.5 C
Boiling point: 82.4 C
Class: IUPAC A
Instrument: IFS66V (Bruker)
Instrument parameters: KBr Beam splitter; MCT Detector; Multipass cell
Sampling: 1 L/min Flow
Resolution: 0.1250
Temperature: 23 C
Pressure: 101.3 kPa
Origin: NIST, Anayltical Chemistry Division, 301-975-3108
cm-1	(micromol/mol)-1m-1 (base 10)
3975.02	6.31079e-07
3966.46	7.91973e-07
3957.9	8.50671e-07
3949.34	1.03796e-06
3940.79	1.01897e-06
3932.23	1.42495e-06
3923.67	1.38395e-06
3915.11	1.65894e-06
3906.56	1.95993e-06
3898	2.20593e-06
3889.44	2.06393e-06
3880.88	2.10093e-06
3872.33	2.24492e-06
3863.77	2.14493e-06
3855.21	2.24292e-06
3846.65	2.36292e-06
3838.09	2.48292e-06
3829.54	2.67591e-06
3820.98	2.8509e-06
3812.42	2.73891e-06
3803.86	2.38292e-06
3795.31	2.25792e-06
3786.75	2.12693e-06
3778.19	1.70694e-06
3769.63	1.19396e-06
3761.08	9.16469e-07
3752.52	9.73167e-07
3743.96	1.22896e-06
3735.4	1.05796e-06
3726.85	1.21696e-06
3718.29	1.43395e-06
3709.73	1.52895e-06
3701.17	2.00093e-06
3692.62	4.30386e-06
3684.06	1.35695e-05
3675.5	3.52988e-05
3666.94	4.65084e-05
3658.38	5.12783e-05
3649.83	4.92684e-05
3641.27	3.83887e-05
3632.71	1.64695e-05
3624.15	9.70567e-06
3615.6	5.8318e-06
3607.04	3.30589e-06
3598.48	1.59495e-06
3589.92	1.40995e-06
3581.37	1.07796e-06
3572.81	1.09196e-06
3564.25	9.45968e-07
3555.69	1.03397e-06
3547.14	9.93967e-07
3538.58	9.54968e-07
3530.02	1.01197e-06
3521.46	9.08269e-07
3512.91	7.05876e-07
3504.35	7.30275e-07
3495.79	8.8277e-07
3487.23	1.50895e-06
3478.67	1.71894e-06
3470.12	2.12193e-06
3461.56	2.50092e-06
3453	2.52292e-06
3444.44	2.34592e-06
3435.89	2.44792e-06
3427.33	2.45692e-06
3418.77	2.21393e-06
3410.21	2.06093e-06
3401.66	1.74194e-06
3393.1	1.62695e-06
3384.54	1.29696e-06
3375.98	1.21496e-06
3367.43	1.40095e-06
3358.87	1.66994e-06
3350.31	1.91494e-06
3341.75	1.89194e-06
3333.2	1.60395e-06
3324.64	9.64268e-07
3316.08	8.7587e-07
3307.52	5.6698e-07
3298.96	4.20585e-07
3290.41	2.8499e-07
3281.85	5.44481e-07
3273.29	4.02386e-07
3264.73	6.60378e-07
3256.18	1.18396e-06
3247.62	2.23893e-06
3239.06	2.79091e-06
3230.5	3.53388e-06
3221.95	3.96787e-06
3213.39	4.81184e-06
3204.83	4.67485e-06
3196.27	5.22182e-06
3187.72	5.35682e-06
3179.16	4.74784e-06
3170.6	3.94987e-06
3162.04	3.0429e-06
3153.48	2.40992e-06
3144.93	1.90394e-06
3136.37	1.76094e-06
3127.81	1.66094e-06
3119.25	1.65994e-06
3110.7	1.55195e-06
3102.14	1.47895e-06
3093.58	1.31396e-06
3085.02	1.23796e-06
3076.47	1.29396e-06
3067.91	1.20196e-06
3059.35	1.10796e-06
3050.79	1.43895e-06
3042.24	1.90594e-06
3033.68	2.66091e-06
3025.12	6.1008e-06
3016.56	2.27392e-05
3008.01	9.1407e-05
2999.45	0.000217993
2990.89	0.00029579
2982.33	0.000650278
2973.77	0.000394887
2965.22	0.000322789
2956.66	0.000235292
2948.1	0.000171494
2939.54	0.000125596
2930.99	0.000120996
2922.43	0.000100597
2913.87	0.000111096
2905.31	0.000127296
2896.76	0.000136195
2888.2	0.000163495
2879.64	0.000126196
2871.08	9.31469e-05
2862.53	6.57078e-05
2853.97	4.20686e-05
2845.41	2.65491e-05
2836.85	2.11793e-05
2828.3	1.90194e-05
2819.74	1.64894e-05
2811.18	1.40595e-05
2802.62	1.25196e-05
2794.06	1.15996e-05
2785.51	1.04097e-05
2776.95	9.21969e-06
2768.39	8.9357e-06
2759.83	7.67374e-06
2751.28	7.14276e-06
2742.72	7.20376e-06
2734.16	7.28976e-06
2725.6	6.26679e-06
2717.05	5.72681e-06
2708.49	4.92483e-06
2699.93	4.73684e-06
2691.37	5.26282e-06
2682.82	6.48879e-06
2674.26	7.28876e-06
2665.7	9.90267e-06
2657.14	8.74971e-06
2648.59	8.47672e-06
2640.03	8.54572e-06
2631.47	6.46178e-06
2622.91	5.18183e-06
2614.35	4.17786e-06
2605.8	4.02387e-06
2597.24	2.8819e-06
2588.68	2.43692e-06
2580.12	1.96593e-06
2571.57	1.48595e-06
2563.01	1.35795e-06
2554.45	1.28396e-06
2545.89	1.50895e-06
2537.34	1.56995e-06
2528.78	1.72994e-06
2520.22	1.79694e-06
2511.66	2.17793e-06
2503.11	2.07393e-06
2494.55	1.99993e-06
2485.99	1.75894e-06
2477.43	1.46295e-06
2468.87	1.26896e-06
2460.32	1.22696e-06
2451.76	1.41195e-06
2443.2	1.39795e-06
2434.64	1.34995e-06
2426.09	1.19696e-06
2417.53	1.32196e-06
2408.97	1.11596e-06
2400.41	1.18496e-06
2391.86	1.22396e-06
2383.3	1.03397e-06
2374.74	5.56381e-07
2366.18	7.92873e-07
2357.63	7.18676e-07
2349.07	1.00197e-06
2340.51	1.70394e-06
2331.95	2.41692e-06
2323.4	2.44592e-06
2314.84	2.65391e-06
2306.28	2.46292e-06
2297.72	1.99193e-06
2289.16	1.61495e-06
2280.61	1.20796e-06
2272.05	8.41871e-07
2263.49	6.95876e-07
2254.93	4.55284e-07
2246.38	4.59484e-07
2237.82	3.80586e-07
2229.26	3.83586e-07
2220.7	6.31178e-07
2212.15	1.18896e-06
2203.59	1.45995e-06
2195.03	1.76094e-06
2186.47	1.73794e-06
2177.92	1.40195e-06
2169.36	1.74994e-06
2160.8	1.26996e-06
2152.24	1.13396e-06
2143.69	8.9127e-07
2135.13	9.08169e-07
2126.57	6.67577e-07
2118.01	6.68977e-07
2109.45	8.48272e-07
2100.9	1.02097e-06
2092.34	1.24696e-06
2083.78	1.34495e-06
2075.22	1.17396e-06
2066.67	1.09996e-06
2058.11	9.09769e-07
2049.55	6.98876e-07
2040.99	7.89973e-07
2032.44	7.54675e-07
2023.88	7.25076e-07
2015.32	6.71477e-07
2006.76	6.19579e-07
1998.21	4.74184e-07
1989.65	5.39382e-07
1981.09	5.7058e-07
1972.53	4.50085e-07
1963.97	4.60784e-07
1955.42	4.02386e-07
1946.86	2.29292e-07
1938.3	2.65091e-07
1929.74	5.36882e-07
1921.19	1.33996e-06
1912.63	1.84694e-06
1904.07	2.34192e-06
1895.51	2.26592e-06
1886.96	1.93194e-06
1878.4	1.47795e-06
1869.84	1.08196e-06
1861.28	8.61971e-07
1852.73	5.8198e-07
1844.17	9.22169e-07
1835.61	7.61474e-07
1827.05	6.56178e-07
1818.5	5.8058e-07
1809.94	5.13282e-07
1801.38	6.16779e-07
1792.82	1.21896e-06
1784.26	2.9139e-06
1775.71	3.44888e-06
1767.15	3.93487e-06
1758.59	3.86987e-06
1750.03	3.34889e-06
1741.48	2.46292e-06
1732.92	2.15393e-06
1724.36	1.81794e-06
1715.8	1.72294e-06
1707.25	1.60095e-06
1698.69	1.47995e-06
1690.13	1.63194e-06
1681.57	1.55995e-06
1673.02	1.68994e-06
1664.46	1.69394e-06
1655.9	1.60295e-06
1647.34	1.47495e-06
1638.79	1.12396e-06
1630.23	1.11896e-06
1621.67	9.46968e-07
1613.11	9.11069e-07
1604.55	9.23968e-07
1596	1.03696e-06
1587.44	9.36068e-07
1578.88	1.02197e-06
1570.32	1.12196e-06
1561.77	1.12696e-06
1553.21	1.33595e-06
1544.65	1.50795e-06
1536.09	1.66094e-06
1527.54	2.11093e-06
1518.98	2.9349e-06
1510.42	5.12283e-06
1501.86	1.06196e-05
1493.31	2.09593e-05
1484.75	2.8669e-05
1476.19	3.95287e-05
1467.63	3.32489e-05
1459.08	5.05283e-05
1450.52	3.46588e-05
1441.96	2.72891e-05
1433.4	2.21393e-05
1424.84	2.32092e-05
1416.29	3.59888e-05
1407.73	6.81277e-05
1399.17	0.000136695
1390.61	0.000180194
1382.06	0.000204793
1373.5	0.000148095
1364.94	9.44068e-05
1356.38	7.21676e-05
1347.83	5.58282e-05
1339.27	4.51785e-05
1330.71	3.54388e-05
1322.15	2.44092e-05
1313.6	1.76494e-05
1305.04	1.51695e-05
1296.48	1.57195e-05
1287.92	2.05093e-05
1279.36	3.39289e-05
1270.81	6.65378e-05
1262.25	9.68168e-05
1253.69	0.000118096
1245.13	9.91067e-05
1236.58	8.8497e-05
1228.02	5.48381e-05
1219.46	2.9579e-05
1210.9	2.00493e-05
1202.35	1.99193e-05
1193.79	2.9499e-05
1185.23	5.8758e-05
1176.67	9.90067e-05
1168.12	0.000138495
1159.56	0.000166494
1151	0.000180794
1142.44	0.000150895
1133.89	0.000122796
1125.33	0.000102297
1116.77	7.78574e-05
1108.21	6.23079e-05
1099.65	7.11876e-05
1091.1	0.000107696
1082.54	0.000124196
1073.98	0.000131196
1065.42	0.000104897
1056.87	7.61075e-05
1048.31	3.98787e-05
1039.75	1.75494e-05
1031.19	9.1697e-06
1022.64	6.0498e-06
1014.08	5.01883e-06
1005.52	5.29482e-06
996.963	6.0188e-06
988.406	1.02097e-05
979.848	3.35589e-05
971.29	0.000114596
962.733	0.000142695
954.175	0.000168894
945.618	0.000141695
937.06	0.000108296
928.502	4.61185e-05
919.945	1.74594e-05
911.387	7.40776e-06
902.829	3.77887e-06
894.272	2.17493e-06
885.714	1.71994e-06
877.157	1.53995e-06
868.599	1.55695e-06
860.041	1.97693e-06
851.484	2.83291e-06
842.926	6.60678e-06
834.368	1.93494e-05
825.811	2.54192e-05
817.253	2.80891e-05
808.696	2.43892e-05
800.138	1.88494e-05
791.58	7.96373e-06
783.023	2.48692e-06
774.465	1.25796e-06
765.907	1.12696e-06
757.35	7.89773e-07
748.792	1.17396e-06
740.235	1.29896e-06
731.677	2.00193e-06
723.119	2.26292e-06
714.562	2.26292e-06
706.004	2.54291e-06
697.446	2.78991e-06
688.889	2.9079e-06
680.331	3.0499e-06
671.774	3.53688e-06
663.216	3.14189e-06
654.658	3.68188e-06
646.101	4.26786e-06
637.543	3.86887e-06
628.985	4.16686e-06
620.428	3.81987e-06
611.87	3.78087e-06
603.313	3.49388e-06
594.755	4.15386e-06
586.197	3.1189e-06
577.64	3.31789e-06
