Infrared Spectrum: Chloroform
Formula: C H Cl3
CAS: 67-66-3
State: gas
Melting point: -63.5 C
Boiling point: 61.7 C
Class: IUPAC A
Instrument: IFS66V (Bruker)
Instrument parameters: KBr Beam Splitter; MCT Detector; Multipass cell
Sampling: 1 L/min Flow
Resolution: 0.1250
Temperature: 23 C
Pressure: 101.3 Pa
Origin: NIST, Analytical Chemistry Division, 301-975-3108
cm-1	(micromol/mol)-1m-1 (base 10)
575.05	-1.88778e-06
583.608	-3.58668e-07
592.165	1.1316e-06
600.723	1.50165e-06
609.281	2.98464e-06
617.838	8.2557e-07
626.396	4.4942e-06
634.954	1.84394e-06
643.511	8.17509e-07
652.069	1.32571e-06
660.626	4.06922e-06
669.184	1.37553e-05
677.742	1.08742e-05
686.299	4.518e-05
694.857	5.43253e-06
703.415	5.57515e-07
711.972	2.12763e-07
720.53	4.12312e-07
729.088	2.27885e-06
737.645	1.47814e-05
746.203	6.78617e-05
754.761	0.000239948
763.318	0.0010118
771.876	0.00281375
780.434	0.00110762
788.991	0.000160702
797.549	3.37986e-05
806.106	3.70749e-06
814.664	9.21498e-07
823.222	-1.50896e-07
831.779	-5.80209e-08
840.337	1.00188e-06
848.895	3.77629e-06
857.452	4.98579e-06
866.01	1.00994e-06
874.568	4.97294e-07
883.125	4.26111e-07
891.683	-2.07277e-07
900.241	-1.05892e-07
908.798	9.38142e-07
917.356	3.84511e-06
925.914	4.24286e-06
934.471	5.81557e-06
943.029	3.58686e-06
951.586	1.8637e-06
960.144	-2.29624e-08
968.702	-1.75711e-07
977.259	1.41842e-07
985.817	-2.03806e-07
994.375	-4.68143e-07
1002.93	-6.28083e-08
1011.49	4.33725e-07
1020.05	2.03892e-06
1028.61	2.29808e-06
1037.16	2.01624e-06
1045.72	-8.50068e-08
1054.28	-2.76844e-09
1062.84	-4.53966e-07
1071.39	2.23054e-07
1079.95	1.3708e-07
1088.51	-2.33953e-08
1097.07	-4.84485e-07
1105.62	9.34504e-08
1114.18	1.04706e-07
1122.74	-3.93559e-07
1131.3	3.44866e-07
1139.85	-2.85335e-07
1148.41	-7.29457e-07
1156.97	-3.74904e-07
1165.53	-5.76574e-07
1174.09	-8.88339e-08
1182.64	7.07801e-07
1191.2	2.72929e-06
1199.76	1.06079e-05
1208.32	6.85383e-05
1216.87	0.000385113
1225.43	0.000201837
1233.99	3.26903e-05
1242.55	5.32606e-06
1251.1	7.84684e-07
1259.66	2.36631e-07
1268.22	-5.87048e-08
1276.78	-1.12211e-07
1285.33	-1.00723e-07
1293.89	-2.81985e-07
1302.45	-3.3301e-07
1311.01	-3.12492e-07
1319.57	1.09865e-09
1328.12	-2.17754e-07
1336.68	-4.60507e-07
1345.24	1.67001e-07
1353.8	-1.25534e-06
1362.35	-3.64583e-07
1370.91	1.35483e-07
1379.47	-2.26863e-07
1388.03	-7.66196e-07
1396.58	4.46043e-08
1405.14	-9.43719e-07
1413.7	-2.24415e-07
1422.26	5.10008e-07
1430.81	2.58265e-06
1439.37	7.81634e-06
1447.93	5.83602e-06
1456.49	-3.65904e-06
1465.05	-1.11883e-06
1473.6	-2.33972e-06
1482.16	1.14136e-06
1490.72	-1.11689e-06
1499.28	-1.34184e-07
1507.83	-1.49772e-07
1516.39	1.23291e-06
1524.95	2.69207e-06
1533.51	4.97633e-06
1542.06	1.21655e-06
1550.62	5.16014e-06
1559.18	3.89339e-06
1567.74	1.94373e-06
1576.29	-7.17092e-06
1584.85	-3.2644e-07
1593.41	-5.18583e-07
1601.97	6.03309e-08
1610.53	-5.01423e-07
1619.08	-2.7675e-07
1627.64	-1.01521e-06
1636.2	-6.78217e-07
1644.76	-7.11646e-08
1653.31	-1.29856e-05
1661.87	-6.90593e-07
1670.43	-2.58204e-07
1678.99	-4.21869e-07
1687.54	-2.09991e-07
1696.1	-4.58039e-06
1704.66	-8.21532e-07
1713.22	-2.05032e-07
1721.77	-4.3948e-07
1730.33	-6.38295e-07
1738.89	-2.86146e-07
1747.45	-5.02936e-07
1756.01	-5.21093e-08
1764.56	-1.61643e-07
1773.12	-8.55707e-07
1781.68	-2.57571e-07
1790.24	-1.77675e-07
1798.79	2.66985e-08
1807.35	1.62614e-09
1815.91	2.46821e-07
1824.47	4.09664e-07
1833.02	8.67053e-07
1841.58	1.61879e-07
1850.14	-1.50158e-07
1858.7	-2.44758e-07
1867.25	-2.26157e-07
1875.81	-2.28584e-07
1884.37	-1.84191e-07
1892.93	-1.46775e-07
1901.49	-5.49105e-08
1910.04	-4.63443e-07
1918.6	-1.01032e-07
1927.16	-2.10714e-07
1935.72	-3.60061e-07
1944.27	-2.88245e-07
1952.83	-1.4771e-07
1961.39	-8.05613e-08
1969.95	-1.52985e-07
1978.5	1.14055e-07
1987.06	-7.95136e-08
1995.62	-1.62927e-07
2004.18	-8.63492e-08
2012.73	8.93796e-08
2021.29	-1.98302e-07
2029.85	-2.02515e-07
2038.41	-1.3669e-07
2046.97	-4.08282e-07
2055.52	-3.75944e-07
2064.08	-8.07141e-08
2072.64	-2.85677e-07
2081.2	-1.76387e-07
2089.75	-6.95574e-07
2098.31	-3.08196e-07
2106.87	-8.30023e-08
2115.43	-5.07523e-07
2123.98	-6.90546e-08
2132.54	-7.65669e-08
2141.1	6.36269e-08
2149.66	-2.62114e-07
2158.21	-5.39046e-07
2166.77	3.76304e-08
2175.33	-1.761e-07
2183.89	-1.52795e-07
2192.45	1.45436e-07
2201	-1.14961e-07
2209.56	4.04302e-07
2218.12	-2.98308e-09
2226.68	-9.5102e-08
2235.23	1.90335e-08
2243.79	4.10937e-07
2252.35	-2.15356e-07
2260.91	-1.79465e-07
2269.46	1.16027e-07
2278.02	-1.20815e-07
2286.58	2.61001e-07
2295.14	9.82415e-08
2303.69	-1.92889e-07
2312.25	-8.24785e-08
2320.81	6.80542e-08
2329.37	1.55146e-07
2337.93	9.02141e-07
2346.48	8.12016e-08
2355.04	1.11025e-07
2363.6	3.59959e-07
2372.16	1.33755e-07
2380.71	5.41079e-07
2389.27	3.79971e-07
2397.83	2.20485e-06
2406.39	1.65872e-06
2414.94	1.99983e-06
2423.5	2.05164e-06
2432.06	7.05913e-07
2440.62	1.19531e-06
2449.17	4.90865e-07
2457.73	8.77389e-07
2466.29	3.15781e-07
2474.85	-7.71453e-08
2483.41	-2.03591e-07
2491.96	-1.10207e-07
2500.52	-1.75438e-07
2509.08	-4.39546e-07
2517.64	-3.01338e-07
2526.19	-3.61909e-07
2534.75	-9.09475e-10
2543.31	-4.08969e-07
2551.87	-3.74631e-07
2560.42	-5.8305e-07
2568.98	-3.64889e-07
2577.54	-3.28939e-07
2586.1	-2.06807e-07
2594.65	-5.70354e-07
2603.21	-7.1536e-07
2611.77	-5.52302e-07
2620.33	-6.45796e-07
2628.89	-3.62288e-07
2637.44	-5.94022e-07
2646	-4.65688e-07
2654.56	-3.59756e-07
2663.12	-4.61926e-07
2671.67	-2.66294e-08
2680.23	6.30775e-08
2688.79	-4.31462e-07
2697.35	-3.34749e-07
2705.9	-5.61524e-07
2714.46	-4.73665e-07
2723.02	-6.0391e-07
2731.58	-1.58543e-07
2740.13	-5.33072e-07
2748.69	-3.75326e-07
2757.25	-2.53471e-07
2765.81	-2.06444e-07
2774.37	-4.5684e-07
2782.92	-2.6804e-07
2791.48	-6.49765e-07
2800.04	-6.35439e-07
2808.6	-5.21129e-08
2817.15	-5.3985e-07
2825.71	1.42544e-07
2834.27	-3.20717e-07
2842.83	-2.94721e-07
2851.38	-1.88978e-07
2859.94	4.28617e-08
2868.5	-3.8573e-07
2877.06	6.47364e-08
2885.61	-5.98369e-07
2894.17	-7.867e-07
2902.73	-6.70894e-07
2911.29	-5.44921e-08
2919.85	-2.59943e-07
2928.4	-3.39569e-07
2936.96	-4.31233e-07
2945.52	-9.21564e-07
2954.08	-5.0402e-07
2962.63	1.58907e-07
2971.19	-5.03558e-07
2979.75	-7.76961e-07
2988.31	-5.99439e-07
2996.86	1.9919e-07
3005.42	-6.36825e-07
3013.98	1.34329e-07
3022.54	8.6944e-07
3031.09	-1.03094e-07
3039.65	8.88211e-07
3048.21	5.57555e-07
3056.77	-3.01764e-07
3065.33	-4.01726e-07
3073.88	-5.31275e-07
3082.44	-2.8472e-07
3091	-8.97725e-08
3099.56	5.34189e-08
3108.11	-1.76009e-07
3116.67	-2.75178e-07
3125.23	2.43594e-08
3133.79	-5.54387e-07
3142.34	-2.08619e-07
3150.9	-1.49176e-07
3159.46	4.23848e-07
3168.02	-2.78008e-08
3176.57	-5.32519e-07
3185.13	8.67639e-08
3193.69	-1.48743e-07
3202.25	-3.92784e-08
3210.81	1.19862e-07
3219.36	-2.94779e-08
3227.92	3.99238e-07
3236.48	-5.58309e-08
3245.04	2.94037e-07
3253.59	-8.52833e-08
3262.15	4.01169e-07
3270.71	1.21895e-07
3279.27	-1.69028e-07
3287.82	-5.46831e-07
3296.38	1.26464e-07
3304.94	3.26905e-07
3313.5	-1.46364e-07
3322.05	1.09694e-07
3330.61	-7.72726e-08
3339.17	-4.69173e-07
3347.73	5.42775e-08
3356.29	5.45041e-07
3364.84	-6.26294e-07
3373.4	-2.20471e-07
3381.96	-1.52404e-06
3390.52	3.08661e-07
3399.07	-2.07422e-07
3407.63	1.14812e-08
3416.19	-7.62049e-07
3424.75	-6.66671e-07
3433.3	3.94654e-07
3441.86	-5.10903e-07
3450.42	-8.81798e-07
3458.98	-4.8411e-07
3467.53	-5.00524e-07
3476.09	-4.02686e-07
3484.65	-5.65097e-07
3493.21	-6.45676e-07
3501.77	-3.74729e-07
3510.32	-3.54979e-07
3518.88	-6.05296e-07
3527.44	-1.24467e-07
3536	-6.78959e-07
3544.55	-4.06353e-07
3553.11	-3.78829e-07
3561.67	-4.86827e-07
3570.23	-5.5438e-07
3578.78	3.52876e-07
3587.34	9.4338e-08
3595.9	-3.87786e-07
3604.46	5.02176e-08
3613.01	-7.59703e-07
3621.57	-4.33936e-07
3630.13	-1.70519e-07
3638.69	-2.6146e-07
3647.25	-1.8409e-06
3655.8	-8.55114e-07
3664.36	-7.78209e-07
3672.92	-5.37718e-08
3681.48	3.85399e-08
3690.03	4.40368e-08
3698.59	1.75743e-07
3707.15	2.24859e-07
3715.71	-1.87024e-07
3724.26	-1.61079e-07
3732.82	-2.336e-07
3741.38	-1.42339e-06
3749.94	-1.18588e-06
3758.49	-4.20945e-07
3767.05	-7.79704e-07
3775.61	-1.34184e-07
3784.17	-2.08663e-07
3792.73	4.40222e-08
3801.28	-4.94383e-06
3809.84	-3.57758e-07
3818.4	-5.39933e-07
3826.96	-5.32971e-07
3835.51	-8.487e-07
3844.07	-7.53274e-07
3852.63	-6.95326e-07
3861.19	-9.36264e-07
3869.74	-1.14282e-06
3878.3	-7.43099e-07
3886.86	-4.31568e-07
3895.42	-5.27532e-08
3903.97	-9.92321e-07
3912.53	-8.04929e-07
3921.09	-3.86625e-07
3929.65	-1.04654e-06
3938.21	-6.33304e-07
3946.76	-4.70864e-07
3955.32	4.51147e-07
3963.88	-5.38773e-08
3972.44	-6.88069e-07
