Infrared Spectrum: 2-Propanol
Formula: C H3 C H( O H) C H3
CAS: 67-63-0
State: gas
Melting point: -89.5 C
Boiling point: 82.4 C
Class: IUPAC A
Instrument: IFS66V (Bruker)
Instrument parameters: KBr Beam splitter; MCT Detector; Multipass cell
Sampling: 1 L/min Flow
Resolution: 1.9290
Temperature: 23 C
Pressure: 101.3 kPa
Origin: NIST, Anayltical Chemistry Division, 301-975-3108
cm-1	(micromol/mol)-1m-1 (base 10)
574.687	2.62829e-06
583.365	2.92887e-06
592.043	3.20525e-06
600.721	3.53574e-06
609.4	3.86517e-06
618.078	4.00589e-06
626.756	4.29376e-06
635.434	4.10336e-06
644.112	4.1437e-06
652.79	3.8254e-06
661.469	3.50481e-06
670.147	3.22879e-06
678.825	3.00725e-06
687.503	2.86312e-06
696.181	2.63933e-06
704.859	2.70374e-06
713.537	2.40363e-06
722.216	2.20029e-06
730.894	1.88848e-06
739.572	1.49222e-06
748.25	1.21787e-06
756.928	1.06223e-06
765.606	1.05449e-06
774.285	1.23586e-06
782.963	2.48886e-06
791.641	7.95272e-06
800.319	1.92146e-05
808.997	2.47448e-05
817.675	2.76617e-05
826.353	2.57227e-05
835.032	1.80579e-05
843.71	5.98889e-06
852.388	2.63614e-06
861.066	1.73138e-06
869.744	1.55686e-06
878.422	1.48746e-06
887.101	1.75529e-06
895.779	2.51289e-06
904.457	4.27161e-06
913.135	8.5156e-06
921.813	2.11599e-05
930.491	5.83076e-05
939.169	0.000122566
947.848	0.000146943
956.526	0.00017116
965.204	0.00014855
973.882	8.54059e-05
982.56	2.18035e-05
991.238	8.19228e-06
999.917	5.64781e-06
1008.59	5.23016e-06
1017.27	5.21139e-06
1025.95	6.98758e-06
1034.63	1.14517e-05
1043.31	2.44288e-05
1051.99	5.45747e-05
1060.66	9.15255e-05
1069.34	0.000125676
1078.02	0.000127298
1086.7	0.000117806
1095.38	8.78163e-05
1104.05	6.24179e-05
1112.73	6.8592e-05
1121.41	9.07228e-05
1130.09	0.000116079
1138.77	0.000141828
1147.45	0.000171468
1156.12	0.000176377
1164.8	0.000151848
1173.48	0.000112071
1182.16	7.37003e-05
1190.84	3.65913e-05
1199.51	2.17311e-05
1208.19	1.90397e-05
1216.87	2.55526e-05
1225.55	4.56344e-05
1234.23	7.98412e-05
1242.9	9.79041e-05
1251.58	0.000123749
1260.26	9.78317e-05
1268.94	7.53634e-05
1277.62	3.87561e-05
1286.3	2.23434e-05
1294.97	1.60395e-05
1303.65	1.50923e-05
1312.33	1.70176e-05
1321.01	2.30939e-05
1329.69	3.39593e-05
1338.36	4.42727e-05
1347.04	5.47329e-05
1355.72	7.05024e-05
1364.4	9.25337e-05
1373.08	0.000148046
1381.76	0.000201213
1390.43	0.000180361
1399.11	0.000136351
1407.79	6.81779e-05
1416.47	3.55019e-05
1425.15	2.31219e-05
1433.82	2.23775e-05
1442.5	2.77238e-05
1451.18	3.4617e-05
1459.86	5.38886e-05
1468.54	3.55637e-05
1477.22	3.53632e-05
1485.89	2.81452e-05
1494.57	1.91602e-05
1503.25	9.30219e-06
1511.93	4.59698e-06
1520.61	2.85581e-06
1529.28	2.05761e-06
1537.96	1.67739e-06
1546.64	1.4596e-06
1555.32	1.28157e-06
1564	1.12805e-06
1572.67	1.05909e-06
1581.35	1.0273e-06
1590.03	9.86979e-07
1598.71	9.61983e-07
1607.39	9.04427e-07
1616.07	9.80946e-07
1624.74	9.52951e-07
1633.42	1.10818e-06
1642.1	1.21928e-06
1650.78	1.47523e-06
1659.46	1.57497e-06
1668.13	1.73501e-06
1676.81	1.68625e-06
1685.49	1.68816e-06
1694.17	1.55545e-06
1702.85	1.55672e-06
1711.53	1.66022e-06
1720.2	1.81392e-06
1728.88	1.87818e-06
1737.56	2.18241e-06
1746.24	2.93392e-06
1754.92	3.78329e-06
1763.59	3.90649e-06
1772.27	3.95726e-06
1780.95	3.37208e-06
1789.63	1.63601e-06
1798.31	6.53785e-07
1806.98	5.30087e-07
1815.66	5.89348e-07
1824.34	6.61827e-07
1833.02	7.17105e-07
1841.7	6.55995e-07
1850.38	5.98361e-07
1859.05	8.6217e-07
1867.73	9.68429e-07
1876.41	1.40928e-06
1885.09	1.85944e-06
1893.77	2.28116e-06
1902.44	2.39424e-06
1911.12	1.94122e-06
1919.8	1.48513e-06
1928.48	6.03391e-07
1937.16	2.54292e-07
1945.84	2.37368e-07
1954.51	3.31425e-07
1963.19	4.14941e-07
1971.87	4.58939e-07
1980.55	5.62749e-07
1989.23	4.98944e-07
1997.9	5.26483e-07
2006.58	5.79699e-07
2015.26	6.80907e-07
2023.94	7.68956e-07
2032.62	7.98331e-07
2041.3	7.73992e-07
2049.97	7.28289e-07
2058.65	8.60882e-07
2067.33	1.08557e-06
2076.01	1.26678e-06
2084.69	1.33059e-06
2093.36	1.22467e-06
2102.04	1.06558e-06
2110.72	8.55202e-07
2119.4	8.27019e-07
2128.08	8.08129e-07
2136.75	1.02761e-06
2145.43	9.70648e-07
2154.11	1.28842e-06
2162.79	1.4724e-06
2171.47	1.42399e-06
2180.15	1.55644e-06
2188.82	1.66967e-06
2197.5	1.73562e-06
2206.18	1.42631e-06
2214.86	1.00454e-06
2223.54	5.52212e-07
2232.21	3.93818e-07
2240.89	4.02733e-07
2249.57	4.56847e-07
2258.25	5.41608e-07
2266.93	7.18264e-07
2275.61	9.42786e-07
2284.28	1.32012e-06
2292.96	1.73507e-06
2301.64	2.2253e-06
2310.32	2.61558e-06
2319	2.55191e-06
2327.67	2.34348e-06
2336.35	1.8251e-06
2345.03	1.21002e-06
2353.71	7.18446e-07
2362.39	4.55652e-07
2371.06	6.84485e-07
2379.74	1.04094e-06
2388.42	1.14336e-06
2397.1	1.19507e-06
2405.78	1.12364e-06
2414.46	1.21971e-06
2423.13	1.22871e-06
2431.81	1.33279e-06
2440.49	1.37942e-06
2449.17	1.42385e-06
2457.85	1.36445e-06
2466.52	1.2703e-06
2475.2	1.44035e-06
2483.88	1.69886e-06
2492.56	1.92033e-06
2501.24	2.09172e-06
2509.92	2.09762e-06
2518.59	1.9038e-06
2527.27	1.70665e-06
2535.95	1.70568e-06
2544.63	1.43748e-06
2553.31	1.34959e-06
2561.98	1.33945e-06
2570.66	1.51023e-06
2579.34	1.83929e-06
2588.02	2.29572e-06
2596.7	2.83251e-06
2605.38	3.966e-06
2614.05	4.1511e-06
2622.73	5.1394e-06
2631.41	6.52022e-06
2640.09	8.54382e-06
2648.77	8.47104e-06
2657.44	8.85285e-06
2666.12	9.80778e-06
2674.8	7.21139e-06
2683.48	6.36465e-06
2692.16	5.25817e-06
2700.83	4.69749e-06
2709.51	4.98657e-06
2718.19	5.8516e-06
2726.87	6.41033e-06
2735.55	7.24052e-06
2744.23	7.15211e-06
2752.9	7.0526e-06
2761.58	7.90206e-06
2770.26	8.95757e-06
2778.94	9.36747e-06
2787.62	1.06167e-05
2796.29	1.19764e-05
2804.97	1.26358e-05
2813.65	1.48088e-05
2822.33	1.74697e-05
2831.01	2.00136e-05
2839.69	2.19341e-05
2848.36	3.21777e-05
2857.04	4.75437e-05
2865.72	7.65941e-05
2874.4	0.000100021
2883.08	0.000161741
2891.75	0.000154637
2900.43	0.000132964
2909.11	0.000120065
2917.79	0.000106282
2926.47	0.000106981
2935.14	0.000115026
2943.82	0.000135466
2952.5	0.000202009
2961.18	0.000271206
2969.86	0.000417906
2978.54	0.000474672
2987.21	0.000319716
2995.89	0.000255718
3004.57	0.000140583
3013.25	4.0405e-05
3021.93	9.59802e-06
3030.6	3.47072e-06
3039.28	1.98816e-06
3047.96	1.49955e-06
3056.64	1.20045e-06
3065.32	1.18292e-06
3074	1.12618e-06
3082.67	1.24089e-06
3091.35	1.25992e-06
3100.03	1.39472e-06
3108.71	1.473e-06
3117.39	1.59445e-06
3126.06	1.68903e-06
3134.74	1.80619e-06
3143.42	1.96909e-06
3152.1	2.32049e-06
3160.78	2.88818e-06
3169.46	3.77808e-06
3178.13	4.62321e-06
3186.81	5.1754e-06
3195.49	5.11655e-06
3204.17	4.89598e-06
3212.85	4.56171e-06
3221.52	4.11817e-06
3230.2	3.5444e-06
3238.88	2.91582e-06
3247.56	2.20411e-06
3256.24	1.22755e-06
3264.91	7.31431e-07
3273.59	4.48828e-07
3282.27	3.07853e-07
3290.95	2.96148e-07
3299.63	3.54233e-07
3308.31	5.26662e-07
3316.98	9.08015e-07
3325.66	1.21951e-06
3334.34	1.69754e-06
3343.02	1.83475e-06
3351.7	1.77213e-06
3360.37	1.62533e-06
3369.05	1.41611e-06
3377.73	1.27702e-06
3386.41	1.36371e-06
3395.09	1.63035e-06
3403.77	1.82869e-06
3412.44	2.01357e-06
3421.12	2.40167e-06
3429.8	2.37212e-06
3438.48	2.52487e-06
3447.16	2.66293e-06
3455.83	2.52079e-06
3464.51	2.46691e-06
3473.19	2.07673e-06
3481.87	1.65606e-06
3490.55	1.24284e-06
3499.22	1.04553e-06
3507.9	8.25593e-07
3516.58	7.78104e-07
3525.26	8.58828e-07
3533.94	1.09659e-06
3542.62	1.23718e-06
3551.29	1.11383e-06
3559.97	9.87133e-07
3568.65	1.01512e-06
3577.33	9.41871e-07
3586.01	1.13793e-06
3594.68	1.51712e-06
3603.36	2.14955e-06
3612.04	4.51776e-06
3620.72	8.13406e-06
3629.4	1.36008e-05
3638.08	3.19178e-05
3646.75	4.81078e-05
3655.43	5.46668e-05
3664.11	4.90018e-05
3672.79	4.13618e-05
3681.47	1.926e-05
3690.14	5.97125e-06
3698.82	2.61385e-06
3707.5	1.7395e-06
3716.18	1.50854e-06
3724.86	1.23463e-06
3733.54	1.14739e-06
3742.21	1.1094e-06
3750.89	1.05718e-06
3759.57	9.8005e-07
3768.25	1.16138e-06
3776.93	1.4812e-06
3785.6	1.99996e-06
3794.28	2.22099e-06
3802.96	2.45875e-06
3811.64	2.61955e-06
3820.32	2.77488e-06
3828.99	2.70962e-06
3837.67	2.58831e-06
3846.35	2.32398e-06
3855.03	2.36343e-06
3863.71	2.19042e-06
3872.39	2.18934e-06
3881.06	2.19765e-06
3889.74	2.13875e-06
3898.42	2.29104e-06
3907.1	1.86846e-06
3915.78	1.67471e-06
3924.45	1.44397e-06
3933.13	1.38542e-06
3941.81	1.14394e-06
3950.49	9.64927e-07
3959.17	8.88138e-07
3967.85	7.74819e-07
