Infrared Spectrum: Chloroform
Formula: C H Cl3
CAS: 67-66-3
State: gas
Melting point: -63.5 C
Boiling point: 61.7 C
Class: IUPAC A
Instrument: IFS66V (Bruker)
Instrument parameters: KBr Beam Splitter; MCT Detector; Multipass cell
Sampling: 1 L/min Flow
Resolution: 0.9640
Temperature: 23 C
Pressure: 101.3 Pa
Origin: NIST, Analytical Chemistry Division, 301-975-3108
cm-1	(micromol/mol)-1m-1 (base 10)
575.17	-2.80374e-06
583.848	-6.8474e-07
592.526	-3.69156e-07
601.205	2.00034e-07
609.883	1.20632e-06
618.561	1.29599e-06
627.239	5.29272e-06
635.917	1.94777e-06
644.595	6.08206e-07
653.274	9.82746e-07
661.952	3.79395e-06
670.63	2.35794e-05
679.308	1.85381e-05
687.986	3.87618e-05
696.664	3.32741e-06
705.343	-4.84896e-08
714.021	2.97657e-07
722.699	8.4683e-07
731.377	4.56373e-06
740.055	2.31938e-05
748.734	9.82218e-05
757.412	0.0003644
766.09	0.00161474
774.768	0.00258943
783.446	0.000554075
792.124	8.66516e-05
800.803	1.50416e-05
809.481	1.85754e-06
818.159	9.41452e-08
826.837	4.06848e-07
835.515	8.91609e-07
844.194	2.19204e-06
852.872	4.66376e-06
861.55	2.21213e-06
870.228	4.82487e-07
878.906	4.51132e-07
887.584	5.08578e-08
896.263	-6.07857e-08
904.941	6.55779e-07
913.619	2.46916e-06
922.297	4.4069e-06
930.975	7.24098e-06
939.653	2.95005e-06
948.332	2.39746e-06
957.01	5.00466e-07
965.688	1.09104e-07
974.366	-3.13078e-08
983.044	-1.61668e-07
991.723	-1.16864e-07
1000.4	-1.08017e-07
1009.08	1.20767e-07
1017.76	1.26527e-06
1026.44	2.03951e-06
1035.11	2.00425e-06
1043.79	5.18164e-07
1052.47	-1.34224e-07
1061.15	-1.60431e-07
1069.83	8.81718e-08
1078.5	-1.54283e-07
1087.18	-3.02666e-07
1095.86	-2.21217e-07
1104.54	-1.98884e-07
1113.22	-2.03944e-07
1121.9	-2.68164e-07
1130.57	-1.76507e-07
1139.25	-3.28193e-07
1147.93	-1.6798e-07
1156.61	-4.11723e-07
1165.29	-3.13911e-07
1173.96	-8.22675e-08
1182.64	6.34744e-07
1191.32	2.74644e-06
1200	1.12772e-05
1208.68	7.53869e-05
1217.36	0.000426367
1226.03	0.000178191
1234.71	2.84355e-05
1243.39	4.48757e-06
1252.07	5.19972e-07
1260.75	-9.25154e-08
1269.42	-2.18554e-07
1278.1	-3.76821e-07
1286.78	-2.55148e-07
1295.46	-2.72035e-07
1304.14	-3.3907e-07
1312.82	-1.55171e-07
1321.49	-2.07924e-07
1330.17	-4.94136e-08
1338.85	-2.80377e-07
1347.53	-1.82175e-07
1356.21	-1.87305e-07
1364.88	-4.65295e-07
1373.56	-8.27771e-07
1382.24	-1.46462e-07
1390.92	-1.53865e-07
1399.6	-5.38096e-07
1408.28	-3.40617e-08
1416.95	3.80961e-08
1425.63	1.27381e-06
1434.31	4.38406e-06
1442.99	8.9043e-06
1451.67	4.13178e-06
1460.34	3.54462e-07
1469.02	1.21706e-06
1477.7	1.42249e-06
1486.38	1.21688e-06
1495.06	1.80425e-07
1503.73	2.16768e-07
1512.41	1.08264e-07
1521.09	-7.47992e-07
1529.77	4.53788e-06
1538.45	4.07192e-06
1547.13	7.38056e-06
1555.8	4.54482e-06
1564.48	2.50634e-06
1573.16	3.17218e-07
1581.84	-1.11884e-07
1590.52	-1.9915e-07
1599.19	-2.79507e-07
1607.87	-2.2794e-07
1616.55	-4.21046e-06
1625.23	-2.39141e-07
1633.91	-3.94672e-07
1642.59	-3.40315e-07
1651.26	-5.90293e-07
1659.94	-2.48778e-07
1668.62	-8.62051e-07
1677.3	-2.09499e-07
1685.98	-4.10923e-07
1694.65	-4.63014e-07
1703.33	-3.12208e-07
1712.01	-2.64421e-07
1720.69	-2.66029e-07
1729.37	-4.5453e-07
1738.05	-2.00936e-07
1746.72	-4.56145e-07
1755.4	-3.01033e-07
1764.08	-2.21017e-07
1772.76	-2.76753e-06
1781.44	-1.85016e-07
1790.11	-1.31692e-07
1798.79	-6.61297e-08
1807.47	7.04625e-08
1816.15	3.64005e-07
1824.83	-1.22004e-07
1833.51	8.09335e-07
1842.18	1.55928e-07
1850.86	-1.72546e-08
1859.54	-1.58289e-07
1868.22	-4.63861e-07
1876.9	-2.56508e-07
1885.57	-2.95056e-07
1894.25	-5.31279e-08
1902.93	-2.40349e-07
1911.61	-2.9499e-07
1920.29	-2.95194e-07
1928.97	-2.38413e-07
1937.64	-2.62929e-07
1946.32	-3.32559e-07
1955	-2.62776e-07
1963.68	-1.5142e-07
1972.36	-4.1734e-08
1981.03	-2.44139e-08
1989.71	-6.57769e-08
1998.39	-8.93505e-08
2007.07	-1.55582e-07
2015.75	-2.40905e-07
2024.43	-2.56519e-07
2033.1	-2.85273e-07
2041.78	-3.00873e-07
2050.46	-2.24066e-07
2059.14	-2.54933e-07
2067.82	-3.62288e-07
2076.49	-3.32511e-07
2085.17	-3.05889e-07
2093.85	-3.04489e-07
2102.53	-3.17589e-07
2111.21	-4.86242e-07
2119.89	-3.0152e-07
2128.56	-1.54225e-07
2137.24	-2.02871e-07
2145.92	-2.62333e-07
2154.6	-3.65187e-07
2163.28	-1.45236e-07
2171.95	-2.57567e-07
2180.63	-1.74365e-07
2189.31	-9.23554e-08
2197.99	-9.09621e-08
2206.67	1.58445e-07
2215.35	1.9573e-07
2224.02	-3.28066e-08
2232.7	1.114e-07
2241.38	1.3629e-07
2250.06	-1.38415e-07
2258.74	-1.66383e-07
2267.41	-2.62584e-08
2276.09	5.18837e-08
2284.77	1.19181e-07
2293.45	2.79165e-07
2302.13	-3.33705e-08
2310.81	1.40969e-07
2319.48	6.21273e-07
2328.16	9.42813e-07
2336.84	5.30671e-07
2345.52	6.85657e-07
2354.2	1.7309e-06
2362.87	2.80173e-06
2371.55	1.14608e-06
2380.23	1.93886e-07
2388.91	4.47043e-07
2397.59	2.215e-06
2406.27	1.55567e-06
2414.94	1.83723e-06
2423.62	2.23118e-06
2432.3	5.88969e-07
2440.98	1.27783e-06
2449.66	6.59049e-07
2458.33	7.5573e-07
2467.01	2.47283e-07
2475.69	-1.22015e-07
2484.37	-3.00967e-07
2493.05	-2.31636e-07
2501.73	-1.28778e-07
2510.4	-2.9742e-07
2519.08	-2.49258e-07
2527.76	-2.93557e-07
2536.44	-3.40991e-07
2545.12	-4.03228e-07
2553.79	-3.84446e-07
2562.47	-2.53558e-07
2571.15	-4.11672e-07
2579.83	-3.23548e-07
2588.51	-2.80235e-07
2597.19	-2.86852e-07
2605.86	-3.46266e-07
2614.54	-1.84773e-07
2623.22	-3.61986e-07
2631.9	-2.82872e-07
2640.58	-2.50357e-07
2649.25	-3.77792e-07
2657.93	-3.39176e-07
2666.61	-2.7874e-07
2675.29	-3.1971e-07
2683.97	-2.20551e-07
2692.65	-3.53418e-07
2701.32	-2.67746e-07
2710	-7.93135e-08
2718.68	-3.31129e-07
2727.36	-3.22613e-07
2736.04	-2.23469e-07
2744.71	-3.29248e-07
2753.39	-1.99513e-07
2762.07	-3.61462e-07
2770.75	-4.37294e-07
2779.43	-3.0379e-07
2788.11	-3.53386e-07
2796.78	-3.53684e-07
2805.46	-1.6722e-07
2814.14	-5.3575e-07
2822.82	-3.14173e-07
2831.5	-1.04018e-07
2840.17	-2.18314e-07
2848.85	-3.12728e-07
2857.53	-4.14106e-07
2866.21	-4.27966e-07
2874.89	-5.02205e-07
2883.57	-2.94652e-07
2892.24	-3.86905e-07
2900.92	-2.41899e-07
2909.6	-3.78054e-07
2918.28	-3.76901e-07
2926.96	-3.59759e-07
2935.63	-5.11263e-07
2944.31	-2.81264e-07
2952.99	-4.16598e-07
2961.67	-7.65963e-07
2970.35	-7.3264e-07
2979.03	-5.46958e-07
2987.7	-2.61158e-07
2996.38	-4.78075e-07
3005.06	-2.79049e-07
3013.74	-5.44848e-08
3022.42	6.22852e-07
3031.09	-1.47571e-07
3039.77	7.29257e-07
3048.45	6.94279e-07
3057.13	-3.27378e-07
3065.81	-3.0156e-07
3074.49	-1.97614e-07
3083.16	-2.44631e-07
3091.84	-3.12561e-07
3100.52	-7.35911e-08
3109.2	-7.57083e-08
3117.88	-6.75922e-08
3126.55	6.18698e-08
3135.23	-1.40558e-07
3143.91	-3.56041e-08
3152.59	-5.56235e-09
3161.27	2.31916e-07
3169.95	3.65973e-09
3178.62	1.08286e-07
3187.3	1.22634e-07
3195.98	-2.06269e-09
3204.66	2.58855e-07
3213.34	5.7668e-08
3222.01	2.95947e-07
3230.69	3.35913e-07
3239.37	1.26715e-07
3248.05	2.60183e-07
3256.73	1.19512e-07
3265.41	5.81882e-08
3274.08	8.2795e-08
3282.76	7.49589e-08
3291.44	-1.08282e-07
3300.12	-5.46776e-08
3308.8	2.81355e-08
3317.47	-2.42106e-07
3326.15	-2.37126e-07
3334.83	-1.82939e-07
3343.51	-8.21074e-09
3352.19	-1.10388e-07
3360.86	-2.27012e-07
3369.54	-7.58029e-08
3378.22	-2.79882e-07
3386.9	-1.20902e-07
3395.58	-2.17339e-07
3404.26	-1.82568e-07
3412.93	2.45213e-07
3421.61	-2.62183e-07
3430.29	-4.81229e-07
3438.97	-4.23884e-07
3447.65	-4.90778e-07
3456.32	-2.23473e-07
3465	-4.21021e-07
3473.68	-8.03176e-08
3482.36	-2.54467e-07
3491.04	-4.79148e-07
3499.72	-4.78686e-07
3508.39	-5.02096e-07
3517.07	-3.75497e-07
3525.75	-5.30369e-07
3534.43	-2.52005e-07
3543.11	-5.44608e-07
3551.78	-5.5868e-07
3560.46	-2.7206e-07
3569.14	-3.61138e-07
3577.82	-5.16018e-07
3586.5	-1.17857e-06
3595.18	-5.43262e-07
3603.85	-3.86367e-07
3612.53	-1.32841e-06
3621.21	-5.57636e-07
3629.89	-2.19661e-06
3638.57	-4.38065e-07
3647.24	-1.73158e-06
3655.92	-1.57735e-06
3664.6	-5.54176e-07
3673.28	-5.84254e-07
3681.96	-3.2481e-07
3690.64	-5.45998e-07
3699.31	4.00933e-08
3707.99	-3.6498e-07
3716.67	2.05458e-07
3725.35	-5.47726e-07
3734.03	-7.36871e-07
3742.7	-6.47863e-07
3751.38	-1.35179e-06
3760.06	-1.37986e-06
3768.74	-5.0808e-07
3777.42	-4.43398e-07
3786.1	-4.78719e-07
3794.77	-5.29937e-07
3803.45	-3.03776e-07
3812.13	-1.99368e-07
3820.81	-2.04322e-06
3829.49	-4.35635e-07
3838.16	-3.65648e-06
3846.84	-5.76658e-07
3855.52	-6.22943e-07
3864.2	-8.16719e-07
3872.88	-6.65987e-07
3881.56	-7.35733e-07
3890.23	-5.55169e-07
3898.91	-1.24479e-06
3907.59	-5.15378e-07
3916.27	-6.65532e-07
3924.95	-6.62363e-07
3933.62	-4.68925e-07
3942.3	-7.59099e-07
3950.98	-5.34913e-07
3959.66	-6.68424e-07
3968.34	-5.12446e-07
