Infrared Spectrum: Chloroform
Formula: C H Cl3
CAS: 67-66-3
State: gas
Melting point: -63.5 C
Boiling point: 61.7 C
Class: IUPAC A
Instrument: IFS66V (Bruker)
Instrument parameters: KBr Beam Splitter; MCT Detector; Multipass cell
Sampling: 1 L/min Flow
Resolution: 0.9640
Temperature: 23 C
Pressure: 101.3 Pa
Origin: NIST, Analytical Chemistry Division, 301-975-3108
cm-1	(micromol/mol)-1m-1 (base 10)
575.17	-3.96869e-06
583.848	-7.05764e-07
592.526	-4.50678e-07
601.205	-8.45812e-08
609.883	6.33955e-07
618.561	1.44428e-06
627.239	6.11054e-06
635.917	2.03501e-06
644.595	9.66972e-07
653.274	9.61915e-07
661.952	3.64098e-06
670.63	2.33265e-05
679.308	1.81645e-05
687.986	3.90077e-05
696.664	3.62031e-06
705.343	2.21876e-08
714.021	6.05627e-07
722.699	1.00219e-06
731.377	4.98137e-06
740.055	2.34745e-05
748.734	9.88762e-05
757.412	0.000364994
766.09	0.00161825
774.768	0.00255721
783.446	0.000551513
792.124	8.59023e-05
800.803	1.47659e-05
809.481	1.76474e-06
818.159	-1.94428e-07
826.837	3.73772e-07
835.515	5.83796e-07
844.194	2.20777e-06
852.872	4.37624e-06
861.55	2.06204e-06
870.228	3.73812e-07
878.906	3.81856e-07
887.584	2.64912e-08
896.263	-1.68908e-08
904.941	7.14731e-07
913.619	2.20453e-06
922.297	4.351e-06
930.975	7.45701e-06
939.653	2.80907e-06
948.332	2.17469e-06
957.01	4.57568e-07
965.688	1.01406e-07
974.366	-7.0568e-08
983.044	-1.73622e-07
991.723	-5.7206e-08
1000.4	-1.35905e-07
1009.08	1.29233e-07
1017.76	1.25431e-06
1026.44	2.01109e-06
1035.11	2.03714e-06
1043.79	4.94922e-07
1052.47	-2.8452e-07
1061.15	-1.37414e-07
1069.83	3.29983e-07
1078.5	-1.07078e-07
1087.18	-2.10067e-07
1095.86	-1.79752e-07
1104.54	-1.16333e-07
1113.22	-1.85398e-07
1121.9	-3.62586e-07
1130.57	-1.49452e-07
1139.25	-3.29252e-07
1147.93	-1.15227e-07
1156.61	-4.96341e-07
1165.29	-4.41095e-07
1173.96	1.41842e-08
1182.64	7.32931e-07
1191.32	2.84543e-06
1200	1.15055e-05
1208.68	7.55492e-05
1217.36	0.000427473
1226.03	0.000176984
1234.71	2.80586e-05
1243.39	4.2519e-06
1252.07	3.31449e-07
1260.75	-1.89345e-07
1269.42	-2.934e-07
1278.1	-5.06159e-07
1286.78	-4.15819e-07
1295.46	-4.0189e-07
1304.14	-4.33383e-07
1312.82	-1.99495e-07
1321.49	-2.2627e-07
1330.17	-9.54221e-09
1338.85	-3.87604e-07
1347.53	-2.23796e-07
1356.21	-4.35111e-07
1364.88	-5.52215e-07
1373.56	-1.01269e-06
1382.24	-1.74201e-07
1390.92	-1.09286e-07
1399.6	-2.95816e-07
1408.28	-9.61788e-08
1416.95	2.63668e-07
1425.63	1.21284e-06
1434.31	4.355e-06
1442.99	8.75146e-06
1451.67	4.26005e-06
1460.34	3.0367e-07
1469.02	1.02161e-06
1477.7	1.23e-06
1486.38	1.32387e-06
1495.06	-1.95861e-07
1503.73	2.7086e-07
1512.41	-4.09406e-07
1521.09	-2.16744e-06
1529.77	4.55389e-06
1538.45	5.97364e-06
1547.13	7.18319e-06
1555.8	4.96469e-06
1564.48	2.2267e-06
1573.16	-1.2383e-07
1581.84	-1.53185e-07
1590.52	-2.16069e-07
1599.19	-3.30736e-07
1607.87	-3.5077e-07
1616.55	-6.26315e-06
1625.23	-7.91534e-08
1633.91	-1.56673e-07
1642.59	-5.20762e-07
1651.26	-1.30706e-06
1659.94	-1.27599e-07
1668.62	-1.69839e-07
1677.3	-2.66742e-07
1685.98	-1.1959e-06
1694.65	-1.09173e-06
1703.33	-2.65643e-07
1712.01	-2.87081e-07
1720.69	-3.36408e-07
1729.37	-3.99292e-07
1738.05	1.40183e-07
1746.72	-3.82602e-07
1755.4	-4.12087e-07
1764.08	-3.55266e-07
1772.76	-4.42522e-06
1781.44	7.62686e-08
1790.11	8.84228e-08
1798.79	1.46098e-08
1807.47	-5.09342e-08
1816.15	2.23705e-07
1824.83	-5.07196e-08
1833.51	7.96977e-07
1842.18	5.09852e-08
1850.86	3.60516e-09
1859.54	-1.87414e-07
1868.22	-5.21078e-07
1876.9	-2.14425e-07
1885.57	-4.08813e-07
1894.25	-5.54998e-08
1902.93	-2.83178e-07
1911.61	-2.62173e-07
1920.29	-2.71307e-07
1928.97	-2.72843e-07
1937.64	-2.26965e-07
1946.32	-3.5682e-07
1955	-3.21587e-07
1963.68	-1.60311e-07
1972.36	-1.39441e-08
1981.03	-1.5392e-08
1989.71	-1.14346e-07
1998.39	-6.18334e-08
2007.07	-9.86126e-08
2015.75	-2.37158e-07
2024.43	-3.10739e-07
2033.1	-3.08225e-07
2041.78	-3.2887e-07
2050.46	-2.28333e-07
2059.14	-1.81186e-07
2067.82	-4.33954e-07
2076.49	-4.65491e-07
2085.17	-3.22489e-07
2093.85	-2.56847e-07
2102.53	-3.02408e-07
2111.21	-5.4857e-07
2119.89	-4.51096e-07
2128.56	-7.9972e-08
2137.24	-1.54247e-07
2145.92	-2.47836e-07
2154.6	-4.66593e-07
2163.28	-2.29726e-07
2171.95	-2.00379e-07
2180.63	-1.18235e-07
2189.31	-1.74437e-08
2197.99	-1.92987e-07
2206.67	2.68917e-07
2215.35	2.36682e-07
2224.02	4.63141e-08
2232.7	1.04029e-07
2241.38	9.13695e-08
2250.06	-2.33138e-07
2258.74	-1.88458e-07
2267.41	1.27363e-08
2276.09	8.97834e-08
2284.77	6.67518e-08
2293.45	2.68059e-07
2302.13	-1.85318e-07
2310.81	-2.72697e-08
2319.48	5.49261e-07
2328.16	6.48441e-07
2336.84	-7.105e-07
2345.52	6.82208e-07
2354.2	2.58568e-06
2362.87	4.97452e-06
2371.55	2.22007e-06
2380.23	3.63863e-08
2388.91	4.98581e-07
2397.59	2.22396e-06
2406.27	1.63828e-06
2414.94	1.68607e-06
2423.62	2.16911e-06
2432.3	5.43131e-07
2440.98	1.30161e-06
2449.66	6.39747e-07
2458.33	7.01082e-07
2467.01	1.5297e-07
2475.69	-1.45119e-07
2484.37	-4.00526e-07
2493.05	-2.70001e-07
2501.73	-1.38262e-07
2510.4	-2.78729e-07
2519.08	-1.88811e-07
2527.76	-2.44638e-07
2536.44	-3.67897e-07
2545.12	-4.78835e-07
2553.79	-3.8844e-07
2562.47	-2.13974e-07
2571.15	-3.98867e-07
2579.83	-2.58251e-07
2588.51	-1.61235e-07
2597.19	-2.16622e-07
2605.86	-3.20586e-07
2614.54	-7.10627e-08
2623.22	-4.09631e-07
2631.9	-2.62198e-07
2640.58	-3.06715e-07
2649.25	-4.41012e-07
2657.93	-2.02573e-07
2666.61	-2.95736e-07
2675.29	-3.36364e-07
2683.97	-2.02857e-07
2692.65	-4.65771e-07
2701.32	-2.7321e-07
2710	-9.64735e-08
2718.68	-3.81681e-07
2727.36	-3.2083e-07
2736.04	-2.12257e-07
2744.71	-3.15795e-07
2753.39	-1.3629e-07
2762.07	-4.68794e-07
2770.75	-3.64656e-07
2779.43	-3.59657e-07
2788.11	-3.79891e-07
2796.78	-4.00802e-07
2805.46	-6.00144e-08
2814.14	-6.05241e-07
2822.82	-2.97668e-07
2831.5	1.05026e-08
2840.17	-3.39922e-07
2848.85	-3.17374e-07
2857.53	-4.05855e-07
2866.21	-4.08907e-07
2874.89	-6.80062e-07
2883.57	-1.9231e-07
2892.24	-4.3566e-07
2900.92	-2.52419e-07
2909.6	-5.19867e-07
2918.28	-3.83264e-07
2926.96	-3.29226e-07
2935.63	-5.18153e-07
2944.31	-2.71889e-07
2952.99	-4.64636e-07
2961.67	-9.68151e-07
2970.35	-7.3419e-07
2979.03	-4.77023e-07
2987.7	-1.42686e-07
2996.38	-6.67278e-07
3005.06	-1.97611e-07
3013.74	-8.07614e-08
3022.42	6.24977e-07
3031.09	-5.27805e-07
3039.77	7.82931e-07
3048.45	7.55457e-07
3057.13	-4.86085e-07
3065.81	-3.84355e-07
3074.49	-1.34239e-09
3083.16	-2.51677e-07
3091.84	-3.61564e-07
3100.52	-9.53384e-08
3109.2	-1.46291e-07
3117.88	-5.50378e-08
3126.55	1.10858e-07
3135.23	-1.16536e-07
3143.91	5.66239e-08
3152.59	-1.23125e-07
3161.27	3.46008e-07
3169.95	8.66875e-08
3178.62	1.97243e-07
3187.3	6.60897e-08
3195.98	1.12739e-08
3204.66	3.97561e-07
3213.34	1.53567e-07
3222.01	6.14103e-07
3230.69	4.14448e-07
3239.37	5.09306e-10
3248.05	1.16191e-07
3256.73	2.361e-07
3265.41	7.86805e-08
3274.08	2.67404e-07
3282.76	5.52233e-08
3291.44	-1.88389e-07
3300.12	-1.93311e-07
3308.8	1.66318e-07
3317.47	-2.18772e-07
3326.15	-3.30514e-07
3334.83	-1.69464e-07
3343.51	1.82608e-07
3352.19	-1.73724e-07
3360.86	-3.6932e-07
3369.54	2.08197e-08
3378.22	-2.06116e-07
3386.9	-1.19345e-07
3395.58	9.59678e-09
3404.26	-1.38688e-07
3412.93	6.20869e-07
3421.61	-2.80595e-07
3430.29	-6.04888e-07
3438.97	-3.7605e-07
3447.65	-7.04865e-07
3456.32	-1.5281e-07
3465	-4.21458e-07
3473.68	-8.66802e-08
3482.36	-1.4548e-07
3491.04	-6.29393e-07
3499.72	-3.96833e-07
3508.39	-6.73837e-07
3517.07	-4.55916e-07
3525.75	-5.69044e-07
3534.43	-2.95732e-07
3543.11	-7.30443e-07
3551.78	-4.90687e-07
3560.46	-1.50846e-07
3569.14	-3.17058e-07
3577.82	-4.68652e-07
3586.5	-1.68699e-06
3595.18	-7.82654e-07
3603.85	-4.27304e-07
3612.53	-1.89926e-06
3621.21	-6.23369e-07
3629.89	-2.40131e-06
3638.57	-4.23008e-07
3647.24	-2.30372e-06
3655.92	-1.3219e-06
3664.6	-5.39515e-07
3673.28	-1.85897e-09
3681.96	-1.16471e-07
3690.64	-3.27644e-07
3699.31	-1.21833e-08
3707.99	-5.37271e-07
3716.67	4.71348e-07
3725.35	-5.87423e-07
3734.03	-2.96656e-07
3742.7	-7.71409e-07
3751.38	-5.34728e-07
3760.06	-1.90457e-06
3768.74	-6.59679e-07
3777.42	-5.31017e-07
3786.1	-4.66801e-07
3794.77	-4.42296e-07
3803.45	-3.0984e-07
3812.13	-4.43096e-07
3820.81	-2.80622e-06
3829.49	-3.94457e-07
3838.16	-4.27703e-06
3846.84	-7.68204e-07
3855.52	-6.54906e-07
3864.2	-7.9973e-07
3872.88	-5.4152e-07
3881.56	-7.87387e-07
3890.23	-4.93958e-07
3898.91	-1.04536e-06
3907.59	-3.06479e-07
3916.27	-7.21105e-07
3924.95	-5.94888e-07
3933.62	-4.14568e-07
3942.3	-8.29405e-07
3950.98	-6.34326e-07
3959.66	-8.36091e-07
3968.34	-4.85882e-07
