Infrared Spectrum: DIMETHYL SULFOXIDE
Formula: C2 H6 O S
CAS: 67-68-5
State: LIQUID (NEAT)
Boiling point: 189 C
Class: COBLENTZ III
Instrument: BECKMAN IR-7 (GRATING)
Instrument parameters: GRATING CHANGES AT 3000, 2200, 1150 CM^-^1
Sampling: TRANSMISSION
Path length: 0.003 CM
Resolution: 4
Origin: WESTERN REGIONAL RES. USDA
1/CM	TRANSMITTANCE
600	0.785
609.087	0.789
618.173	0.801
627.26	0.812
636.347	0.814
645.434	0.798
654.52	0.747
663.607	0.4591
672.694	0.353
681.78	0.597
690.867	0.24
699.954	0.077
709.041	0.386
718.127	0.644
727.214	0.757
736.301	0.803
745.387	0.826
754.474	0.834
763.561	0.837
772.648	0.842
781.734	0.853
790.821	0.862
799.908	0.865
808.994	0.868
818.081	0.868
827.168	0.866
836.255	0.863
845.341	0.859
854.428	0.85
863.515	0.837
872.601	0.823
881.688	0.781
890.775	0.6121
899.862	0.518
908.948	0.595
918.035	0.476
927.122	0.154
936.208	0.178
945.295	0.057
954.382	0.021
963.469	0.187
972.555	0.37
981.642	0.426
990.729	0.368
999.815	0.177
1008.9	0.004
1017.99	0
1027.08	0
1036.16	0
1045.25	0
1054.34	0
1063.42	0
1072.51	0
1081.6	0.142
1090.68	0.342
1099.77	0.47
1108.86	0.555
1117.94	0.626
1127.03	0.669
1136.12	0.705
1145.2	0.725
1154.29	0.768
1163.38	0.788
1172.46	0.799
1181.55	0.806
1190.64	0.809
1199.72	0.812
1208.81	0.814
1217.9	0.814
1226.98	0.81
1236.07	0.806
1245.16	0.804
1254.24	0.797
1263.33	0.775
1272.42	0.747
1281.5	0.696
1290.59	0.485
1299.68	0.41
1308.76	0.134
1317.85	0.292
1326.94	0.386
1336.02	0.411
1345.11	0.506
1354.2	0.555
1363.28	0.566
1372.37	0.557
1381.46	0.489
1390.54	0.323
1399.63	0.082
1408.72	0.059
1417.8	0.076
1426.89	0.079
1435.98	0.02
1445.06	0.1671
1454.15	0.448
1463.24	0.611
1472.32	0.68
1481.41	0.721
1490.5	0.751
1499.58	0.771
1508.67	0.79
1517.76	0.802
1526.84	0.81
1535.93	0.82
1545.02	0.824
1554.1	0.826
1563.19	0.83
1572.28	0.827
1581.36	0.819
1590.45	0.81
1599.54	0.797
1608.63	0.786
1617.71	0.769
1626.8	0.755
1635.89	0.747
1644.97	0.743
1654.06	0.74
1663.15	0.74
1672.23	0.748
1681.32	0.763
1690.41	0.776
1699.49	0.791
1708.58	0.807
1717.67	0.817
1726.75	0.821
1735.84	0.826
1744.93	0.833
1754.01	0.841
1763.1	0.851
1772.19	0.864
1781.27	0.872
1790.36	0.875
1799.45	0.876
1808.53	0.878
1817.62	0.878
1826.71	0.878
1835.79	0.879
1844.88	0.88
1853.97	0.879
1863.05	0.877
1872.14	0.877
1881.23	0.874
1890.31	0.869
1899.4	0.859
1908.49	0.849
1917.57	0.846
1926.66	0.854
1935.75	0.858
1944.83	0.845
1953.92	0.809
1963.01	0.781
1972.09	0.802
1981.18	0.787
1990.27	0.755
1999.35	0.74
2008.44	0.739
2017.53	0.74
2026.61	0.7415
2035.7	0.7441
2044.79	0.7492
2053.87	0.7548
2062.96	0.7646
2072.05	0.7724
2081.13	0.7809
2090.22	0.7906
2099.31	0.7992
2108.39	0.8094
2117.48	0.8143
2126.57	0.8198
2135.65	0.8262
2144.74	0.833
2153.83	0.8376
2162.91	0.8411
2172	0.8437
2181.09	0.8443
2190.17	0.845
2199.26	0.844
2208.35	0.8369
2217.43	0.8242
2226.52	0.8113
2235.61	0.7967
2244.7	0.796
2253.78	0.8224
2262.87	0.822
2271.96	0.8086
2281.04	0.7907
2290.13	0.7926
2299.22	0.8172
2308.3	0.8176
2317.39	0.8041
2326.48	0.7949
2335.56	0.7805
2344.65	0.7686
2353.74	0.765
2362.82	0.764
2371.91	0.765
2381	0.7701
2390.08	0.8117
2399.17	0.834
2408.26	0.8502
2417.34	0.8573
2426.43	0.859
2435.52	0.857
2444.6	0.8549
2453.69	0.8504
2462.78	0.849
2471.86	0.8508
2480.95	0.8564
2490.04	0.8619
2499.12	0.867
2508.21	0.8712
2517.3	0.875
2526.38	0.877
2535.47	0.877
2544.56	0.8766
2553.64	0.875
2562.73	0.8709
2571.82	0.8543
2580.9	0.8344
2589.99	0.8218
2599.08	0.8179
2608.16	0.8254
2617.25	0.832
2626.34	0.8346
2635.42	0.8392
2644.51	0.8438
2653.6	0.8453
2662.68	0.8499
2671.77	0.8505
2680.86	0.8498
2689.94	0.844
2699.03	0.8378
2708.12	0.835
2717.2	0.833
2726.29	0.832
2735.38	0.832
2744.46	0.8289
2753.55	0.8246
2762.64	0.8171
2771.72	0.8083
2780.81	0.7993
2789.9	0.7807
2798.98	0.7337
2808.07	0.6665
2817.16	0.6265
2826.24	0.6227
2835.33	0.62
2844.42	0.6125
2853.5	0.6007
2862.59	0.5795
2871.68	0.5476
2880.76	0.4808
2889.85	0.3573
2898.94	0.1959
2908.03	0.1265
2917.11	0.2169
2926.2	0.366
2935.29	0.4472
2944.37	0.466
2953.46	0.4485
2962.55	0.3533
2971.63	0.2239
2980.72	0.1143
2989.81	0.0813
2998.89	0.1365
3007.98	0.2923
3017.07	0.4002
3026.15	0.4626
3035.24	0.5083
3044.33	0.5432
3053.41	0.5716
3062.5	0.5924
3071.59	0.6136
3080.67	0.634
3089.76	0.6484
3098.85	0.6667
3107.93	0.6864
3117.02	0.7041
3126.11	0.7302
3135.19	0.7479
3144.28	0.7612
3153.37	0.7703
3162.45	0.7798
3171.54	0.7873
3180.63	0.79
3189.71	0.791
3198.8	0.79
3207.89	0.7862
3216.97	0.7778
3226.06	0.777
3235.15	0.777
3244.23	0.7714
3253.32	0.772
3262.41	0.7811
3271.49	0.789
3280.58	0.7837
3289.67	0.758
3298.75	0.7406
3307.84	0.741
3316.93	0.7501
3326.01	0.7583
3335.1	0.7684
3344.19	0.7768
3353.27	0.7808
3362.36	0.7645
3371.45	0.752
3380.53	0.7414
3389.62	0.74
3398.71	0.738
3407.79	0.7334
3416.88	0.7281
3425.97	0.7235
3435.05	0.722
3444.14	0.721
3453.23	0.722
3462.31	0.723
3471.4	0.724
3480.49	0.725
3489.57	0.727
3498.66	0.7291
3507.75	0.7333
3516.83	0.7427
3525.92	0.7553
3535.01	0.7686
3544.09	0.7789
3553.18	0.7973
3562.27	0.8107
3571.36	0.8211
3580.44	0.8289
3589.53	0.8386
3598.62	0.8493
3607.7	0.859
3616.79	0.8652
3625.88	0.8734
3634.96	0.8798
3644.05	0.8843
3653.14	0.8879
3662.22	0.888
3671.31	0.888
3680.4	0.8873
3689.48	0.8858
3698.57	0.884
3707.66	0.8864
3716.74	0.89
3725.83	0.8925
3734.92	0.894
3744	0.895
3753.09	0.896
3762.18	0.897
3771.26	0.8956
3780.35	0.893
3789.44	0.8904
3798.52	0.8878
3807.61	0.8813
3816.7	0.8797
3825.78	0.8752
3834.87	0.8556
3843.96	0.8521
3853.04	0.857
3862.13	0.859
3871.22	0.858
3880.3	0.8556
3889.39	0.8511
3898.48	0.849
3907.56	0.8406
3916.65	0.8196
3925.74	0.8048
3934.82	0.805
3943.91	0.82
3953	0.8329
3962.08	0.8473
3971.17	0.8553
