Infrared Spectrum: Chloroform
Formula: C H Cl3
CAS: 67-66-3
State: gas
Melting point: -63.5 C
Boiling point: 61.7 C
Class: IUPAC A
Instrument: IFS66V (Bruker)
Instrument parameters: KBr Beam Splitter; MCT Detector; Multipass cell
Sampling: 1 L/min Flow
Resolution: 1.9290
Temperature: 23 C
Pressure: 101.3 Pa
Origin: NIST, Analytical Chemistry Division, 301-975-3108
cm-1	(micromol/mol)-1m-1 (base 10)
575.652	-7.72468e-07
584.33	-5.91028e-07
593.008	-3.5543e-07
601.687	5.53383e-07
610.365	1.35949e-06
619.043	1.22928e-06
627.721	3.28332e-06
636.399	2.00359e-06
645.077	4.72032e-07
653.756	1.07514e-06
662.434	4.55973e-06
671.112	2.92653e-05
679.79	2.13986e-05
688.468	3.60318e-05
697.146	2.88146e-06
705.825	7.13501e-08
714.503	3.24013e-07
723.181	9.1638e-07
731.859	4.99515e-06
740.537	2.56286e-05
749.216	0.000105667
757.894	0.000398941
766.572	0.00174216
775.25	0.00255923
783.928	0.000505128
792.606	8.0874e-05
801.285	1.32813e-05
809.963	1.68859e-06
818.641	2.80344e-07
827.319	2.53376e-07
835.997	1.05288e-06
844.676	2.30442e-06
853.354	5.19095e-06
862.032	2.22246e-06
870.71	4.64e-07
879.388	3.62087e-07
888.066	1.95064e-08
896.745	-1.51991e-08
905.423	6.53003e-07
914.101	2.79327e-06
922.779	4.36277e-06
931.457	6.32681e-06
940.135	3.15789e-06
948.814	2.32415e-06
957.492	4.66415e-07
966.17	1.6667e-07
974.848	-3.05256e-08
983.526	-1.36094e-07
992.205	-1.72225e-07
1000.88	-7.22923e-08
1009.56	2.2185e-07
1018.24	1.30391e-06
1026.92	2.01251e-06
1035.6	1.9856e-06
1044.27	3.86778e-07
1052.95	-9.35632e-08
1061.63	-1.81808e-07
1070.31	-1.63123e-07
1078.99	-2.46388e-07
1087.66	-3.04234e-07
1096.34	-2.75931e-07
1105.02	-1.81164e-07
1113.7	-2.30203e-07
1122.38	-3.13762e-07
1131.06	-2.13436e-07
1139.73	-2.22974e-07
1148.41	-2.61929e-07
1157.09	-2.47781e-07
1165.77	-2.32269e-07
1174.45	-2.61892e-08
1183.12	7.1655e-07
1191.8	2.79768e-06
1200.48	1.28369e-05
1209.16	8.45079e-05
1217.84	0.000459619
1226.52	0.000163198
1235.19	2.61301e-05
1243.87	4.12531e-06
1252.55	5.06458e-07
1261.23	-5.29569e-08
1269.91	-2.36478e-07
1278.58	-2.99428e-07
1287.26	-2.30883e-07
1295.94	-2.95801e-07
1304.62	-2.77572e-07
1313.3	-2.40814e-07
1321.98	-2.28718e-07
1330.65	-9.06419e-08
1339.33	-2.14207e-07
1348.01	-1.3449e-07
1356.69	-1.35352e-07
1365.37	-4.01424e-07
1374.04	-6.00323e-07
1382.72	-1.57688e-07
1391.4	-1.77966e-07
1400.08	-3.74784e-07
1408.76	-1.11614e-07
1417.44	-1.25431e-07
1426.11	1.3698e-06
1434.79	4.50913e-06
1443.47	9.37172e-06
1452.15	3.69661e-06
1460.83	3.61767e-07
1469.5	1.21474e-06
1478.18	1.40148e-06
1486.86	8.73998e-07
1495.54	-7.15877e-07
1504.22	-3.96407e-07
1512.9	7.4151e-07
1521.57	7.65858e-07
1530.25	4.56737e-06
1538.93	3.50373e-06
1547.61	7.26355e-06
1556.29	4.00475e-06
1564.96	2.49046e-06
1573.64	2.799e-07
1582.32	-5.78681e-08
1591	-1.74601e-07
1599.68	-2.68171e-07
1608.36	-3.08294e-07
1617.03	-2.06636e-06
1625.71	-3.48216e-07
1634.39	-1.31519e-06
1643.07	-2.97831e-07
1651.75	-2.54577e-06
1660.42	-2.96533e-07
1669.1	-1.24539e-06
1677.78	-2.31247e-07
1686.46	-7.94088e-07
1695.14	-2.12354e-06
1703.82	-6.22987e-07
1712.49	-2.99399e-07
1721.17	-3.03783e-07
1729.85	-5.07123e-07
1738.53	-5.18943e-07
1747.21	-5.25862e-07
1755.88	-4.81152e-07
1764.56	-2.19002e-07
1773.24	-1.26955e-06
1781.92	-1.97709e-07
1790.6	-4.06925e-07
1799.28	-2.33859e-07
1807.95	1.28163e-07
1816.63	4.14222e-07
1825.31	-4.04025e-08
1833.99	7.45602e-07
1842.67	-1.09523e-07
1851.34	-8.29914e-08
1860.02	-1.70115e-07
1868.7	-6.34635e-07
1877.38	-2.9479e-07
1886.06	-1.99164e-07
1894.74	-1.15383e-07
1903.41	-2.16906e-07
1912.09	-2.99388e-07
1920.77	-2.9348e-07
1929.45	-2.50979e-07
1938.13	-2.86285e-07
1946.8	-3.0029e-07
1955.48	-2.39181e-07
1964.16	-1.31888e-07
1972.84	-6.95057e-08
1981.52	-4.74637e-08
1990.19	-4.09773e-08
1998.87	-1.20687e-07
2007.55	-1.43686e-07
2016.23	-2.61943e-07
2024.91	-2.20489e-07
2033.59	-2.7369e-07
2042.26	-2.50957e-07
2050.94	-2.2914e-07
2059.62	-2.71053e-07
2068.3	-3.19742e-07
2076.98	-2.64905e-07
2085.65	-2.94986e-07
2094.33	-3.34268e-07
2103.01	-3.33377e-07
2111.69	-3.30321e-07
2120.37	-2.21737e-07
2129.05	-2.23593e-07
2137.72	-1.91783e-07
2146.4	-2.74203e-07
2155.08	-2.56021e-07
2163.76	-1.84281e-07
2172.44	-2.46522e-07
2181.11	-1.88803e-07
2189.79	-1.36127e-07
2198.47	7.15939e-09
2207.15	1.62538e-07
2215.83	1.54687e-07
2224.51	-3.17407e-08
2233.18	1.23921e-07
2241.86	1.03324e-07
2250.54	-7.67124e-08
2259.22	-1.12589e-07
2267.9	-6.02182e-08
2276.57	3.66664e-08
2285.25	2.09972e-07
2293.93	2.00114e-07
2302.61	-7.27762e-08
2311.29	7.72617e-08
2319.97	4.86395e-07
2328.64	1.1956e-06
2337.32	1.59601e-06
2346	7.4339e-07
2354.68	1.35217e-06
2363.36	2.09693e-06
2372.03	8.9413e-07
2380.71	1.71334e-07
2389.39	4.42678e-07
2398.07	2.23045e-06
2406.75	3.34594e-06
2415.43	1.98868e-06
2424.1	2.10356e-06
2432.78	5.4837e-07
2441.46	1.29782e-06
2450.14	6.39968e-07
2458.82	7.62871e-07
2467.49	2.68037e-07
2476.17	-9.60842e-08
2484.85	-2.58327e-07
2493.53	-2.3228e-07
2502.21	-1.73481e-07
2510.89	-2.94794e-07
2519.56	-2.90035e-07
2528.24	-2.74196e-07
2536.92	-2.87845e-07
2545.6	-3.37121e-07
2554.28	-3.30605e-07
2562.95	-2.89166e-07
2571.63	-4.08271e-07
2580.31	-2.62107e-07
2588.99	-3.04598e-07
2597.67	-3.14347e-07
2606.35	-2.95638e-07
2615.02	-2.52347e-07
2623.7	-3.25112e-07
2632.38	-3.227e-07
2641.06	-2.44532e-07
2649.74	-3.27415e-07
2658.41	-3.61909e-07
2667.09	-2.87707e-07
2675.77	-2.6788e-07
2684.45	-2.43874e-07
2693.13	-3.07337e-07
2701.81	-3.26218e-07
2710.48	-1.36756e-07
2719.16	-2.51343e-07
2727.84	-2.94364e-07
2736.52	-2.36001e-07
2745.2	-2.83716e-07
2753.87	-2.48607e-07
2762.55	-2.84069e-07
2771.23	-3.8967e-07
2779.91	-3.12499e-07
2788.59	-3.014e-07
2797.27	-2.43368e-07
2805.94	-3.51527e-07
2814.62	-4.85681e-07
2823.3	-3.36098e-07
2831.98	-1.82433e-07
2840.66	-2.70944e-07
2849.33	-3.47423e-07
2858.01	-3.34396e-07
2866.69	-4.57062e-07
2875.37	-4.14615e-07
2884.05	-4.32048e-07
2892.73	-3.57704e-07
2901.4	-3.11215e-07
2910.08	-3.46485e-07
2918.76	-4.62235e-07
2927.44	-4.79046e-07
2936.12	-4.78016e-07
2944.79	-3.83329e-07
2953.47	-4.04956e-07
2962.15	-5.04224e-07
2970.83	-6.16555e-07
2979.51	-5.17411e-07
2988.19	-3.16887e-07
2996.86	-3.98648e-07
3005.54	-3.95229e-07
3014.22	-3.60152e-10
3022.9	7.75266e-07
3031.58	1.74431e-06
3040.25	8.13023e-07
3048.93	6.57496e-07
3057.61	-1.75627e-07
3066.29	-2.9113e-07
3074.97	-2.56672e-07
3083.65	-1.98509e-07
3092.32	-1.87137e-07
3101	-1.18381e-07
3109.68	-1.04808e-08
3118.36	-5.60855e-08
3127.04	6.1044e-08
3135.71	-1.17104e-08
3144.39	-4.7842e-08
3153.07	6.78832e-08
3161.75	1.21477e-07
3170.43	-4.519e-08
3179.11	6.32376e-08
3187.78	1.29862e-07
3196.46	5.83992e-08
3205.14	8.50723e-08
3213.82	2.18965e-08
3222.5	1.24613e-07
3231.17	2.23327e-07
3239.85	1.60886e-07
3248.53	1.51439e-07
3257.21	1.27799e-07
3265.89	9.42107e-08
3274.57	6.21062e-08
3283.24	8.18928e-08
3291.92	5.17673e-09
3300.6	9.97585e-08
3309.28	-1.87716e-09
3317.96	-1.47408e-07
3326.63	-2.1504e-07
3335.31	-1.5384e-07
3343.99	-1.6113e-07
3352.67	-1.94755e-07
3361.35	-1.86442e-07
3370.03	-2.05487e-07
3378.7	-3.24668e-07
3387.38	-1.40143e-07
3396.06	-2.32193e-07
3404.74	-1.78293e-07
3413.42	-3.73394e-08
3422.09	-1.93675e-07
3430.77	-2.93207e-07
3439.45	-4.00271e-07
3448.13	-3.61367e-07
3456.81	-2.86397e-07
3465.49	-2.17426e-07
3474.16	-2.49193e-07
3482.84	-3.29412e-07
3491.52	-3.67573e-07
3500.2	-4.84161e-07
3508.88	-5.1628e-07
3517.55	-3.73165e-07
3526.23	-4.67288e-07
3534.91	-2.92749e-07
3543.59	-4.2869e-07
3552.27	-5.76687e-07
3560.95	-3.6224e-07
3569.62	-4.98363e-07
3578.3	-4.01533e-07
3586.98	-7.82603e-07
3595.66	-3.8569e-07
3604.34	-2.76968e-07
3613.01	-8.02841e-07
3621.69	-4.16667e-07
3630.37	-1.2443e-06
3639.05	-4.42129e-07
3647.73	-1.43444e-06
3656.41	-1.17035e-06
3665.08	-5.03802e-07
3673.76	-9.97727e-07
3682.44	-3.61444e-07
3691.12	-6.16984e-07
3699.8	1.11069e-07
3708.47	-5.53372e-07
3717.15	6.08984e-08
3725.83	-7.39461e-07
3734.51	-1.13374e-06
3743.19	-1.70566e-06
3751.87	-2.43763e-06
3760.54	-8.61342e-07
3769.22	-9.23026e-07
3777.9	-5.69215e-07
3786.58	-3.98266e-07
3795.26	-6.22743e-07
3803.93	-2.46886e-07
3812.61	-2.17568e-07
3821.29	-1.75896e-06
3829.97	-6.64412e-07
3838.65	-1.91921e-06
3847.33	-4.99378e-07
3856	-1.10496e-06
3864.68	-1.21265e-06
3873.36	-8.9245e-07
3882.04	-7.01878e-07
3890.72	-1.02439e-06
3899.39	-1.04144e-06
3908.07	-6.27116e-07
3916.75	-8.83697e-07
3925.43	-5.94728e-07
3934.11	-5.40512e-07
3942.79	-6.35919e-07
3951.46	-4.95478e-07
3960.14	-6.13881e-07
3968.82	-4.87813e-07
