Infrared Spectrum: 2-Propanol
Formula: C H3 C H( O H) C H3
CAS: 67-63-0
State: gas
Melting point: -89.5 C
Boiling point: 82.4 C
Class: IUPAC A
Instrument: IFS66V (Bruker)
Instrument parameters: KBr Beam splitter; MCT Detector; Multipass cell
Sampling: 1 L/min Flow
Resolution: 1.9290
Temperature: 23 C
Pressure: 101.3 kPa
Origin: NIST, Anayltical Chemistry Division, 301-975-3108
cm-1	(micromol/mol)-1m-1 (base 10)
574.687	2.62619e-06
583.365	2.92928e-06
592.043	3.20241e-06
600.721	3.53482e-06
609.4	3.86503e-06
618.078	4.00701e-06
626.756	4.29452e-06
635.434	4.10385e-06
644.112	4.14322e-06
652.79	3.82619e-06
661.469	3.5044e-06
670.147	3.23123e-06
678.825	3.00591e-06
687.503	2.86357e-06
696.181	2.63917e-06
704.859	2.70398e-06
713.537	2.40289e-06
722.216	2.20143e-06
730.894	1.88805e-06
739.572	1.49333e-06
748.25	1.21696e-06
756.928	1.06254e-06
765.606	1.05332e-06
774.285	1.23633e-06
782.963	2.48597e-06
791.641	7.95148e-06
800.319	1.92155e-05
808.997	2.47434e-05
817.675	2.76405e-05
826.353	2.57247e-05
835.032	1.80566e-05
843.71	5.9876e-06
852.388	2.63436e-06
861.066	1.7323e-06
869.744	1.55582e-06
878.422	1.48822e-06
887.101	1.75394e-06
895.779	2.51397e-06
904.457	4.26963e-06
913.135	8.51489e-06
921.813	2.11498e-05
930.491	5.83015e-05
939.169	0.000122578
947.848	0.000146923
956.526	0.000171246
965.204	0.000148578
973.882	8.54005e-05
982.56	2.179e-05
991.238	8.19155e-06
999.917	5.64656e-06
1008.59	5.2308e-06
1017.27	5.21032e-06
1025.95	6.98736e-06
1034.63	1.14495e-05
1043.31	2.44217e-05
1051.99	5.45733e-05
1060.66	9.15405e-05
1069.34	0.000125681
1078.02	0.000127312
1086.7	0.00011781
1095.38	8.78123e-05
1104.05	6.24097e-05
1112.73	6.85865e-05
1121.41	9.07224e-05
1130.09	0.00011608
1138.77	0.000141829
1147.45	0.000171479
1156.12	0.000176391
1164.8	0.000151864
1173.48	0.000112069
1182.16	7.36987e-05
1190.84	3.65851e-05
1199.51	2.17272e-05
1208.19	1.90373e-05
1216.87	2.55486e-05
1225.55	4.56314e-05
1234.23	7.98411e-05
1242.9	9.7911e-05
1251.58	0.000123823
1260.26	9.78203e-05
1268.94	7.53684e-05
1277.62	3.87477e-05
1286.3	2.23416e-05
1294.97	1.60371e-05
1303.65	1.50924e-05
1312.33	1.70162e-05
1321.01	2.30935e-05
1329.69	3.396e-05
1338.36	4.42741e-05
1347.04	5.47504e-05
1355.72	7.05091e-05
1364.4	9.25244e-05
1373.08	0.000148076
1381.76	0.000201304
1390.43	0.00018032
1399.11	0.000136359
1407.79	6.81725e-05
1416.47	3.5496e-05
1425.15	2.31208e-05
1433.82	2.23774e-05
1442.5	2.7724e-05
1451.18	3.46121e-05
1459.86	5.38613e-05
1468.54	3.55024e-05
1477.22	3.53328e-05
1485.89	2.81466e-05
1494.57	1.91591e-05
1503.25	9.29867e-06
1511.93	4.59622e-06
1520.61	2.85668e-06
1529.28	2.05699e-06
1537.96	1.67753e-06
1546.64	1.45917e-06
1555.32	1.28212e-06
1564	1.1279e-06
1572.67	1.05972e-06
1581.35	1.02717e-06
1590.03	9.87406e-07
1598.71	9.61649e-07
1607.39	9.04698e-07
1616.07	9.81486e-07
1624.74	9.53402e-07
1633.42	1.10722e-06
1642.1	1.21959e-06
1650.78	1.47358e-06
1659.46	1.57514e-06
1668.13	1.73507e-06
1676.81	1.68655e-06
1685.49	1.68833e-06
1694.17	1.55526e-06
1702.85	1.55542e-06
1711.53	1.66093e-06
1720.2	1.8136e-06
1728.88	1.87795e-06
1737.56	2.18108e-06
1746.24	2.93424e-06
1754.92	3.78329e-06
1763.59	3.90659e-06
1772.27	3.95859e-06
1780.95	3.37356e-06
1789.63	1.63518e-06
1798.31	6.54258e-07
1806.98	5.29717e-07
1815.66	5.89762e-07
1824.34	6.61611e-07
1833.02	7.1769e-07
1841.7	6.55178e-07
1850.38	5.98667e-07
1859.05	8.61555e-07
1867.73	9.68674e-07
1876.41	1.40872e-06
1885.09	1.85978e-06
1893.77	2.28068e-06
1902.44	2.3949e-06
1911.12	1.9402e-06
1919.8	1.48556e-06
1928.48	6.0274e-07
1937.16	2.54643e-07
1945.84	2.36882e-07
1954.51	3.32068e-07
1963.19	4.14474e-07
1971.87	4.5935e-07
1980.55	5.62281e-07
1989.23	4.99335e-07
1997.9	5.2594e-07
2006.58	5.80282e-07
2015.26	6.80412e-07
2023.94	7.69508e-07
2032.62	7.97598e-07
2041.3	7.74682e-07
2049.97	7.27651e-07
2058.65	8.6158e-07
2067.33	1.08478e-06
2076.01	1.2669e-06
2084.69	1.32897e-06
2093.36	1.22481e-06
2102.04	1.06562e-06
2110.72	8.57446e-07
2119.4	8.27297e-07
2128.08	8.09757e-07
2136.75	1.02751e-06
2145.43	9.71058e-07
2154.11	1.28905e-06
2162.79	1.47348e-06
2171.47	1.42184e-06
2180.15	1.5582e-06
2188.82	1.66824e-06
2197.5	1.73665e-06
2206.18	1.42592e-06
2214.86	1.00499e-06
2223.54	5.5137e-07
2232.21	3.94245e-07
2240.89	4.01957e-07
2249.57	4.57495e-07
2258.25	5.4078e-07
2266.93	7.18627e-07
2275.61	9.41693e-07
2284.28	1.32053e-06
2292.96	1.73406e-06
2301.64	2.22593e-06
2310.32	2.61455e-06
2319	2.55365e-06
2327.67	2.34223e-06
2336.35	1.82553e-06
2345.03	1.20909e-06
2353.71	7.192e-07
2362.39	4.54737e-07
2371.06	6.85063e-07
2379.74	1.04028e-06
2388.42	1.1438e-06
2397.1	1.19403e-06
2405.78	1.12438e-06
2414.46	1.21862e-06
2423.13	1.2295e-06
2431.81	1.33183e-06
2440.49	1.38008e-06
2449.17	1.42319e-06
2457.85	1.36555e-06
2466.52	1.26952e-06
2475.2	1.44113e-06
2483.88	1.6981e-06
2492.56	1.92137e-06
2501.24	2.09107e-06
2509.92	2.09851e-06
2518.59	1.9029e-06
2527.27	1.70763e-06
2535.95	1.70579e-06
2544.63	1.43858e-06
2553.31	1.34875e-06
2561.98	1.34036e-06
2570.66	1.5091e-06
2579.34	1.84021e-06
2588.02	2.29462e-06
2596.7	2.83363e-06
2605.38	3.96485e-06
2614.05	4.15188e-06
2622.73	5.13819e-06
2631.41	6.52115e-06
2640.09	8.54551e-06
2648.77	8.47207e-06
2657.44	8.85062e-06
2666.12	9.81305e-06
2674.8	7.20874e-06
2683.48	6.36594e-06
2692.16	5.25688e-06
2700.83	4.69843e-06
2709.51	4.98489e-06
2718.19	5.85284e-06
2726.87	6.40859e-06
2735.55	7.24277e-06
2744.23	7.1509e-06
2752.9	7.05342e-06
2761.58	7.90027e-06
2770.26	8.95997e-06
2778.94	9.36587e-06
2787.62	1.06189e-05
2796.29	1.19757e-05
2804.97	1.2637e-05
2813.65	1.48046e-05
2822.33	1.74723e-05
2831.01	2.00135e-05
2839.69	2.1934e-05
2848.36	3.21726e-05
2857.04	4.75384e-05
2865.72	7.65919e-05
2874.4	0.000100014
2883.08	0.000161884
2891.75	0.000154654
2900.43	0.000132961
2909.11	0.00012007
2917.79	0.000106275
2926.47	0.000106982
2935.14	0.000114992
2943.82	0.000135444
2952.5	0.000201998
2961.18	0.000271222
2969.86	0.000418343
2978.54	0.000474727
2987.21	0.000319741
2995.89	0.000255719
3004.57	0.000140587
3013.25	4.03792e-05
3021.93	9.59882e-06
3030.6	3.46529e-06
3039.28	1.99193e-06
3047.96	1.49629e-06
3056.64	1.20356e-06
3065.32	1.18024e-06
3074	1.12833e-06
3082.67	1.2388e-06
3091.35	1.26182e-06
3100.03	1.39269e-06
3108.71	1.4749e-06
3117.39	1.59284e-06
3126.06	1.6903e-06
3134.74	1.80502e-06
3143.42	1.97078e-06
3152.1	2.31913e-06
3160.78	2.88869e-06
3169.46	3.77686e-06
3178.13	4.6241e-06
3186.81	5.17391e-06
3195.49	5.11606e-06
3204.17	4.89372e-06
3212.85	4.56269e-06
3221.52	4.11735e-06
3230.2	3.54437e-06
3238.88	2.91418e-06
3247.56	2.20425e-06
3256.24	1.22674e-06
3264.91	7.32501e-07
3273.59	4.48651e-07
3282.27	3.08383e-07
3290.95	2.95445e-07
3299.63	3.54377e-07
3308.31	5.25799e-07
3316.98	9.08963e-07
3325.66	1.21897e-06
3334.34	1.69805e-06
3343.02	1.83439e-06
3351.7	1.77262e-06
3360.37	1.62516e-06
3369.05	1.41671e-06
3377.73	1.27617e-06
3386.41	1.3641e-06
3395.09	1.6301e-06
3403.77	1.82911e-06
3412.44	2.01304e-06
3421.12	2.4033e-06
3429.8	2.37179e-06
3438.48	2.52465e-06
3447.16	2.66109e-06
3455.83	2.52123e-06
3464.51	2.46704e-06
3473.19	2.07711e-06
3481.87	1.65563e-06
3490.55	1.24303e-06
3499.22	1.0451e-06
3507.9	8.25954e-07
3516.58	7.77394e-07
3525.26	8.59712e-07
3533.94	1.096e-06
3542.62	1.23846e-06
3551.29	1.11328e-06
3559.97	9.87819e-07
3568.65	1.01404e-06
3577.33	9.42846e-07
3586.01	1.1364e-06
3594.68	1.51919e-06
3603.36	2.14687e-06
3612.04	4.51963e-06
3620.72	8.13004e-06
3629.4	1.36132e-05
3638.08	3.17782e-05
3646.75	4.81161e-05
3655.43	5.47042e-05
3664.11	4.8996e-05
3672.79	4.1368e-05
3681.47	1.92554e-05
3690.14	5.9695e-06
3698.82	2.61293e-06
3707.5	1.74005e-06
3716.18	1.50742e-06
3724.86	1.23527e-06
3733.54	1.14701e-06
3742.21	1.1088e-06
3750.89	1.05667e-06
3759.57	9.81118e-07
3768.25	1.16048e-06
3776.93	1.48147e-06
3785.6	1.999e-06
3794.28	2.22181e-06
3802.96	2.4577e-06
3811.64	2.62052e-06
3820.32	2.77565e-06
3828.99	2.71049e-06
3837.67	2.58805e-06
3846.35	2.32387e-06
3855.03	2.36391e-06
3863.71	2.19027e-06
3872.39	2.18828e-06
3881.06	2.19837e-06
3889.74	2.13802e-06
3898.42	2.29097e-06
3907.1	1.86813e-06
3915.78	1.67473e-06
3924.45	1.4437e-06
3933.13	1.38619e-06
3941.81	1.1438e-06
3950.49	9.65084e-07
3959.17	8.8783e-07
3967.85	7.75393e-07
