Infrared Spectrum: 2-Propanol
Formula: C H3 C H( O H) C H3
CAS: 67-63-0
State: gas
Melting point: -89.5 C
Boiling point: 82.4 C
Class: IUPAC A
Instrument: IFS66V (Bruker)
Instrument parameters: KBr Beam splitter; MCT Detector; Multipass cell
Sampling: 1 L/min Flow
Resolution: 0.9640
Temperature: 23 C
Pressure: 101.3 kPa
Origin: NIST, Anayltical Chemistry Division, 301-975-3108
cm-1	(micromol/mol)-1m-1 (base 10)
575.169	2.59401e-06
583.847	2.89943e-06
592.525	3.28083e-06
601.203	3.58042e-06
609.882	3.91551e-06
618.56	4.05918e-06
627.238	4.29983e-06
635.916	4.15792e-06
644.594	4.11866e-06
653.272	3.8026e-06
661.951	3.50151e-06
670.629	3.2208e-06
679.307	2.95943e-06
687.985	2.85854e-06
696.663	2.7033e-06
705.341	2.69581e-06
714.019	2.36917e-06
722.698	2.20759e-06
731.376	1.86375e-06
740.054	1.50569e-06
748.732	1.23272e-06
757.41	1.11181e-06
766.088	1.12132e-06
774.767	1.37097e-06
783.445	2.74436e-06
792.123	8.56155e-06
800.801	1.97357e-05
809.479	2.49301e-05
818.157	2.71534e-05
826.835	2.58174e-05
835.514	1.71256e-05
844.192	5.75903e-06
852.87	2.69584e-06
861.548	1.795e-06
870.226	1.63738e-06
878.904	1.60969e-06
887.583	1.90387e-06
896.261	2.75715e-06
904.939	4.64527e-06
913.617	9.24042e-06
922.295	2.27614e-05
930.973	6.16287e-05
939.651	0.000124573
948.33	0.000148209
957.008	0.00017805
965.686	0.00014775
974.364	7.9962e-05
983.042	2.08247e-05
991.72	8.3354e-06
1000.4	5.88731e-06
1009.08	5.45172e-06
1017.75	5.51647e-06
1026.43	7.43135e-06
1035.11	1.22225e-05
1043.79	2.59864e-05
1052.47	5.67245e-05
1061.15	9.27631e-05
1069.82	0.000126598
1078.5	0.000126841
1087.18	0.000116682
1095.86	8.58317e-05
1104.54	6.24171e-05
1113.21	6.98892e-05
1121.89	9.21116e-05
1130.57	0.000117203
1139.25	0.000142404
1147.93	0.000172752
1156.61	0.000174661
1165.28	0.000148211
1173.96	0.000109584
1182.64	7.14497e-05
1191.32	3.56943e-05
1200	2.17826e-05
1208.67	1.95701e-05
1217.35	2.65454e-05
1226.03	4.75317e-05
1234.71	8.14609e-05
1243.39	9.73231e-05
1252.07	0.00012446
1260.74	9.71541e-05
1269.42	7.29292e-05
1278.1	3.75377e-05
1286.78	2.20892e-05
1295.46	1.61719e-05
1304.13	1.53505e-05
1312.81	1.74568e-05
1321.49	2.38085e-05
1330.17	3.47621e-05
1338.85	4.50635e-05
1347.52	5.58339e-05
1356.2	7.17657e-05
1364.88	9.44972e-05
1373.56	0.000148567
1382.24	0.00020174
1390.92	0.000180518
1399.59	0.000131333
1408.27	6.62385e-05
1416.95	3.47903e-05
1425.63	2.32266e-05
1434.31	2.28409e-05
1442.98	2.81869e-05
1451.66	3.495e-05
1460.34	5.55583e-05
1469.02	3.76434e-05
1477.7	3.40775e-05
1486.38	2.78542e-05
1495.05	1.85087e-05
1503.73	9.02627e-06
1512.41	4.5701e-06
1521.09	2.93973e-06
1529.77	2.10899e-06
1538.44	1.75427e-06
1547.12	1.49229e-06
1555.8	1.31411e-06
1564.48	1.17084e-06
1573.16	1.09604e-06
1581.83	1.0496e-06
1590.51	1.02963e-06
1599.19	9.849e-07
1607.87	9.28024e-07
1616.55	1.0698e-06
1625.23	9.7775e-07
1633.9	1.14835e-06
1642.58	1.24851e-06
1651.26	1.49126e-06
1659.94	1.60048e-06
1668.62	1.75347e-06
1677.29	1.69024e-06
1685.97	1.63006e-06
1694.65	1.58135e-06
1703.33	1.56415e-06
1712.01	1.68796e-06
1720.69	1.82609e-06
1729.36	1.91089e-06
1738.04	2.22385e-06
1746.72	2.99667e-06
1755.4	3.80752e-06
1764.08	3.91522e-06
1772.75	3.97486e-06
1781.43	3.31124e-06
1790.11	1.55426e-06
1798.79	6.62729e-07
1807.47	5.4717e-07
1816.15	6.17903e-07
1824.82	6.85906e-07
1833.5	7.32572e-07
1842.18	6.59172e-07
1850.86	6.21413e-07
1859.54	8.42414e-07
1868.21	1.00176e-06
1876.89	1.43416e-06
1885.57	1.89921e-06
1894.25	2.28249e-06
1902.93	2.39931e-06
1911.6	1.90614e-06
1920.28	1.45012e-06
1928.96	5.78483e-07
1937.64	2.73836e-07
1946.32	2.51958e-07
1955	3.51056e-07
1963.67	4.27627e-07
1972.35	4.73778e-07
1981.03	5.59905e-07
1989.71	5.12397e-07
1998.39	5.30287e-07
2007.06	6.06975e-07
2015.74	6.92809e-07
2024.42	7.88345e-07
2033.1	7.92877e-07
2041.78	7.87692e-07
2050.46	7.45e-07
2059.13	8.80442e-07
2067.81	1.09806e-06
2076.49	1.2908e-06
2085.17	1.3337e-06
2093.85	1.21722e-06
2102.52	1.07164e-06
2111.2	9.40618e-07
2119.88	9.13283e-07
2128.56	7.5054e-07
2137.24	1.04241e-06
2145.91	9.99693e-07
2154.59	1.38459e-06
2163.27	1.42944e-06
2171.95	1.41231e-06
2180.63	1.48032e-06
2189.31	1.67775e-06
2197.98	1.70142e-06
2206.66	1.41885e-06
2215.34	9.94361e-07
2224.02	5.43952e-07
2232.7	3.97837e-07
2241.37	4.11691e-07
2250.05	4.69155e-07
2258.73	5.59322e-07
2267.41	7.37987e-07
2276.09	9.60385e-07
2284.77	1.35275e-06
2293.44	1.75947e-06
2302.12	2.2562e-06
2310.8	2.60522e-06
2319.48	2.5189e-06
2328.16	2.3602e-06
2336.83	1.98265e-06
2345.51	1.2228e-06
2354.19	6.6591e-07
2362.87	3.33389e-07
2371.55	6.83435e-07
2380.23	1.05537e-06
2388.9	1.17209e-06
2397.58	1.1842e-06
2406.26	1.14024e-06
2414.94	1.21548e-06
2423.62	1.25171e-06
2432.29	1.36514e-06
2440.97	1.39513e-06
2449.65	1.42353e-06
2458.33	1.37854e-06
2467.01	1.28469e-06
2475.68	1.47279e-06
2484.36	1.71969e-06
2493.04	1.9499e-06
2501.72	2.11397e-06
2510.4	2.11933e-06
2519.08	1.89843e-06
2527.75	1.71271e-06
2536.43	1.68259e-06
2545.11	1.45589e-06
2553.79	1.35535e-06
2562.47	1.37993e-06
2571.14	1.54047e-06
2579.82	1.89361e-06
2588.5	2.34092e-06
2597.18	2.91938e-06
2605.86	4.11294e-06
2614.54	4.22593e-06
2623.21	5.23359e-06
2631.89	6.48718e-06
2640.57	8.51729e-06
2649.25	8.4991e-06
2657.93	8.91251e-06
2666.6	9.75054e-06
2675.28	7.15185e-06
2683.96	6.32773e-06
2692.64	5.24417e-06
2701.32	4.75598e-06
2709.99	5.08425e-06
2718.67	5.93633e-06
2727.35	6.4929e-06
2736.03	7.28738e-06
2744.71	7.15957e-06
2753.39	7.14643e-06
2762.06	7.99065e-06
2770.74	9.01898e-06
2779.42	9.46653e-06
2788.1	1.07336e-05
2796.78	1.20552e-05
2805.45	1.27771e-05
2814.13	1.50675e-05
2822.81	1.76482e-05
2831.49	2.01574e-05
2840.17	2.2444e-05
2848.85	3.33613e-05
2857.52	4.91019e-05
2866.2	7.81125e-05
2874.88	0.000101282
2883.56	0.000162083
2892.24	0.000151829
2900.91	0.000132548
2909.59	0.000119053
2918.27	0.00010565
2926.95	0.000108526
2935.63	0.000115458
2944.31	0.00013948
2952.98	0.000205955
2961.66	0.000275636
2970.34	0.000456716
2979.02	0.000488435
2987.7	0.000313752
2996.37	0.000250746
3005.05	0.000133465
3013.73	3.82287e-05
3022.41	9.7517e-06
3031.09	3.79636e-06
3039.76	2.32757e-06
3048.44	1.71533e-06
3057.12	1.40665e-06
3065.8	1.31675e-06
3074.48	1.27693e-06
3083.16	1.35771e-06
3091.83	1.34818e-06
3100.51	1.47132e-06
3109.19	1.59695e-06
3117.87	1.67102e-06
3126.55	1.75118e-06
3135.22	1.86681e-06
3143.9	2.01379e-06
3152.58	2.39311e-06
3161.26	2.98738e-06
3169.94	3.8765e-06
3178.62	4.67625e-06
3187.29	5.22211e-06
3195.97	5.20454e-06
3204.65	4.87147e-06
3213.33	4.65437e-06
3222.01	4.12759e-06
3230.68	3.56903e-06
3239.36	2.86828e-06
3248.04	2.25018e-06
3256.72	1.20127e-06
3265.4	7.26463e-07
3274.07	4.63101e-07
3282.75	3.15377e-07
3291.43	3.22008e-07
3300.11	4.04979e-07
3308.79	5.49674e-07
3317.47	9.32357e-07
3326.14	1.23649e-06
3334.82	1.73424e-06
3343.5	1.84565e-06
3352.18	1.74778e-06
3360.86	1.62251e-06
3369.53	1.44679e-06
3378.21	1.26963e-06
3386.89	1.39423e-06
3395.57	1.64075e-06
3404.25	1.85625e-06
3412.93	2.01088e-06
3421.6	2.46483e-06
3430.28	2.40386e-06
3438.96	2.55257e-06
3447.64	2.68851e-06
3456.32	2.56393e-06
3464.99	2.43775e-06
3473.67	2.07163e-06
3482.35	1.63093e-06
3491.03	1.25389e-06
3499.71	1.02088e-06
3508.39	8.68185e-07
3517.06	7.9849e-07
3525.74	8.99683e-07
3534.42	1.09776e-06
3543.1	1.25607e-06
3551.78	1.11253e-06
3560.45	1.0108e-06
3569.13	1.03119e-06
3577.81	1.00554e-06
3586.49	1.20217e-06
3595.17	1.61364e-06
3603.84	2.28793e-06
3612.52	4.77643e-06
3621.2	8.41425e-06
3629.88	1.37425e-05
3638.56	3.15324e-05
3647.24	4.8258e-05
3655.91	5.51419e-05
3664.59	4.80318e-05
3673.27	4.02527e-05
3681.95	1.8127e-05
3690.63	5.77721e-06
3699.3	2.63586e-06
3707.98	1.78609e-06
3716.66	1.52138e-06
3725.34	1.27944e-06
3734.02	1.16071e-06
3742.7	1.10798e-06
3751.37	1.0432e-06
3760.05	1.01965e-06
3768.73	1.18924e-06
3777.41	1.5062e-06
3786.09	2.02306e-06
3794.76	2.25721e-06
3803.44	2.46242e-06
3812.12	2.63691e-06
3820.8	2.78532e-06
3829.48	2.72648e-06
3838.16	2.63028e-06
3846.83	2.33926e-06
3855.51	2.30222e-06
3864.19	2.20895e-06
3872.87	2.19566e-06
3881.55	2.19188e-06
3890.22	2.11643e-06
3898.9	2.30539e-06
3907.58	1.86724e-06
3916.26	1.6969e-06
3924.94	1.43891e-06
3933.61	1.40941e-06
3942.29	1.16811e-06
3950.97	9.76633e-07
3959.65	9.0794e-07
3968.33	8.00597e-07
