Infrared Spectrum: DIBUTYL TIN DICHLORIDE
Formula: C8 H18 Cl2 Sn
CAS: 683-18-1
State: SOLID (OIL MULL)
Class: COBLENTZ
Instrument: Not specified, most likely a prism, grating, or hybrid spectrometer.
Sampling: TRANSMISSION
Resolution: 4
Origin: WYANDOTTE CHEMICALS CORP., WYANDOTTE, MICHIGAN, USA
MICROMETERS	TRANSMITTANCE
2.027	0.464
2.06698	0.472
2.10696	0.482
2.14694	0.485
2.18692	0.452
2.2269	0.417
2.26687	0.427
2.30685	0.445
2.34683	0.447
2.38681	0.459
2.42679	0.489
2.46677	0.495
2.50675	0.514
2.54673	0.527
2.58671	0.53
2.62669	0.544
2.66666	0.552
2.70664	0.559
2.74662	0.56
2.7866	0.565
2.82658	0.569
2.86656	0.569
2.90654	0.564
2.94652	0.56
2.9865	0.559
3.02648	0.56
3.06645	0.559
3.10643	0.532
3.14641	0.497
3.18639	0.487
3.22637	0.475
3.26635	0.397
3.30633	0.15
3.34631	0.021
3.38629	0.03
3.42627	0.033
3.46625	0.03
3.50622	0.066
3.5462	0.275
3.58618	0.484
3.62616	0.599
3.66614	0.574
3.70612	0.616
3.7461	0.621
3.78608	0.647
3.82606	0.664
3.86604	0.686
3.90601	0.706
3.94599	0.736
3.98597	0.751
4.02595	0.764
4.06593	0.776
4.10591	0.782
4.14589	0.782
4.18587	0.777
4.22585	0.776
4.26583	0.762
4.30581	0.771
4.34578	0.782
4.38576	0.797
4.42574	0.804
4.46572	0.823
4.5057	0.828
4.54568	0.824
4.58566	0.823
4.62564	0.826
4.66562	0.838
4.7056	0.843
4.74557	0.841
4.78555	0.844
4.82553	0.856
4.86551	0.866
4.90549	0.869
4.94547	0.868
4.98545	0.878
5.02543	0.881
5.06541	0.883
5.10539	0.899
5.14536	0.901
5.18534	0.893
5.22532	0.899
5.2653	0.896
5.30528	0.888
5.34526	0.884
5.38524	0.893
5.42522	0.898
5.4652	0.913
5.50518	0.911
5.54516	0.919
5.58513	0.908
5.62511	0.899
5.66509	0.859
5.70507	0.843
5.74505	0.829
5.78503	0.856
5.82501	0.839
5.86499	0.826
5.90497	0.809
5.94495	0.791
5.98492	0.749
6.0249	0.739
6.06488	0.714
6.10486	0.714
6.14484	0.747
6.18482	0.794
6.2248	0.818
6.26478	0.819
6.30476	0.828
6.34474	0.806
6.38472	0.818
6.42469	0.799
6.46467	0.813
6.50465	0.797
6.54463	0.796
6.58461	0.756
6.62459	0.701
6.66457	0.602
6.70455	0.442
6.74453	0.123
6.78451	0.03
6.82448	0.036
6.86446	0.048
6.90444	0.14
6.94442	0.362
6.9844	0.432
7.02438	0.26
7.06436	0.338
7.10434	0.45
7.14432	0.49
7.1843	0.232
7.22427	0.06
7.26425	0.247
7.30423	0.373
7.34421	0.515
7.38419	0.457
7.42417	0.362
7.46415	0.562
7.50413	0.626
7.54411	0.637
7.58409	0.647
7.62407	0.642
7.66404	0.594
7.70402	0.472
7.744	0.44
7.78398	0.477
7.82396	0.437
7.86394	0.393
7.90392	0.454
7.9439	0.609
7.98388	0.631
8.02386	0.706
8.06383	0.739
8.10381	0.759
8.14379	0.767
8.18377	0.761
8.22375	0.744
8.26373	0.711
8.30371	0.532
8.34369	0.29
8.38367	0.404
8.42365	0.317
8.46363	0.227
8.5036	0.378
8.54358	0.459
8.58356	0.32
8.62354	0.16
8.66352	0.232
8.7035	0.482
8.74348	0.697
8.78346	0.771
8.82344	0.813
8.86342	0.839
8.90339	0.844
8.94337	0.851
8.98335	0.856
9.02333	0.844
9.06331	0.808
9.10329	0.716
9.14327	0.507
9.18325	0.262
9.22323	0.202
9.26321	0.333
9.30318	0.53
9.34316	0.599
9.38314	0.582
9.42312	0.617
9.4631	0.651
9.50308	0.626
9.54306	0.624
9.58304	0.611
9.62302	0.522
9.663	0.34
9.70298	0.15
9.74295	0.14
9.78293	0.212
9.82291	0.36
9.86289	0.534
9.90287	0.565
9.94285	0.549
9.98283	0.606
10.0228	0.682
10.0628	0.739
10.1028	0.757
10.1427	0.776
10.1827	0.789
10.2227	0.779
10.2627	0.759
10.3027	0.726
10.3426	0.582
10.3826	0.397
10.4226	0.439
10.4626	0.619
10.5026	0.727
10.5425	0.787
10.5825	0.826
10.6225	0.841
10.6625	0.849
10.7025	0.853
10.7424	0.859
10.7824	0.863
10.8224	0.873
10.8624	0.871
10.9023	0.864
10.9423	0.866
10.9823	0.871
11.0223	0.866
11.0623	0.846
11.1022	0.806
11.1422	0.747
11.1822	0.641
11.2222	0.504
11.2622	0.338
11.3021	0.193
11.3421	0.14
11.3821	0.108
11.4221	0.11
11.4621	0.115
11.502	0.232
11.542	0.427
11.582	0.592
11.622	0.644
11.6619	0.647
11.7019	0.549
11.7419	0.514
11.7819	0.609
11.8219	0.712
11.8618	0.782
11.9018	0.844
11.9418	0.878
11.9818	0.904
12.0218	0.919
12.0617	0.928
12.1017	0.939
12.1417	0.946
12.1817	0.953
12.2217	0.958
12.2616	0.961
12.3016	0.969
12.3416	0.973
12.3816	0.973
12.4215	0.974
12.4615	0.973
12.5015	0.973
12.5415	0.969
12.5815	0.961
12.6214	0.953
12.6614	0.951
12.7014	0.946
12.7414	0.931
12.7814	0.883
12.8213	0.838
12.8613	0.759
12.9013	0.619
12.9413	0.517
12.9813	0.57
13.0212	0.712
13.0612	0.796
13.1012	0.848
13.1412	0.868
13.1812	0.878
13.2211	0.874
13.2611	0.854
13.3011	0.799
13.3411	0.771
13.381	0.789
13.421	0.816
13.461	0.834
13.501	0.834
13.541	0.828
13.5809	0.816
13.6209	0.797
13.6609	0.789
13.7009	0.776
13.7409	0.757
13.7808	0.731
13.8208	0.694
13.8608	0.667
13.9008	0.639
13.9408	0.614
13.9807	0.582
14.0207	0.547
14.0607	0.527
14.1007	0.502
14.1406	0.49
14.1806	0.472
14.2206	0.457
14.2606	0.424
14.3006	0.385
14.3405	0.343
14.3805	0.287
14.4205	0.235
14.4605	0.193
14.5005	0.156
14.5404	0.135
14.5804	0.126
14.6204	0.125
14.6604	0.128
14.7004	0.136
14.7403	0.145
14.7803	0.156
14.8203	0.18
14.8603	0.203
14.9003	0.24
14.9402	0.277
14.9802	0.322
15.0202	0.375
15.0602	0.424
15.1001	0.465
15.1401	0.519
15.1801	0.565
15.2201	0.612
15.2601	0.641
15.3	0.657
15.34	0.672
15.38	0.694
15.42	0.701
15.46	0.707
15.4999	0.712
15.5399	0.712
15.5799	0.711
15.6199	0.712
15.6599	0.712
15.6998	0.709
15.7398	0.704
15.7798	0.694
15.8198	0.682
15.8597	0.677
15.8997	0.667
15.9397	0.654
15.9797	0.639
