Infrared Spectrum: DIPHENYLDIMETHOXYSILANE
Formula: C14 H16 O2 Si
CAS: 6843-66-9
State: SOLUTION (10% IN CCl4 FOR 3800-1280, 2% IN CS2 FOR 1280-600, AND 10% IN CCl4 FOR 600-250 CM^-^1) VS. SOLVENT
Boiling point: 171 C AT 18 mmHg
Class: COBLENTZ III
Instrument: PERKIN-ELMER 521 (GRATING)
Instrument parameters: FILTERS AT 3150, 2500, 2000, 1150, 700, 410. GRATING CHANGES: 2000, 630 CM^-^1
Sampling: TRANSMISSION
Path length: 0.011 CM, 0.011 CM, AND 0.010 CM
Resolution: 2
Origin: DOW CORNING CORP.
1/CM	TRANSMITTANCE
253.793	0.692
262.988	0.696
272.184	0.704
281.379	0.723
290.575	0.769
299.77	0.779
308.965	0.768
318.161	0.758
327.356	0.75
336.552	0.757
345.747	0.769
354.943	0.789
364.138	0.794
373.333	0.792
382.529	0.782
391.724	0.745
400.92	0.722
410.115	0.686
419.31	0.645
428.506	0.66
437.701	0.729
446.897	0.709
456.092	0.653
465.287	0.599
474.483	0.594
483.678	0.518
492.874	0.312
502.069	0.439
511.265	0.364
520.46	0.098
529.655	0.047
538.851	0.531
548.046	0.719
557.242	0.764
566.437	0.792
575.632	0.811
584.828	0.825
594.023	0.829
603.219	0.83
612.414	0.83
621.61	0.83
630.805	0.83
640	0.83
649.196	0.829
658.391	0.804
667.587	0.8
676.782	0.82
685.977	0.814
695.173	0.6619
704.368	0.544
713.564	0.632
722.759	0.3611
731.954	0.618
741.15	0.4401
750.345	0.742
759.541	0.515
768.736	0.733
777.932	0.797
787.127	0.785
796.322	0.699
805.518	0.498
814.713	0.547
823.909	0.773
833.104	0.825
842.299	0.826
851.495	0.826
860.69	0.829
869.886	0.83
879.081	0.834
888.276	0.834
897.472	0.833
906.667	0.83
915.863	0.83
925.058	0.833
934.254	0.833
943.449	0.833
952.644	0.831
961.84	0.828
971.035	0.824
980.231	0.814
989.426	0.8
998.621	0.783
1007.82	0.779
1017.01	0.764
1026.21	0.723
1035.4	0.742
1044.6	0.722
1053.79	0.671
1062.99	0.541
1072.18	0.3079
1081.38	0.169
1090.58	0.26
1099.77	0.417
1108.97	0.4449
1118.16	0.389
1127.36	0.4132
1136.55	0.66
1145.75	0.698
1154.94	0.712
1164.14	0.698
1173.33	0.647
1182.53	0.55
1191.73	0.627
1200.92	0.735
1210.12	0.788
1219.31	0.813
1228.51	0.823
1237.7	0.83
1246.9	0.831
1256.09	0.823
1265.29	0.821
1274.48	0.84
1283.68	0.838
1292.87	0.836
1302.07	0.784
1311.27	0.845
1320.46	0.825
1329.66	0.821
1338.85	0.87
1348.05	0.869
1357.24	0.859
1366.44	0.84
1375.63	0.816
1384.83	0.849
1394.02	0.844
1403.22	0.833
1412.41	0.806
1421.61	0.4889
1430.81	0.5373
1440	0.767
1449.2	0.731
1458.39	0.692
1467.59	0.714
1476.78	0.743
1485.98	0.7161
1495.17	0.828
1504.37	0.841
1513.56	0.853
1522.76	0.858
1531.96	0.86
1541.15	0.848
1550.35	0.843
1559.54	0.836
1568.74	0.83
1577.93	0.815
1587.13	0.5898
1596.32	0.834
1605.52	0.856
1614.71	0.845
1623.91	0.874
1633.1	0.876
1642.3	0.87
1651.5	0.844
1660.69	0.856
1669.89	0.875
1679.08	0.885
1688.28	0.887
1697.47	0.889
1706.67	0.89
1715.86	0.887
1725.06	0.886
1734.25	0.881
1743.45	0.88
1752.65	0.879
1761.84	0.869
1771.04	0.854
1780.23	0.882
1789.43	0.892
1798.62	0.89
1807.82	0.874
1817.01	0.814
1826.21	0.823
1835.4	0.833
1844.6	0.861
1853.79	0.87
1862.99	0.867
1872.19	0.858
1881.38	0.804
1890.58	0.785
1899.77	0.801
1908.97	0.855
1918.16	0.877
1927.36	0.887
1936.55	0.885
1945.75	0.865
1954.94	0.795
1964.14	0.851
1973.34	0.87
1982.53	0.89
1991.73	0.895
2000.92	0.896
2010.12	0.8996
2019.31	0.902
2028.51	0.904
2037.7	0.905
2046.9	0.905
2056.09	0.905
2065.29	0.905
2074.48	0.905
2083.68	0.905
2092.88	0.9037
2102.07	0.901
2111.27	0.8997
2120.46	0.897
2129.66	0.8932
2138.85	0.888
2148.05	0.882
2157.24	0.884
2166.44	0.8867
2175.63	0.8907
2184.83	0.8936
2194.03	0.894
2203.22	0.894
2212.42	0.892
2221.61	0.8909
2230.81	0.8899
2240	0.8886
2249.2	0.886
2258.39	0.8877
2267.59	0.891
2276.78	0.89
2285.98	0.891
2295.17	0.8916
2304.37	0.8893
2313.57	0.889
2322.76	0.8918
2331.96	0.895
2341.15	0.895
2350.35	0.895
2359.54	0.895
2368.74	0.895
2377.93	0.895
2387.13	0.895
2396.32	0.895
2405.52	0.895
2414.71	0.895
2423.91	0.895
2433.11	0.8956
2442.3	0.8966
2451.5	0.897
2460.69	0.896
2469.89	0.8924
2479.08	0.891
2488.28	0.889
2497.47	0.887
2506.67	0.887
2515.86	0.887
2525.06	0.887
2534.26	0.887
2543.45	0.887
2552.65	0.8866
2561.84	0.886
2571.04	0.8845
2580.23	0.8772
2589.43	0.875
2598.62	0.875
2607.82	0.874
2617.01	0.8711
2626.21	0.8759
2635.4	0.877
2644.6	0.879
2653.8	0.881
2662.99	0.884
2672.19	0.885
2681.38	0.8857
2690.58	0.8796
2699.77	0.875
2708.97	0.872
2718.16	0.8782
2727.36	0.881
2736.55	0.88
2745.75	0.879
2754.95	0.876
2764.14	0.8741
2773.34	0.874
2782.53	0.8698
2791.73	0.8609
2800.92	0.8435
2810.12	0.8194
2819.31	0.7466
2828.51	0.4436
2837.7	0.118
2846.9	0.6081
2856.09	0.7436
2865.29	0.7684
2874.49	0.7542
2883.68	0.7207
2892.88	0.6591
2902.07	0.5634
2911.27	0.5279
2920.46	0.5149
2929.66	0.3061
2938.85	0.2186
2948.05	0.3774
2957.24	0.4036
2966.44	0.4174
2975.64	0.4733
2984.83	0.5405
2994.03	0.5266
3003.22	0.5017
3012.42	0.529
3021.61	0.565
3030.81	0.6071
3040	0.5269
3049.2	0.4195
3058.39	0.5239
3067.59	0.3805
3076.78	0.5658
3085.98	0.712
3095.18	0.7681
3104.37	0.8546
3113.57	0.8618
3122.76	0.8621
3131.96	0.8352
3141.15	0.8728
3150.35	0.8866
3159.54	0.89
3168.74	0.891
3177.93	0.89
3187.13	0.8911
3196.33	0.894
3205.52	0.896
3214.72	0.897
3223.91	0.897
3233.11	0.897
3242.3	0.899
3251.5	0.899
3260.69	0.9
3269.89	0.9
3279.08	0.9
3288.28	0.899
3297.47	0.899
3306.67	0.897
3315.87	0.8962
3325.06	0.895
3334.26	0.894
3343.45	0.892
3352.65	0.892
3361.84	0.891
3371.04	0.891
3380.23	0.891
3389.43	0.891
3398.62	0.89
3407.82	0.889
3417.01	0.89
3426.21	0.89
3435.41	0.891
3444.6	0.891
3453.8	0.891
3462.99	0.891
3472.19	0.891
3481.38	0.891
3490.58	0.891
3499.77	0.891
3508.97	0.891
3518.16	0.891
3527.36	0.891
3536.56	0.891
3545.75	0.892
3554.95	0.8955
3564.14	0.899
3573.34	0.901
3582.53	0.9076
3591.73	0.8992
3600.92	0.897
3610.12	0.9
3619.31	0.902
3628.51	0.894
3637.7	0.896
3646.9	0.8992
3656.1	0.9008
3665.29	0.9013
3674.49	0.9016
3683.68	0.896
3692.88	0.899
3702.07	0.901
3711.27	0.904
3720.46	0.9067
3729.66	0.9118
3738.85	0.915
3748.05	0.9141
3757.25	0.9101
3766.44	0.905
3775.64	0.9051
3784.83	0.909
3794.03	0.9112
3803.22	0.912
