Infrared Spectrum: Silane, chlorodimethylethyl-,
Formula: C4 H11 Cl Si
CAS: 6917-76-6
State: SOLUTION (11% CCl4 FOR 3800-1300, 4% CS2 FOR 1300-650, AND 11% CCl4 FOR 650-250)
Boiling point: 90 C
Class: COBLENTZ III
Instrument: PERKIN-ELMER 521 (GRATING)
Instrument parameters: FILTERS AT 3150, 2500, 2000, 1150, 700, 410. GRATING CHANGES: 2000, 630
Path length: 0.011 CM, 0.011 CM, AND 0.012 CM
Resolution: 2
Origin: DOW CORNING CORP.
1/CM	TRANSMITTANCE
242	0.8355
251	0.8375
260	0.8356
269	0.8357
278	0.8364
287	0.8358
296	0.8339
305	0.8333
314	0.8329
323	0.8274
332	0.7972
341	0.7573
350	0.8747
359	0.9192
368	0.9238
377	0.9289
386	0.9313
395	0.9323
404	0.9312
413	0.9299
422	0.9084
431	0.9073
440	0.8961
449	0.8615
458	0.6228
467	0.2215
476	0.204
485	0.3155
494	0.4689
503	0.7717
512	0.8567
521	0.9135
530	0.9199
539	0.9209
548	0.9336
557	0.9304
566	0.9267
575	0.9188
584	0.907
593	0.8878
602	0.8337
611	0.3705
620	0.3135
629	0.8304
638	0.8434
647	0.8346
656	0.7955
665	0.837
674	0.8491
683	0.8251
692	0.7739
701	0.6579
710	0.5241
719	0.7032
728	0.7867
737	0.8018
746	0.7826
755	0.7679
764	0.7404
773	0.6856
782	0.3991
791	0.1435
800	0.3542
809	0.2359
818	0.185
827	0.3933
836	0.3029
845	0.1929
854	0.489
863	0.6408
872	0.737
881	0.8178
890	0.837
899	0.8403
908	0.8447
917	0.8589
926	0.8578
935	0.8512
944	0.8298
953	0.7521
962	0.5961
971	0.7784
980	0.8371
989	0.829
998	0.7604
1007	0.6655
1016	0.5304
1025	0.7935
1034	0.7846
1043	0.7514
1052	0.7216
1061	0.7208
1070	0.7502
1079	0.7964
1088	0.8271
1097	0.8467
1106	0.857
1115	0.8621
1124	0.8652
1133	0.867
1142	0.8675
1151	0.8679
1160	0.8681
1169	0.8675
1178	0.8661
1187	0.862
1196	0.8565
1205	0.844
1214	0.8049
1223	0.7453
1232	0.7028
1241	0.5877
1250	0.2666
1259	0.4007
1268	0.7603
1277	0.8136
1286	0.8356
1295	0.8423
1304	0.8104
1313	0.8115
1322	0.8168
1331	0.8313
1340	0.8366
1349	0.8367
1358	0.8335
1367	0.8088
1376	0.7244
1385	0.7067
1394	0.687
1403	0.6048
1412	0.4774
1421	0.5962
1430	0.7257
1439	0.7412
1448	0.6949
1457	0.5144
1466	0.5356
1475	0.763
1484	0.8148
1493	0.836
1502	0.8528
1511	0.8667
1520	0.8789
1529	0.8914
1538	0.9013
1547	0.9015
1556	0.8953
1565	0.8873
1574	0.8835
1583	0.8815
1592	0.8758
1601	0.8705
1610	0.866
1619	0.864
1628	0.865
1637	0.8662
1646	0.8677
1655	0.8695
1664	0.8703
1673	0.8708
1682	0.8706
1691	0.8703
1700	0.8709
1709	0.8718
1718	0.8712
1727	0.8707
1736	0.8719
1745	0.8766
1754	0.8817
1763	0.8841
1772	0.8862
1781	0.8869
1790	0.8874
1799	0.8874
1808	0.8867
1817	0.8856
1826	0.8839
1835	0.8818
1844	0.8782
1853	0.8739
1862	0.8696
1871	0.8667
1880	0.8737
1889	0.8803
1898	0.8776
1907	0.8772
1916	0.8767
1925	0.8742
1934	0.8704
1943	0.8645
1952	0.8615
1961	0.8668
1970	0.8783
1979	0.8827
1988	0.8855
1997	0.8882
2006	0.9044
2015	0.9077
2024	0.9069
2033	0.9048
2042	0.902
2051	0.8999
2060	0.8998
2069	0.9011
2078	0.9018
2087	0.902
2096	0.9023
2105	0.9
2114	0.8953
2123	0.8965
2132	0.8982
2141	0.8997
2150	0.9013
2159	0.9033
2168	0.905
2177	0.9051
2186	0.9052
2195	0.9054
2204	0.9063
2213	0.9067
2222	0.9077
2231	0.9087
2240	0.9099
2249	0.9114
2258	0.913
2267	0.9137
2276	0.9139
2285	0.9142
2294	0.9145
2303	0.9148
2312	0.9142
2321	0.9129
2330	0.9122
2339	0.9117
2348	0.9113
2357	0.9108
2366	0.9109
2375	0.9109
2384	0.911
2393	0.911
2402	0.9111
2411	0.9113
2420	0.9114
2429	0.9115
2438	0.9117
2447	0.9118
2456	0.9118
2465	0.9119
2474	0.9119
2483	0.912
2492	0.9121
2501	0.9122
2510	0.9124
2519	0.9124
2528	0.9124
2537	0.9123
2546	0.9122
2555	0.9121
2564	0.912
2573	0.9118
2582	0.9107
2591	0.9094
2600	0.9082
2609	0.9069
2618	0.9057
2627	0.9041
2636	0.9021
2645	0.9001
2654	0.9008
2663	0.9041
2672	0.904
2681	0.9022
2690	0.898
2699	0.8968
2708	0.8996
2717	0.8991
2726	0.8922
2735	0.8732
2744	0.8591
2753	0.8815
2762	0.883
2771	0.8767
2780	0.8686
2789	0.849
2798	0.8113
2807	0.8023
2816	0.8114
2825	0.8152
2834	0.8069
2843	0.7964
2852	0.7959
2861	0.7681
2870	0.6466
2879	0.4561
2888	0.2581
2897	0.435
2906	0.4494
2915	0.3872
2924	0.3535
2933	0.4907
2942	0.3967
2951	0.3145
2960	0.2046
2969	0.1098
2978	0.2861
2987	0.5331
2996	0.6511
3005	0.7623
3014	0.8072
3023	0.8234
3032	0.834
3041	0.8428
3050	0.851
3059	0.8573
3068	0.8608
3077	0.8633
3086	0.865
3095	0.8662
3104	0.8658
3113	0.8652
3122	0.8647
3131	0.8711
3140	0.8752
3149	0.8719
3158	0.8711
3167	0.8728
3176	0.8745
3185	0.877
3194	0.8809
3203	0.8846
3212	0.8882
3221	0.8901
3230	0.8918
3239	0.8936
3248	0.8957
3257	0.8978
3266	0.9007
3275	0.9031
3284	0.9047
3293	0.9058
3302	0.907
3311	0.908
3320	0.9091
3329	0.91
3338	0.911
3347	0.9119
3356	0.9128
3365	0.9134
3374	0.914
3383	0.9146
3392	0.9152
3401	0.9156
3410	0.9155
3419	0.9154
3428	0.9154
3437	0.9153
3446	0.9153
3455	0.9148
3464	0.9142
3473	0.9135
3482	0.9128
3491	0.9121
3500	0.9115
3509	0.9108
3518	0.9105
3527	0.9102
3536	0.9099
3545	0.9096
3554	0.9093
3563	0.9095
3572	0.9098
3581	0.91
3590	0.9103
3599	0.9105
3608	0.9108
3617	0.9115
3626	0.9123
3635	0.9109
3644	0.9078
3653	0.9031
3662	0.9007
3671	0.8997
3680	0.8985
3689	0.8966
3698	0.8927
3707	0.893
3716	0.8957
3725	0.899
3734	0.9
3743	0.9004
3752	0.8995
3761	0.9033
3770	0.9083
3779	0.9112
3788	0.9132
3797	0.9131
3806	0.9131
