Infrared Spectrum: 2-Benzylaminopyridine 180-250um
Formula: C 12 H 12 N 2
CAS: 6935-27-9
State: solid
Instrument: Bruker Tensor 37 FTIR
Resolution: 0.96450084
Origin: Pacific Northwest National Laboratory Under IARPA Contract
1/cm	Reflectance
7498.03	0.670994
7480.67	0.669402
7463.31	0.670475
7445.95	0.672032
7428.59	0.671443
7411.23	0.666017
7393.87	0.653534
7376.51	0.64151
7359.15	0.647243
7341.79	0.650083
7324.43	0.637127
7307.07	0.636184
7289.71	0.632788
7272.35	0.644093
7254.99	0.642902
7237.63	0.64365
7220.27	0.652121
7202.91	0.647727
7185.55	0.650781
7168.19	0.65593
7150.83	0.660484
7133.47	0.66344
7116.11	0.669017
7098.75	0.673395
7081.39	0.672033
7064.03	0.679278
7046.67	0.677079
7029.31	0.674592
7011.96	0.667224
6994.6	0.656863
6977.24	0.631937
6959.88	0.588572
6942.52	0.57806
6925.16	0.584699
6907.8	0.569637
6890.44	0.543629
6873.08	0.540054
6855.72	0.535956
6838.36	0.508488
6821	0.4426
6803.64	0.388709
6786.28	0.386663
6768.92	0.32718
6751.56	0.250099
6734.2	0.227041
6716.84	0.232845
6699.48	0.286463
6682.12	0.347465
6664.76	0.409463
6647.4	0.398468
6630.04	0.448513
6612.68	0.451029
6595.32	0.452929
6577.96	0.444855
6560.6	0.479921
6543.24	0.457769
6525.88	0.486933
6508.52	0.487734
6491.16	0.494411
6473.8	0.507836
6456.44	0.522996
6439.08	0.51525
6421.72	0.516146
6404.36	0.525953
6387	0.525831
6369.64	0.513705
6352.28	0.525552
6334.92	0.536321
6317.56	0.532489
6300.2	0.534898
6282.84	0.524159
6265.48	0.533636
6248.12	0.525207
6230.76	0.517555
6213.4	0.478928
6196.04	0.436272
6178.68	0.373292
6161.32	0.238171
6143.97	0.240347
6126.61	0.294423
6109.25	0.306551
6091.89	0.224146
6074.53	0.160466
6057.17	0.136483
6039.81	0.179577
6022.45	0.192667
6005.09	0.199148
5987.73	0.220554
5970.37	0.2183
5953.01	0.191237
5935.65	0.187329
5918.29	0.186557
5900.93	0.219426
5883.57	0.19052
5866.21	0.205691
5848.85	0.179628
5831.49	0.198542
5814.13	0.157282
5796.77	0.15549
5779.41	0.0928626
5762.05	0.112779
5744.69	0.153418
5727.33	0.166477
5709.97	0.174605
5692.61	0.165202
5675.25	0.187115
5657.89	0.196612
5640.53	0.209684
5623.17	0.21354
5605.81	0.184731
5588.45	0.204773
5571.09	0.161473
5553.73	0.234295
5536.37	0.238842
5519.01	0.2674
5501.65	0.258859
5484.29	0.223733
5466.93	0.186502
5449.57	0.143295
5432.21	0.0871345
5414.85	0.0567787
5397.49	0.0466708
5380.13	0.0382271
5362.77	0.0364129
5345.41	0.0388582
5328.05	0.0413656
5310.69	0.0421803
5293.33	0.0365595
5275.97	0.0370126
5258.62	0.0377977
5241.26	0.0401887
5223.9	0.0417526
5206.54	0.0424509
5189.18	0.0416079
5171.82	0.0503366
5154.46	0.0494302
5137.1	0.0548357
5119.74	0.0742574
5102.38	0.087721
5085.02	0.0892546
5067.66	0.117515
5050.3	0.116776
5032.94	0.10638
5015.58	0.106963
4998.22	0.0704551
4980.86	0.0960188
4963.5	0.104934
4946.14	0.109442
4928.78	0.116584
4911.42	0.0902793
4894.06	0.117655
4876.7	0.106937
4859.34	0.124852
4841.98	0.131029
4824.62	0.142148
4807.26	0.129958
4789.9	0.13771
4772.54	0.137297
4755.18	0.126893
4737.82	0.125345
4720.46	0.0643298
4703.1	0.0921998
4685.74	0.087132
4668.38	0.0781051
4651.02	0.0574987
4633.66	0.0698103
4616.3	0.0702935
4598.94	0.052812
4581.58	0.0449135
4564.22	0.035114
4546.86	0.0427591
4529.5	0.0391934
4512.14	0.0405658
4494.78	0.0363202
4477.42	0.0329829
4460.06	0.0474499
4442.7	0.0403483
4425.34	0.0373876
4407.98	0.0413395
4390.63	0.0406834
4373.27	0.0372785
4355.91	0.045694
4338.55	0.0398224
4321.19	0.0427125
4303.83	0.0499157
4286.47	0.035811
4269.11	0.049962
4251.75	0.047934
4234.39	0.0414224
4217.03	0.0669686
4199.67	0.0494673
4182.31	0.0492527
4164.95	0.0415932
4147.59	0.0343223
4130.23	0.0315649
4112.87	0.0351159
4095.51	0.0400515
4078.15	0.0417917
4060.79	0.0356923
4043.43	0.672608
4026.07	0.66453
4008.71	0.670347
3991.35	0.67023
3973.99	0.669776
3956.63	0.660947
3939.27	0.65555
3921.91	0.647301
3904.55	0.650081
3887.19	0.649433
3869.83	0.638938
3852.47	0.634471
3835.11	0.641869
3817.75	0.646785
3800.39	0.646453
3783.03	0.650031
3765.67	0.653437
3748.31	0.651804
3730.95	0.656543
3713.59	0.659956
3696.23	0.662417
3678.87	0.667097
3661.51	0.672878
3644.15	0.676694
3626.79	0.676425
3609.43	0.679512
3592.07	0.679087
3574.71	0.673446
3557.35	0.666551
3539.99	0.651377
3522.64	0.625566
3505.28	0.583433
3487.92	0.58772
3470.56	0.591772
3453.2	0.563502
3435.84	0.549144
3418.48	0.546139
3401.12	0.537498
3383.76	0.502231
3366.4	0.4427
3349.04	0.398031
3331.68	0.390625
3314.32	0.289187
3296.96	0.26371
3279.6	0.253142
3262.24	0.242368
3244.88	0.323356
3227.52	0.386333
3210.16	0.417166
3192.8	0.418676
3175.44	0.473321
3158.08	0.44733
3140.72	0.454976
3123.36	0.471901
3106	0.489729
3088.64	0.47832
3071.28	0.500519
3053.92	0.500327
3036.56	0.510308
3019.2	0.521364
3001.84	0.530751
2984.48	0.525569
2967.12	0.530852
2949.76	0.535221
2932.4	0.532641
2915.04	0.523968
2897.68	0.540215
2880.32	0.544185
2862.96	0.536021
2845.6	0.548192
2828.24	0.534595
2810.88	0.543088
2793.52	0.530597
2776.16	0.518937
2758.8	0.474654
2741.44	0.427905
2724.08	0.344106
2706.72	0.215216
2689.36	0.272588
2672	0.319211
2654.64	0.2917
2637.29	0.183128
2619.93	0.168318
2602.57	0.166447
2585.21	0.166167
2567.85	0.21318
2550.49	0.212308
2533.13	0.23304
2515.77	0.219834
2498.41	0.206715
2481.05	0.159945
2463.69	0.224973
2446.33	0.230296
2428.97	0.196777
2411.61	0.215564
2394.25	0.212627
2376.89	0.185284
2359.53	0.177736
2342.17	0.125814
2324.81	0.0861534
2307.45	0.14379
2290.09	0.180605
2272.73	0.176687
2255.37	0.169893
2238.01	0.168323
2220.65	0.203927
2203.29	0.195727
2185.93	0.229117
2168.57	0.21822
2151.21	0.205239
2133.85	0.185733
2116.49	0.209613
2099.13	0.244701
2081.77	0.269496
2064.41	0.26802
2047.05	0.250601
2029.69	0.212019
2012.33	0.178899
1994.97	0.131081
1977.61	0.0737212
1960.25	0.0542615
1942.89	0.0440267
1925.53	0.0373065
1908.17	0.038395
1890.81	0.0402467
1873.45	0.0419548
1856.09	0.0417835
1838.73	0.0383845
1821.37	0.038577
1804.01	0.0397129
1786.65	0.0413503
1769.3	0.0433856
1751.94	0.0395763
1734.58	0.0399655
1717.22	0.0499848
1699.86	0.0573266
1682.5	0.0657322
1665.14	0.0766118
1647.78	0.0833525
1630.42	0.0968864
1613.06	0.101276
1595.7	0.121619
1578.34	0.11374
1560.98	0.10526
1543.62	0.0834944
1526.26	0.103686
1508.9	0.0970785
1491.54	0.123535
1474.18	0.0951918
1456.82	0.0986
1439.46	0.121978
1422.1	0.142836
1404.74	0.0889405
1387.38	0.148913
1370.02	0.14667
1352.66	0.133722
1335.3	0.152731
1317.94	0.136443
1300.58	0.149715
1283.22	0.0798447
1265.86	0.0628025
1248.5	0.0760332
1231.14	0.0966818
1213.78	0.0667019
1196.42	0.0778002
1179.06	0.0671679
1161.7	0.0779521
1144.34	0.0492226
1126.98	0.0445813
1109.62	0.0290469
1092.26	0.0309124
1074.9	0.0376104
1057.54	0.0407311
1040.18	0.035851
1022.82	0.0425339
1005.46	0.0485581
988.104	0.0385187
970.744	0.0341579
953.384	0.0403452
936.025	0.0423483
918.665	0.0391714
901.305	0.0491086
883.945	0.033386
866.585	0.0381945
849.226	0.0492035
831.866	0.0453901
814.506	0.0381268
797.146	0.0313478
779.786	0.0467471
762.427	0.0540729
745.067	0.0560453
727.707	0.0434568
710.347	0.0358036
692.987	0.0295228
675.628	0.0423046
658.268	0.0303449
640.908	0.0357307
623.548	0.0404852
606.188	0.0382439
