Infrared Spectrum: 2-Benzylaminopyridine 90-180um
Formula: C 12 H 12 N 2
CAS: 6935-27-9
State: solid
Instrument: Bruker Tensor 37 FTIR
Resolution: 0.96450084
Origin: Pacific Northwest National Laboratory Under IARPA Contract
1/cm	Reflectance
7498.03	0.702356
7480.67	0.704275
7463.31	0.693976
7445.95	0.694212
7428.59	0.696504
7411.22	0.694494
7393.86	0.698288
7376.5	0.698077
7359.14	0.694495
7341.78	0.696333
7324.42	0.692759
7307.06	0.68901
7289.7	0.687132
7272.34	0.679832
7254.98	0.674165
7237.61	0.675116
7220.25	0.675977
7202.89	0.675601
7185.53	0.676387
7168.17	0.674758
7150.81	0.671459
7133.45	0.667717
7116.09	0.67076
7098.73	0.668178
7081.37	0.667028
7064	0.671529
7046.64	0.676593
7029.28	0.668338
7011.92	0.673432
6994.56	0.677462
6977.2	0.679921
6959.84	0.678103
6942.48	0.678552
6925.12	0.679386
6907.75	0.683417
6890.39	0.67785
6873.03	0.681545
6855.67	0.683805
6838.31	0.68545
6820.95	0.687621
6803.59	0.689571
6786.23	0.690884
6768.87	0.696572
6751.51	0.694956
6734.14	0.699791
6716.78	0.695242
6699.42	0.699044
6682.06	0.699841
6664.7	0.702592
6647.34	0.701538
6629.98	0.70659
6612.62	0.703117
6595.26	0.704345
6577.9	0.702552
6560.53	0.698162
6543.17	0.695045
6525.81	0.698579
6508.45	0.691491
6491.09	0.683427
6473.73	0.675388
6456.37	0.666058
6439.01	0.646169
6421.65	0.628647
6404.29	0.613647
6386.92	0.620158
6369.56	0.623301
6352.2	0.623225
6334.84	0.622209
6317.48	0.612036
6300.12	0.595895
6282.76	0.587017
6265.4	0.587349
6248.04	0.584249
6230.68	0.582943
6213.31	0.585072
6195.95	0.572463
6178.59	0.561299
6161.23	0.530941
6143.87	0.497473
6126.51	0.479892
6109.15	0.444278
6091.79	0.438219
6074.43	0.446189
6057.07	0.431369
6039.7	0.383741
6022.34	0.313997
6004.98	0.306066
5987.62	0.301334
5970.26	0.282513
5952.9	0.2932
5935.54	0.287876
5918.18	0.293682
5900.82	0.34762
5883.46	0.382769
5866.09	0.40776
5848.73	0.447365
5831.37	0.468431
5814.01	0.458663
5796.65	0.455033
5779.29	0.477601
5761.93	0.504538
5744.57	0.519076
5727.21	0.506809
5709.84	0.491074
5692.48	0.507689
5675.12	0.491259
5657.76	0.500124
5640.4	0.52319
5623.04	0.5324
5605.68	0.531768
5588.32	0.513361
5570.96	0.530419
5553.6	0.540487
5536.23	0.543077
5518.87	0.541347
5501.51	0.541813
5484.15	0.545776
5466.79	0.556184
5449.43	0.559346
5432.07	0.565536
5414.71	0.57253
5397.35	0.570969
5379.99	0.565118
5362.62	0.566488
5345.26	0.566432
5327.9	0.571201
5310.54	0.574799
5293.18	0.577443
5275.82	0.575694
5258.46	0.568792
5241.1	0.563926
5223.74	0.566752
5206.38	0.575579
5189.01	0.583201
5171.65	0.584682
5154.29	0.58378
5136.93	0.579845
5119.57	0.577904
5102.21	0.583507
5084.85	0.583687
5067.49	0.573602
5050.13	0.575413
5032.77	0.581123
5015.4	0.583674
4998.04	0.574349
4980.68	0.571716
4963.32	0.566303
4945.96	0.55393
4928.6	0.532485
4911.24	0.512799
4893.88	0.492563
4876.52	0.467224
4859.16	0.432657
4841.79	0.371286
4824.43	0.289205
4807.07	0.252028
4789.71	0.294139
4772.35	0.328489
4754.99	0.353955
4737.63	0.375879
4720.27	0.366321
4702.91	0.325795
4685.55	0.279303
4668.18	0.211951
4650.82	0.205428
4633.46	0.193603
4616.1	0.174419
4598.74	0.213222
4581.38	0.229341
4564.02	0.224986
4546.66	0.244697
4529.3	0.260325
4511.93	0.251983
4494.57	0.261913
4477.21	0.275172
4459.85	0.280766
4442.49	0.272481
4425.13	0.253955
4407.77	0.242326
4390.41	0.259403
4373.05	0.237884
4355.69	0.185877
4338.32	0.237866
4320.96	0.273864
4303.6	0.274155
4286.24	0.275898
4268.88	0.24069
4251.52	0.251861
4234.16	0.258355
4216.8	0.246989
4199.44	0.22849
4182.08	0.259331
4164.71	0.251461
4147.35	0.2138
4129.99	0.203074
4112.63	0.219756
4095.27	0.199511
4077.91	0.141562
4060.55	0.115859
4043.19	0.101134
4025.83	0.145465
4008.47	0.178646
3991.1	0.197859
3973.74	0.229164
3956.38	0.214288
3939.02	0.228616
3921.66	0.223891
3904.3	0.205336
3886.94	0.213676
3869.58	0.220703
3852.22	0.239829
3834.86	0.251142
3817.49	0.250657
3800.13	0.253162
3782.77	0.264187
3765.41	0.282666
3748.05	0.270343
3730.69	0.253745
3713.33	0.237708
3695.97	0.265834
3678.61	0.260126
3661.25	0.213356
3643.88	0.209416
3626.52	0.251634
3609.16	0.294446
3591.8	0.304937
3574.44	0.300352
3557.08	0.330012
3539.72	0.333027
3522.36	0.324087
3505	0.324337
3487.64	0.303786
3470.27	0.285201
3452.91	0.264035
3435.55	0.24093
3418.19	0.215929
3400.83	0.186681
3383.47	0.152504
3366.11	0.107751
3348.75	0.0759357
3331.39	0.0621717
3314.02	0.0538194
3296.66	0.0475882
3279.3	0.0417564
3261.94	0.0373769
3244.58	0.0348169
3227.22	0.0355448
3209.86	0.0369738
3192.5	0.0381252
3175.14	0.0391827
3157.78	0.0407151
3140.41	0.0393429
3123.05	0.0411352
3105.69	0.0382039
3088.33	0.0351817
3070.97	0.0376608
3053.61	0.035437
3036.25	0.0359927
3018.89	0.0363667
3001.53	0.0384423
2984.17	0.0392695
2966.8	0.0398307
2949.44	0.0413731
2932.08	0.0423881
2914.72	0.0417238
2897.36	0.0392153
2880	0.0413689
2862.64	0.0401066
2845.28	0.0530413
2827.92	0.0479708
2810.56	0.0509281
2793.19	0.0596813
2775.83	0.0590758
2758.47	0.0778889
2741.11	0.090513
2723.75	0.100579
2706.39	0.110654
2689.03	0.106562
2671.67	0.113518
2654.31	0.13001
2636.95	0.153869
2619.58	0.140677
2602.22	0.152122
2584.86	0.135064
2567.5	0.139071
2550.14	0.133269
2532.78	0.141098
2515.42	0.118231
2498.06	0.0833157
2480.7	0.108752
2463.34	0.12062
2445.97	0.128611
2428.61	0.135784
2411.25	0.125093
2393.89	0.140113
2376.53	0.147765
2359.17	0.157279
2341.81	0.0962566
2324.45	0.116746
2307.09	0.136712
2289.72	0.154249
2272.36	0.158281
2255	0.139501
2237.64	0.181309
2220.28	0.162872
2202.92	0.108098
2185.56	0.171469
2168.2	0.188097
2150.84	0.184421
2133.48	0.187324
2116.11	0.168674
2098.75	0.175563
2081.39	0.179077
2064.03	0.194178
2046.67	0.180172
2029.31	0.170628
2011.95	0.167611
1994.59	0.196662
1977.23	0.165724
1959.87	0.0838622
1942.5	0.0797665
1925.14	0.105966
1907.78	0.12115
1890.42	0.089829
1873.06	0.115052
1855.7	0.112824
1838.34	0.101555
1820.98	0.0784595
1803.62	0.068627
1786.26	0.101613
1768.89	0.089457
1751.53	0.100167
1734.17	0.0884161
1716.81	0.0986015
1699.45	0.0637026
1682.09	0.0518391
1664.73	0.0512819
1647.37	0.0454701
1630.01	0.0375575
1612.65	0.0320169
1595.28	0.0424593
1577.92	0.0354509
1560.56	0.0388391
1543.2	0.035857
1525.84	0.0411635
1508.48	0.0408434
1491.12	0.0357445
1473.76	0.0315289
1456.4	0.0318979
1439.04	0.048173
1421.67	0.0499746
1404.31	0.0510784
1386.95	0.0409876
1369.59	0.0367045
1352.23	0.037939
1334.87	0.039908
1317.51	0.0418705
1300.15	0.0371808
1282.79	0.0405739
1265.43	0.0430161
1248.06	0.0367147
1230.7	0.0342869
1213.34	0.0487563
1195.98	0.056222
1178.62	0.0420419
1161.26	0.0366403
1143.9	0.0448441
1126.54	0.0353032
1109.18	0.0576321
1091.81	0.0408266
1074.45	0.0345284
1057.09	0.0508214
1039.73	0.0601175
1022.37	0.0565982
1005.01	0.0564035
987.649	0.030414
970.288	0.0442782
952.927	0.0787637
935.566	0.0881683
918.205	0.0480458
900.844	0.0596362
883.483	0.0729015
866.122	0.0616846
848.761	0.0464531
831.4	0.0473265
814.039	0.0392697
796.678	0.0371243
779.317	0.0300526
761.956	0.0306281
744.595	0.0389834
727.234	0.034333
709.873	0.028583
692.512	0.0380454
675.151	0.0368591
657.79	0.0418578
640.429	0.0420011
623.068	0.0336654
605.707	0.0460444
