Infrared Spectrum: 2-Benzylaminopyridine >500um
Formula: C 12 H 12 N 2
CAS: 6935-27-9
State: solid
Instrument: Bruker Tensor 37 FTIR
Resolution: 0.96450084
Origin: Pacific Northwest National Laboratory Under IARPA Contract
1/cm	Reflectance
7498.03	0.627031
7480.67	0.615216
7463.31	0.610985
7445.95	0.618672
7428.59	0.622416
7411.23	0.613897
7393.87	0.597769
7376.51	0.586027
7359.15	0.581908
7341.79	0.588797
7324.43	0.576753
7307.07	0.570904
7289.71	0.570674
7272.35	0.580117
7254.99	0.579549
7237.63	0.587315
7220.27	0.588413
7202.91	0.588607
7185.55	0.58887
7168.19	0.59734
7150.83	0.602481
7133.47	0.608013
7116.11	0.616135
7098.75	0.618524
7081.39	0.618002
7064.03	0.624426
7046.67	0.624309
7029.31	0.617874
7011.96	0.61178
6994.6	0.595234
6977.24	0.568568
6959.88	0.516322
6942.52	0.500336
6925.16	0.50848
6907.8	0.488615
6890.44	0.454653
6873.08	0.452419
6855.72	0.447738
6838.36	0.416304
6821	0.344046
6803.64	0.289236
6786.28	0.286257
6768.92	0.237418
6751.56	0.181143
6734.2	0.16382
6716.84	0.167997
6699.48	0.207171
6682.12	0.255344
6664.76	0.30908
6647.4	0.301069
6630.04	0.351242
6612.68	0.353068
6595.32	0.354304
6577.96	0.347412
6560.6	0.384361
6543.24	0.360062
6525.88	0.392214
6508.52	0.391363
6491.16	0.397468
6473.8	0.414306
6456.44	0.431901
6439.08	0.42234
6421.72	0.42491
6404.36	0.433303
6387	0.432727
6369.64	0.419488
6352.28	0.431022
6334.92	0.444832
6317.56	0.439868
6300.2	0.442525
6282.84	0.43103
6265.48	0.441083
6248.12	0.43277
6230.76	0.422608
6213.4	0.380594
6196.04	0.335668
6178.68	0.278432
6161.32	0.179527
6143.97	0.17745
6126.61	0.210372
6109.25	0.218266
6091.89	0.158396
6074.53	0.120963
6057.17	0.107627
6039.81	0.13144
6022.45	0.137466
6005.09	0.141274
5987.73	0.155528
5970.37	0.152888
5953.01	0.136972
5935.65	0.134156
5918.29	0.133348
5900.93	0.1537
5883.57	0.137529
5866.21	0.14561
5848.85	0.129282
5831.49	0.140876
5814.13	0.117142
5796.77	0.115458
5779.41	0.0848763
5762.05	0.0946052
5744.69	0.114599
5727.33	0.121262
5709.97	0.125786
5692.61	0.120586
5675.25	0.13301
5657.89	0.138739
5640.53	0.145611
5623.17	0.148611
5605.81	0.130281
5588.45	0.141741
5571.09	0.115824
5553.73	0.156859
5536.37	0.157927
5519.01	0.176308
5501.65	0.169362
5484.29	0.148143
5466.93	0.128137
5449.57	0.106921
5432.21	0.0798983
5414.85	0.0613333
5397.49	0.0525111
5380.13	0.0434029
5362.77	0.0413079
5345.41	0.0443591
5328.05	0.0474385
5310.69	0.0480939
5293.33	0.0415634
5275.97	0.0423879
5258.62	0.0427682
5241.26	0.0464439
5223.9	0.0487013
5206.54	0.0494256
5189.18	0.0491151
5171.82	0.0571411
5154.46	0.0560728
5137.1	0.0603602
5119.74	0.0725559
5102.38	0.0790156
5085.02	0.0798073
5067.66	0.0923618
5050.3	0.0924324
5032.94	0.0866101
5015.58	0.0864305
4998.22	0.0696037
4980.86	0.0829636
4963.5	0.0866419
4946.14	0.0893009
4928.78	0.0914527
4911.42	0.0790539
4894.06	0.0911483
4876.7	0.085389
4859.34	0.0950388
4841.98	0.0974556
4824.62	0.104067
4807.26	0.0977035
4789.9	0.10138
4772.54	0.0994407
4755.18	0.0931932
4737.82	0.0917007
4720.46	0.0629449
4703.1	0.0758523
4685.74	0.0730617
4668.38	0.0684266
4651.02	0.0582216
4633.66	0.0635871
4616.3	0.0633994
4598.94	0.0531566
4581.58	0.0473663
4564.22	0.0374166
4546.86	0.0472164
4529.5	0.044956
4512.14	0.0447503
4494.78	0.0403995
4477.42	0.0363203
4460.06	0.0514295
4442.7	0.0455117
4425.34	0.0414153
4407.98	0.0448753
4390.63	0.0453166
4373.27	0.0413653
4355.91	0.048791
4338.55	0.0437092
4321.19	0.0459319
4303.83	0.0500428
4286.47	0.0385343
4269.11	0.05104
4251.75	0.0478781
4234.39	0.0446946
4217.03	0.056242
4199.67	0.0478502
4182.31	0.0469262
4164.95	0.0417585
4147.59	0.0355236
4130.23	0.0349674
4112.87	0.0388896
4095.51	0.0438595
4078.15	0.0433989
4060.79	0.039283
4043.43	0.625736
4026.07	0.609543
4008.71	0.615856
3991.35	0.618863
3973.99	0.615414
3956.63	0.615793
3939.27	0.595565
3921.91	0.584727
3904.55	0.591445
3887.19	0.579737
3869.83	0.570527
3852.47	0.565714
3835.11	0.575237
3817.75	0.580355
3800.39	0.581396
3783.03	0.585655
3765.67	0.584414
3748.31	0.586207
3730.95	0.587969
3713.59	0.600599
3696.23	0.604601
3678.87	0.606054
3661.51	0.612098
3644.15	0.620762
3626.79	0.618107
3609.43	0.624947
3592.07	0.622363
3574.71	0.61068
3557.35	0.605127
3539.99	0.582785
3522.64	0.552939
3505.28	0.49355
3487.92	0.498259
3470.56	0.502105
3453.2	0.466195
3435.84	0.445849
3418.48	0.445593
3401.12	0.435581
3383.76	0.391759
3366.4	0.326972
3349.04	0.283308
3331.68	0.275778
3314.32	0.198842
3296.96	0.175854
3279.6	0.171922
3262.24	0.162842
3244.88	0.21924
3227.52	0.271136
3210.16	0.301055
3192.8	0.303094
3175.44	0.35888
3158.08	0.32926
3140.72	0.337487
3123.36	0.35592
3106	0.375941
3088.64	0.364613
3071.28	0.387894
3053.92	0.386345
3036.56	0.399232
3019.2	0.412447
3001.84	0.422561
2984.48	0.415826
2967.12	0.423747
2949.76	0.427212
2932.4	0.423546
2915.04	0.413174
2897.68	0.430572
2880.32	0.435146
2862.96	0.426359
2845.6	0.440706
2828.24	0.424977
2810.88	0.433327
2793.52	0.420419
2776.16	0.40664
2758.8	0.357991
2741.44	0.310929
2724.08	0.240498
2706.72	0.155488
2689.36	0.186264
2672	0.215473
2654.64	0.193801
2637.29	0.124707
2619.93	0.11867
2602.57	0.118647
2585.21	0.115371
2567.85	0.141
2550.49	0.141066
2533.13	0.154126
2515.77	0.145317
2498.41	0.1375
2481.05	0.113211
2463.69	0.148253
2446.33	0.151874
2428.97	0.132026
2411.61	0.143107
2394.25	0.140631
2376.89	0.124952
2359.53	0.121257
2342.17	0.0962067
2324.81	0.078888
2307.45	0.104298
2290.09	0.123048
2272.73	0.120517
2255.37	0.116336
2238.01	0.116059
2220.65	0.135817
2203.29	0.130977
2185.93	0.150022
2168.57	0.144578
2151.21	0.136876
2133.85	0.124629
2116.49	0.13748
2099.13	0.157265
2081.77	0.171287
2064.41	0.169979
2047.05	0.157711
2029.69	0.136421
2012.33	0.119886
1994.97	0.0985695
1977.61	0.0703806
1960.25	0.0584587
1942.89	0.0491756
1925.53	0.041848
1908.17	0.0427854
1890.81	0.0450808
1873.45	0.0468412
1856.09	0.0470415
1838.73	0.042975
1821.37	0.042636
1804.01	0.0443987
1786.65	0.0463841
1769.3	0.0488366
1751.94	0.0453466
1734.58	0.0456861
1717.22	0.0560916
1699.86	0.0608827
1682.5	0.0661913
1665.14	0.0717411
1647.78	0.0749912
1630.42	0.0810768
1613.06	0.0822573
1595.7	0.0910678
1578.34	0.0868463
1560.98	0.0839667
1543.62	0.0750776
1526.26	0.0835095
1508.9	0.0811321
1491.54	0.0934884
1474.18	0.0787546
1456.82	0.0813641
1439.46	0.0918716
1422.1	0.102181
1404.74	0.0756871
1387.38	0.102898
1370.02	0.103246
1352.66	0.0965264
1335.3	0.107074
1317.94	0.0976922
1300.58	0.101971
1283.22	0.0700961
1265.86	0.0612724
1248.5	0.0674704
1231.14	0.0765562
1213.78	0.0630725
1196.42	0.0680025
1179.06	0.0620255
1161.7	0.0662354
1144.34	0.051184
1126.98	0.0475788
1109.62	0.0329606
1092.26	0.034866
1074.9	0.0437597
1057.54	0.0456579
1040.18	0.0416172
1022.82	0.0481111
1005.46	0.0526913
988.104	0.0445945
970.744	0.0385822
953.384	0.0458657
936.025	0.0476079
918.665	0.0445033
901.305	0.0516946
883.945	0.0378329
866.585	0.042942
849.226	0.0508065
831.866	0.050107
814.506	0.0432887
797.146	0.0374909
779.786	0.0498236
762.427	0.0528068
745.067	0.0536807
727.707	0.0454491
710.347	0.0400934
692.987	0.0348509
675.628	0.0493511
658.268	0.0367955
640.908	0.0433119
623.548	0.0471248
606.188	0.0450055
