Infrared Spectrum: 2-Benzylaminopyridine
Formula: C 12 H 12 N 2
CAS: 6935-27-9
State: solid
Instrument: Bruker Tensor 37 FTIR
Resolution: 0.96450126
Origin: Pacific Northwest National Laboratory Under IARPA Contract
1/cm	Reflectance
7499	0.695386
7481.64	0.697412
7464.28	0.701524
7446.92	0.696799
7429.56	0.705829
7412.2	0.6916
7394.84	0.69346
7377.48	0.677519
7360.12	0.678654
7342.76	0.679643
7325.4	0.670193
7308.04	0.670054
7290.68	0.664256
7273.32	0.677095
7255.96	0.683355
7238.6	0.685476
7221.24	0.678994
7203.88	0.684584
7186.52	0.681354
7169.16	0.688631
7151.8	0.689712
7134.44	0.697012
7117.08	0.699266
7099.72	0.702558
7082.36	0.70895
7065	0.702134
7047.64	0.704245
7030.28	0.701132
7012.92	0.695679
6995.56	0.687929
6978.2	0.673561
6960.84	0.637454
6943.48	0.626405
6926.12	0.631585
6908.76	0.619809
6891.4	0.597051
6874.04	0.593697
6856.68	0.593523
6839.32	0.571674
6821.96	0.510189
6804.6	0.464891
6787.25	0.462842
6769.89	0.406452
6752.53	0.337755
6735.17	0.31245
6717.81	0.31709
6700.45	0.371432
6683.09	0.428151
6665.73	0.48346
6648.37	0.474547
6631.01	0.517506
6613.65	0.521792
6596.29	0.521697
6578.93	0.516624
6561.57	0.544084
6544.21	0.52522
6526.85	0.551426
6509.49	0.552168
6492.13	0.556045
6474.77	0.569457
6457.41	0.582417
6440.05	0.575496
6422.69	0.576381
6405.33	0.584938
6387.97	0.585172
6370.61	0.575061
6353.25	0.584931
6335.89	0.592572
6318.53	0.590851
6301.17	0.591533
6283.81	0.583776
6266.45	0.59242
6249.09	0.586083
6231.73	0.578792
6214.37	0.545619
6197.01	0.508859
6179.65	0.454102
6162.29	0.325526
6144.93	0.322362
6127.57	0.378654
6110.21	0.393393
6092.85	0.314014
6075.49	0.238812
6058.13	0.214748
6040.77	0.26327
6023.41	0.276115
6006.05	0.286444
5988.69	0.306555
5971.33	0.304699
5953.97	0.275087
5936.61	0.273329
5919.25	0.26529
5901.89	0.303609
5884.54	0.279052
5867.18	0.288832
5849.82	0.258285
5832.46	0.285513
5815.1	0.236588
5797.74	0.235701
5780.38	0.152432
5763.02	0.175519
5745.66	0.230803
5728.3	0.249264
5710.94	0.259776
5693.58	0.248092
5676.22	0.272475
5658.86	0.281702
5641.5	0.296517
5624.14	0.301542
5606.78	0.269194
5589.42	0.292503
5572.06	0.234473
5554.7	0.322358
5537.34	0.324973
5519.98	0.354902
5502.62	0.347598
5485.26	0.312471
5467.9	0.272793
5450.54	0.221863
5433.18	0.141661
5415.82	0.0830723
5398.46	0.0607275
5381.1	0.0427829
5363.74	0.0386314
5346.38	0.0418852
5329.02	0.0477801
5311.66	0.049778
5294.3	0.0389871
5276.94	0.0392797
5259.58	0.0397009
5242.22	0.0466271
5224.86	0.0498023
5207.5	0.052612
5190.14	0.052385
5172.78	0.0707388
5155.42	0.0676122
5138.06	0.08044
5120.7	0.11965
5103.34	0.146258
5085.98	0.146817
5068.62	0.191777
5051.26	0.187931
5033.9	0.173894
5016.54	0.174433
4999.18	0.111883
4981.82	0.152803
4964.47	0.171244
4947.11	0.173875
4929.75	0.193214
4912.39	0.148049
4895.03	0.190494
4877.67	0.176923
4860.31	0.201832
4842.95	0.204818
4825.59	0.217806
4808.23	0.205372
4790.87	0.212182
4773.51	0.217502
4756.15	0.203725
4738.79	0.203329
4721.43	0.104666
4704.07	0.153098
4686.71	0.144088
4669.35	0.137157
4651.99	0.0958283
4634.63	0.123534
4617.27	0.120678
4599.91	0.092409
4582.55	0.0718476
4565.19	0.0493657
4547.83	0.0447382
4530.47	0.0463401
4513.11	0.0450823
4495.75	0.0421835
4478.39	0.0322321
4461.03	0.0640418
4443.67	0.0567024
4426.31	0.0513234
4408.95	0.0515966
4391.59	0.0518914
4374.23	0.0486535
4356.87	0.0671177
4339.51	0.0589443
4322.15	0.0542769
4304.79	0.0818547
4287.43	0.0378102
4270.07	0.0868971
4252.71	0.0834724
4235.35	0.0541727
4217.99	0.119755
4200.63	0.082667
4183.27	0.086793
4165.91	0.0662009
4148.55	0.0497715
4131.19	0.0346298
4113.83	0.0434164
4096.47	0.0432723
4079.11	0.0537174
4061.76	0.0457591
4044.4	0.697617
4027.04	0.694992
4009.68	0.698712
3992.32	0.697982
3974.96	0.697792
3957.6	0.69273
3940.24	0.682502
3922.88	0.676178
3905.52	0.686019
3888.16	0.67853
3870.8	0.668583
3853.44	0.675069
3836.08	0.674274
3818.72	0.679033
3801.36	0.683202
3784	0.686501
3766.64	0.682577
3749.28	0.681877
3731.92	0.685116
3714.56	0.690953
3697.2	0.694109
3679.84	0.69464
3662.48	0.699689
3645.12	0.70246
3627.76	0.702413
3610.4	0.706236
3593.04	0.707042
3575.68	0.702975
3558.32	0.695973
3540.96	0.688426
3523.6	0.664516
3506.24	0.63186
3488.88	0.634713
3471.52	0.637503
3454.16	0.61448
3436.8	0.602886
3419.44	0.598916
3402.08	0.596313
3384.72	0.566546
3367.36	0.51305
3350	0.47517
3332.64	0.470363
3315.28	0.386451
3297.92	0.351025
3280.56	0.338155
3263.2	0.328657
3245.84	0.402405
3228.48	0.458023
3211.12	0.494073
3193.76	0.488669
3176.4	0.538694
3159.04	0.520908
3141.69	0.527626
3124.33	0.534374
3106.97	0.553266
3089.61	0.539925
3072.25	0.562733
3054.89	0.564025
3037.53	0.570494
3020.17	0.579753
3002.81	0.589467
2985.45	0.583466
2968.09	0.588158
2950.73	0.591436
2933.37	0.590958
2916.01	0.585231
2898.65	0.595407
2881.29	0.600407
2863.93	0.59451
2846.57	0.602953
2829.21	0.591793
2811.85	0.599636
2794.49	0.589879
2777.13	0.582004
2759.77	0.545689
2742.41	0.506093
2725.05	0.436593
2707.69	0.304247
2690.33	0.355118
2672.97	0.40159
2655.61	0.385888
2638.25	0.282245
2620.89	0.253653
2603.53	0.237196
2586.17	0.247293
2568.81	0.296923
2551.45	0.297434
2534.09	0.320165
2516.73	0.312452
2499.37	0.291605
2482.01	0.253866
2464.65	0.30921
2447.29	0.320081
2429.93	0.278546
2412.57	0.307433
2395.21	0.296844
2377.85	0.278976
2360.49	0.260967
2343.13	0.213793
2325.77	0.143083
2308.41	0.220673
2291.05	0.26115
2273.69	0.258318
2256.33	0.257598
2238.98	0.252068
2221.62	0.288144
2204.26	0.286624
2186.9	0.313934
2169.54	0.309697
2152.18	0.2881
2134.82	0.287572
2117.46	0.293891
2100.1	0.32813
2082.74	0.354863
2065.38	0.359799
2048.02	0.343
2030.66	0.304639
2013.3	0.268131
1995.94	0.210567
1978.58	0.121519
1961.22	0.078301
1943.86	0.0560727
1926.5	0.0409094
1909.14	0.0401281
1891.78	0.0444148
1874.42	0.0501852
1857.06	0.0501776
1839.7	0.0409314
1822.34	0.0411469
1804.98	0.0430036
1787.62	0.046225
1770.26	0.0532976
1752.9	0.0464702
1735.54	0.0442409
1718.18	0.0729865
1700.82	0.086182
1683.46	0.0995189
1666.1	0.125447
1648.74	0.135539
1631.38	0.157606
1614.02	0.162617
1596.66	0.199709
1579.3	0.193876
1561.94	0.183772
1544.58	0.131278
1527.22	0.169557
1509.86	0.156275
1492.5	0.196502
1475.14	0.177968
1457.78	0.153949
1440.42	0.192579
1423.06	0.213572
1405.7	0.157027
1388.34	0.224492
1370.98	0.232376
1353.62	0.211048
1336.27	0.231191
1318.91	0.21586
1301.55	0.228883
1284.19	0.149845
1266.83	0.0930263
1249.47	0.133418
1232.11	0.167994
1214.75	0.120363
1197.39	0.129403
1180.03	0.110714
1162.67	0.132437
1145.31	0.086217
1127.95	0.0754698
1110.59	0.0372364
1093.23	0.0344211
1075.87	0.0490142
1058.51	0.047683
1041.15	0.0478619
1023.79	0.0352073
1006.43	0.0695447
989.069	0.0567166
971.709	0.037056
954.349	0.0557001
936.989	0.0598274
919.63	0.0503775
902.27	0.0771278
884.91	0.0552673
867.55	0.0640457
850.19	0.0874355
832.831	0.0644785
815.471	0.0612285
798.111	0.0441384
780.751	0.0748839
763.391	0.101582
746.032	0.0966312
728.672	0.0754442
711.312	0.055121
693.952	0.0433728
676.592	0.0361357
659.232	0.0398299
641.873	0.0417697
624.513	0.0571361
607.153	0.0533991
