Infrared Spectrum: 2-Benzylaminopyridine
Formula: C 12 H 12 N 2
CAS: 6935-27-9
State: solid
Instrument: Bruker Tensor 37 FTIR
Resolution: 0.96450084
Origin: Pacific Northwest National Laboratory Under IARPA Contract
1/cm	Reflectance
7498.03	0.764531
7480.67	0.76365
7463.31	0.762195
7445.95	0.753673
7428.59	0.75754
7411.22	0.763496
7393.86	0.763881
7376.5	0.762421
7359.14	0.763651
7341.78	0.762488
7324.42	0.761937
7307.06	0.754045
7289.7	0.74989
7272.34	0.746456
7254.98	0.73965
7237.61	0.734468
7220.25	0.741261
7202.89	0.742898
7185.53	0.745382
7168.17	0.735465
7150.81	0.733151
7133.45	0.732229
7116.09	0.734806
7098.73	0.731174
7081.37	0.729215
7064	0.735742
7046.64	0.741065
7029.28	0.738983
7011.92	0.740451
6994.56	0.741422
6977.2	0.74506
6959.84	0.746833
6942.48	0.746232
6925.12	0.744363
6907.75	0.748153
6890.39	0.744373
6873.03	0.748432
6855.67	0.749677
6838.31	0.748625
6820.95	0.754236
6803.59	0.755223
6786.23	0.757269
6768.87	0.759739
6751.51	0.759924
6734.14	0.765643
6716.78	0.765767
6699.42	0.766192
6682.06	0.768159
6664.7	0.767106
6647.34	0.77107
6629.98	0.768958
6612.62	0.771545
6595.26	0.771434
6577.9	0.768437
6560.53	0.765798
6543.17	0.764174
6525.81	0.763181
6508.45	0.756752
6491.09	0.751864
6473.73	0.743577
6456.37	0.730802
6439.01	0.716073
6421.65	0.692119
6404.29	0.678178
6386.92	0.683447
6369.56	0.687498
6352.2	0.688069
6334.84	0.686523
6317.48	0.674916
6300.12	0.657185
6282.76	0.650301
6265.4	0.64838
6248.04	0.646665
6230.68	0.645307
6213.31	0.64392
6195.95	0.634543
6178.59	0.619991
6161.23	0.592208
6143.87	0.552219
6126.51	0.537267
6109.15	0.497573
6091.79	0.489459
6074.43	0.495919
6057.07	0.483267
6039.7	0.4312
6022.34	0.355473
6004.98	0.347045
5987.62	0.343857
5970.26	0.318153
5952.9	0.326856
5935.54	0.325015
5918.18	0.334681
5900.82	0.39204
5883.46	0.429824
5866.09	0.4594
5848.73	0.498818
5831.37	0.522231
5814.01	0.511764
5796.65	0.511747
5779.29	0.533925
5761.93	0.561871
5744.57	0.576187
5727.21	0.56481
5709.84	0.548134
5692.48	0.565137
5675.12	0.547899
5657.76	0.55759
5640.4	0.580691
5623.04	0.592648
5605.68	0.591185
5588.32	0.570429
5570.96	0.588906
5553.6	0.600888
5536.23	0.603222
5518.87	0.600162
5501.51	0.603077
5484.15	0.606026
5466.79	0.617508
5449.43	0.621032
5432.07	0.626629
5414.71	0.633771
5397.35	0.633342
5379.99	0.627417
5362.62	0.629802
5345.26	0.628829
5327.9	0.633217
5310.54	0.63735
5293.18	0.63911
5275.82	0.638415
5258.46	0.631209
5241.1	0.626637
5223.74	0.627594
5206.38	0.63706
5189.01	0.645988
5171.65	0.647999
5154.29	0.646028
5136.93	0.644282
5119.57	0.640181
5102.21	0.646537
5084.85	0.647125
5067.49	0.636499
5050.13	0.638388
5032.77	0.644776
5015.4	0.645702
4998.04	0.638153
4980.68	0.63527
4963.32	0.62957
4945.96	0.614952
4928.6	0.591866
4911.24	0.572201
4893.88	0.549365
4876.52	0.521935
4859.16	0.484761
4841.79	0.417843
4824.43	0.328149
4807.07	0.285557
4789.71	0.332818
4772.35	0.370207
4754.99	0.39925
4737.63	0.421735
4720.27	0.412903
4702.91	0.366977
4685.55	0.316721
4668.18	0.241185
4650.82	0.233336
4633.46	0.219708
4616.1	0.198941
4598.74	0.242918
4581.38	0.26024
4564.02	0.255527
4546.66	0.277029
4529.3	0.294233
4511.93	0.286503
4494.57	0.296436
4477.21	0.311445
4459.85	0.317897
4442.49	0.309001
4425.13	0.287535
4407.77	0.275108
4390.41	0.292797
4373.05	0.270231
4355.69	0.210849
4338.32	0.269265
4320.96	0.309868
4303.6	0.310736
4286.24	0.312822
4268.88	0.272784
4251.52	0.285588
4234.16	0.29288
4216.8	0.280341
4199.44	0.259779
4182.08	0.293782
4164.71	0.284831
4147.35	0.242307
4129.99	0.230738
4112.63	0.249302
4095.27	0.226952
4077.91	0.160797
4060.55	0.132106
4043.19	0.115495
4025.83	0.165513
4008.47	0.20282
3991.1	0.225174
3973.74	0.259452
3956.38	0.243228
3939.02	0.259767
3921.66	0.254103
3904.3	0.232688
3886.94	0.24205
3869.58	0.249938
3852.22	0.270216
3834.86	0.28413
3817.49	0.282497
3800.13	0.285932
3782.77	0.298637
3765.41	0.318718
3748.05	0.304153
3730.69	0.285837
3713.33	0.267626
3695.97	0.299089
3678.61	0.291167
3661.25	0.239902
3643.88	0.23517
3626.52	0.282432
3609.16	0.329046
3591.8	0.340677
3574.44	0.335528
3557.08	0.368025
3539.72	0.371067
3522.36	0.361421
3505	0.361594
3487.64	0.339835
3470.27	0.319231
3452.91	0.295253
3435.55	0.270494
3418.19	0.242484
3400.83	0.210284
3383.47	0.171871
3366.11	0.121061
3348.75	0.0858967
3331.39	0.0696963
3314.02	0.0603295
3296.66	0.0530193
3279.3	0.0466246
3261.94	0.0416118
3244.58	0.0391935
3227.22	0.0399883
3209.86	0.0408646
3192.5	0.0419173
3175.14	0.0433804
3157.78	0.0451529
3140.41	0.0438476
3123.05	0.0456457
3105.69	0.0426479
3088.33	0.0389336
3070.97	0.0416602
3053.61	0.0395842
3036.25	0.0399184
3018.89	0.0401363
3001.53	0.0425021
2984.17	0.043682
2966.8	0.0441368
2949.44	0.046269
2932.08	0.0470687
2914.72	0.0464418
2897.36	0.0435795
2880	0.04575
2862.64	0.0446635
2845.28	0.0588238
2827.92	0.0538007
2810.56	0.0571552
2793.19	0.0666054
2775.83	0.0661302
2758.47	0.0877438
2741.11	0.101747
2723.75	0.113321
2706.39	0.124742
2689.03	0.11986
2671.67	0.128013
2654.31	0.146342
2636.95	0.173388
2619.58	0.158588
2602.22	0.171256
2584.86	0.152214
2567.5	0.156647
2550.14	0.150104
2532.78	0.158963
2515.42	0.133342
2498.06	0.0933701
2480.7	0.122289
2463.34	0.135991
2445.97	0.144944
2428.61	0.152676
2411.25	0.140917
2393.89	0.158012
2376.53	0.165807
2359.17	0.176102
2341.81	0.108014
2324.45	0.130949
2307.09	0.15374
2289.72	0.17312
2272.36	0.178261
2255	0.156896
2237.64	0.203489
2220.28	0.183119
2202.92	0.121632
2185.56	0.192495
2168.2	0.210694
2150.84	0.206776
2133.48	0.209285
2116.11	0.188996
2098.75	0.196486
2081.39	0.200597
2064.03	0.21732
2046.67	0.201558
2029.31	0.19111
2011.95	0.187414
1994.59	0.219787
1977.23	0.185357
1959.87	0.0937251
1942.5	0.0888384
1925.14	0.11872
1907.78	0.135695
1890.42	0.100444
1873.06	0.128731
1855.7	0.126264
1838.34	0.113454
1820.98	0.0875715
1803.62	0.0765943
1786.26	0.113457
1768.89	0.0995996
1751.53	0.111232
1734.17	0.0979374
1716.81	0.109249
1699.45	0.0698513
1682.09	0.0574427
1664.73	0.0565904
1647.37	0.0494763
1630.01	0.0409404
1612.65	0.0348464
1595.28	0.0461326
1577.92	0.0385267
1560.56	0.04217
1543.2	0.0385599
1525.84	0.0450907
1508.48	0.044214
1491.12	0.0387132
1473.76	0.0339625
1456.4	0.0346978
1439.04	0.0523131
1421.67	0.0546363
1404.31	0.056368
1386.95	0.0449866
1369.59	0.0397215
1352.23	0.0414788
1334.87	0.0430887
1317.51	0.0453607
1300.15	0.0402309
1282.79	0.0438512
1265.43	0.0467613
1248.06	0.0401157
1230.7	0.0371965
1213.34	0.0529448
1195.98	0.0613652
1178.62	0.0452979
1161.26	0.0394589
1143.9	0.0483379
1126.54	0.0384214
1109.18	0.0622539
1091.81	0.0438718
1074.45	0.0375783
1057.09	0.0552786
1039.73	0.0651573
1022.37	0.0617799
1005.01	0.0612907
987.649	0.0330542
970.288	0.0473332
952.927	0.0854582
935.566	0.0956309
918.205	0.0524755
900.844	0.0639504
883.483	0.0783013
866.122	0.0665876
848.761	0.0491558
831.4	0.0502447
814.039	0.0417601
796.678	0.038921
779.317	0.0313752
761.956	0.0319102
744.595	0.0407556
727.234	0.036823
709.873	0.0293463
692.512	0.0399875
675.151	0.0375974
657.79	0.044427
640.429	0.0446762
623.068	0.0374711
605.707	0.048983
