Infrared Spectrum: 2-Benzylaminopyridine 0-45um
Formula: C 12 H 12 N 2
CAS: 6935-27-9
State: solid
Instrument: Bruker Tensor 37 FTIR
Resolution: 0.96450084
Origin: Pacific Northwest National Laboratory Under IARPA Contract
1/cm	Reflectance
7498.03	0.744672
7480.67	0.745193
7463.31	0.74906
7445.95	0.747106
7428.59	0.745991
7411.23	0.744055
7393.87	0.743686
7376.51	0.731461
7359.15	0.736452
7341.79	0.737535
7324.43	0.73411
7307.07	0.72853
7289.71	0.730484
7272.35	0.740316
7254.99	0.737785
7237.63	0.740615
7220.27	0.741058
7202.91	0.741092
7185.55	0.738454
7168.19	0.740712
7150.83	0.743085
7133.47	0.747793
7116.11	0.749177
7098.75	0.746973
7081.39	0.751094
7064.03	0.752276
7046.67	0.749353
7029.31	0.752437
7011.96	0.747005
6994.6	0.74142
6977.24	0.729537
6959.88	0.707326
6942.52	0.703493
6925.16	0.708104
6907.8	0.696741
6890.44	0.683546
6873.08	0.680574
6855.72	0.679354
6838.36	0.662751
6821	0.619976
6803.64	0.576057
6786.28	0.576127
6768.92	0.527372
6751.56	0.455424
6734.2	0.427438
6716.84	0.435448
6699.48	0.494916
6682.12	0.550787
6664.76	0.595411
6647.4	0.587429
6630.04	0.62512
6612.68	0.626624
6595.32	0.62743
6577.96	0.623323
6560.6	0.646145
6543.24	0.631796
6525.88	0.653522
6508.52	0.652527
6491.16	0.656799
6473.8	0.664912
6456.44	0.674995
6439.08	0.669615
6421.72	0.67163
6404.36	0.677597
6387	0.676781
6369.64	0.670097
6352.28	0.677044
6334.92	0.684766
6317.56	0.682248
6300.2	0.684383
6282.84	0.678069
6265.48	0.682493
6248.12	0.679452
6230.76	0.672948
6213.4	0.648027
6196.04	0.618243
6178.68	0.570797
6161.32	0.436471
6143.97	0.442393
6126.61	0.503065
6109.25	0.515146
6091.89	0.431864
6074.53	0.348083
6057.17	0.309731
6039.81	0.377888
6022.45	0.39506
6005.09	0.404252
5987.73	0.427932
5970.37	0.425841
5953.01	0.393236
5935.65	0.388434
5918.29	0.387315
5900.93	0.427623
5883.57	0.390644
5866.21	0.410466
5848.85	0.378352
5831.49	0.404091
5814.13	0.349195
5796.77	0.344783
5779.41	0.22658
5762.05	0.271979
5744.69	0.342527
5727.33	0.362616
5709.97	0.373519
5692.61	0.36258
5675.25	0.392363
5657.89	0.403561
5640.53	0.418278
5623.17	0.426563
5605.81	0.390947
5588.45	0.413722
5571.09	0.357458
5553.73	0.451397
5536.37	0.458389
5519.01	0.491163
5501.65	0.483759
5484.29	0.445225
5466.93	0.396603
5449.57	0.330194
5432.21	0.208518
5414.85	0.111635
5397.49	0.0715324
5380.13	0.0432943
5362.77	0.0365273
5345.41	0.0415731
5328.05	0.0515419
5310.69	0.0546185
5293.33	0.0365752
5275.97	0.0374747
5258.62	0.0381317
5241.26	0.04867
5223.9	0.0567307
5206.54	0.0618507
5189.18	0.059787
5171.82	0.097217
5154.46	0.091227
5137.1	0.111602
5119.74	0.183258
5102.38	0.220176
5085.02	0.225397
5067.66	0.288551
5050.3	0.285257
5032.94	0.268136
5015.58	0.272611
4998.22	0.160567
4980.86	0.230673
4963.5	0.259296
4946.14	0.264255
4928.78	0.291294
4911.42	0.229372
4894.06	0.28875
4876.7	0.268595
4859.34	0.30064
4841.98	0.313069
4824.62	0.328341
4807.26	0.306926
4789.9	0.321975
4772.54	0.32492
4755.18	0.30935
4737.82	0.307257
4720.46	0.170693
4703.1	0.243589
4685.74	0.234859
4668.38	0.212733
4651.02	0.148076
4633.66	0.191301
4616.3	0.182196
4598.94	0.13777
4581.58	0.107271
4564.22	0.0608999
4546.86	0.0423112
4529.5	0.0503024
4512.14	0.0443062
4494.78	0.0465313
4477.42	0.0298571
4460.06	0.0793443
4442.7	0.0694205
4425.34	0.061854
4407.98	0.0592888
4390.63	0.0639415
4373.27	0.0544679
4355.91	0.093774
4338.55	0.0786185
4321.19	0.0709588
4303.83	0.123101
4286.47	0.0398741
4269.11	0.132959
4251.75	0.121229
4234.39	0.0807558
4217.03	0.192475
4199.67	0.130495
4182.31	0.140843
4164.95	0.098879
4147.59	0.0691127
4130.23	0.0325231
4112.87	0.0488947
4095.51	0.038145
4078.15	0.0650156
4060.79	0.0517428
4043.43	0.746699
4026.07	0.742565
4008.71	0.744986
3991.35	0.7497
3973.99	0.746405
3956.63	0.743379
3939.27	0.736707
3921.91	0.732451
3904.55	0.738218
3887.19	0.735826
3869.83	0.732521
3852.47	0.731129
3835.11	0.735871
3817.75	0.733403
3800.39	0.735254
3783.03	0.739505
3765.67	0.740935
3748.31	0.739601
3730.95	0.740395
3713.59	0.743736
3696.23	0.744953
3678.87	0.748089
3661.51	0.751765
3644.15	0.75129
3626.79	0.751054
3609.43	0.752213
3592.07	0.751581
3574.71	0.75114
3557.35	0.74676
3539.99	0.740987
3522.64	0.726338
3505.28	0.704331
3487.92	0.706372
3470.56	0.710634
3453.2	0.694012
3435.84	0.686273
3418.48	0.683366
3401.12	0.680427
3383.76	0.659771
3366.4	0.619679
3349.04	0.586678
3331.68	0.581493
3314.32	0.49298
3296.96	0.471907
3279.6	0.459953
3262.24	0.449485
3244.88	0.526922
3227.52	0.578034
3210.16	0.604244
3192.8	0.603886
3175.44	0.641617
3158.08	0.624135
3140.72	0.630413
3123.36	0.641464
3106	0.653924
3088.64	0.646312
3071.28	0.6615
3053.92	0.660619
3036.56	0.668254
3019.2	0.675301
3001.84	0.679636
2984.48	0.676576
2967.12	0.681485
2949.76	0.683528
2932.4	0.682279
2915.04	0.67749
2897.68	0.687438
2880.32	0.689793
2862.96	0.685107
2845.6	0.691754
2828.24	0.684462
2810.88	0.689076
2793.52	0.681313
2776.16	0.674613
2758.8	0.646019
2741.44	0.613598
2724.08	0.547112
2706.72	0.410145
2689.36	0.481548
2672	0.527693
2654.64	0.502076
2637.29	0.384564
2619.93	0.362857
2602.57	0.35667
2585.21	0.36205
2567.85	0.422186
2550.49	0.421654
2533.13	0.445217
2515.77	0.430461
2498.41	0.41528
2481.05	0.351614
2463.69	0.436891
2446.33	0.442493
2428.97	0.402681
2411.61	0.425727
2394.25	0.42269
2376.89	0.389852
2359.53	0.379553
2342.17	0.298059
2324.81	0.209522
2307.45	0.329685
2290.09	0.382911
2272.73	0.379494
2255.37	0.369046
2238.01	0.367296
2220.65	0.413195
2203.29	0.403691
2185.93	0.443152
2168.57	0.430802
2151.21	0.41437
2133.85	0.390786
2116.49	0.422512
2099.13	0.462884
2081.77	0.491265
2064.41	0.491512
2047.05	0.47534
2029.69	0.430961
2012.33	0.385829
1994.97	0.308628
1977.61	0.168619
1960.25	0.100496
1942.89	0.0615331
1925.53	0.0397779
1908.17	0.03837
1890.81	0.045406
1873.45	0.0529852
1856.09	0.052271
1838.73	0.0408462
1821.37	0.0412487
1804.01	0.0432325
1786.65	0.0501034
1769.3	0.0610345
1751.94	0.0476756
1734.58	0.0481469
1717.22	0.0951752
1699.86	0.12382
1682.5	0.153266
1665.14	0.192526
1647.78	0.208369
1630.42	0.245638
1613.06	0.258687
1595.7	0.299218
1578.34	0.285823
1560.98	0.263279
1543.62	0.197941
1526.26	0.257947
1508.9	0.237196
1491.54	0.292353
1474.18	0.246472
1456.82	0.238585
1439.46	0.293178
1422.1	0.328578
1404.74	0.226925
1387.38	0.344466
1370.02	0.336573
1352.66	0.316245
1335.3	0.343811
1317.94	0.32085
1300.58	0.347704
1283.22	0.19957
1265.86	0.157885
1248.5	0.191842
1231.14	0.251336
1213.78	0.17407
1196.42	0.207502
1179.06	0.184536
1161.7	0.210108
1144.34	0.122961
1126.98	0.10836
1109.62	0.0398307
1092.26	0.0293608
1074.9	0.0549936
1057.54	0.0534458
1040.18	0.0551765
1022.82	0.0425703
1005.46	0.0924659
988.104	0.0637243
970.744	0.0388083
953.384	0.0648007
936.025	0.0763866
918.665	0.06693
901.305	0.114142
883.945	0.0544203
866.585	0.0672989
849.226	0.125132
831.866	0.0965243
814.506	0.0625971
797.146	0.0437058
779.786	0.112511
762.427	0.159394
745.067	0.155672
727.707	0.116966
710.347	0.0791394
692.987	0.0531356
675.628	0.0387926
658.268	0.0428802
640.908	0.0436364
623.548	0.0774125
606.188	0.0737438
