Infrared Spectrum: 2-Benzylaminopyridine 45-90um
Formula: C 12 H 12 N 2
CAS: 6935-27-9
State: solid
Instrument: Bruker Tensor 37 FTIR
Resolution: 0.96450084
Origin: Pacific Northwest National Laboratory Under IARPA Contract
1/cm	Reflectance
7498.03	0.74425
7480.67	0.732007
7463.31	0.730436
7445.95	0.734113
7428.59	0.73595
7411.23	0.733435
7393.87	0.725404
7376.51	0.718607
7359.15	0.716238
7341.79	0.722764
7324.43	0.720355
7307.07	0.716147
7289.71	0.715759
7272.35	0.717683
7254.99	0.717854
7237.63	0.72394
7220.27	0.725649
7202.91	0.7256
7185.55	0.724939
7168.19	0.725733
7150.83	0.732044
7133.47	0.731119
7116.11	0.735201
7098.75	0.737914
7081.39	0.740032
7064.03	0.740225
7046.67	0.737781
7029.31	0.739203
7011.96	0.734646
6994.6	0.72586
6977.24	0.713889
6959.88	0.685273
6942.52	0.67968
6925.16	0.681956
6907.8	0.671754
6890.44	0.654685
6873.08	0.65095
6855.72	0.648584
6838.36	0.630346
6821	0.577455
6803.64	0.532307
6786.28	0.531998
6768.92	0.476499
6751.56	0.403023
6734.2	0.375923
6716.84	0.38363
6699.48	0.44103
6682.12	0.502584
6664.76	0.55331
6647.4	0.546034
6630.04	0.585513
6612.68	0.58767
6595.32	0.5896
6577.96	0.582907
6560.6	0.610145
6543.24	0.592766
6525.88	0.615398
6508.52	0.615648
6491.16	0.620703
6473.8	0.631734
6456.44	0.642311
6439.08	0.636311
6421.72	0.638894
6404.36	0.644755
6387	0.646124
6369.64	0.637473
6352.28	0.645327
6334.92	0.654102
6317.56	0.651522
6300.2	0.653055
6282.84	0.645203
6265.48	0.652033
6248.12	0.646394
6230.76	0.639954
6213.4	0.610667
6196.04	0.577251
6178.68	0.523251
6161.32	0.38239
6143.97	0.388469
6126.61	0.450808
6109.25	0.462809
6091.89	0.375177
6074.53	0.293284
6057.17	0.25553
6039.81	0.321469
6022.45	0.338327
6005.09	0.347322
5987.73	0.371208
5970.37	0.369465
5953.01	0.335942
5935.65	0.331917
5918.29	0.33071
5900.93	0.371033
5883.57	0.333854
5866.21	0.353372
5848.85	0.320823
5831.49	0.346458
5814.13	0.292129
5796.77	0.288014
5779.41	0.178016
5762.05	0.218444
5744.69	0.28604
5727.33	0.305106
5709.97	0.315864
5692.61	0.303186
5675.25	0.329851
5657.89	0.343206
5640.53	0.359776
5623.17	0.36346
5605.81	0.330242
5588.45	0.354289
5571.09	0.299039
5553.73	0.392432
5536.37	0.401548
5519.01	0.435753
5501.65	0.428124
5484.29	0.387995
5466.93	0.338725
5449.57	0.272948
5432.21	0.163465
5414.85	0.0862225
5397.49	0.0587633
5380.13	0.0397145
5362.77	0.0356131
5345.41	0.0391725
5328.05	0.044768
5310.69	0.0467523
5293.33	0.0352189
5275.97	0.0358143
5258.62	0.0362069
5241.26	0.0427991
5223.9	0.047878
5206.54	0.0495764
5189.18	0.0488753
5171.82	0.0731884
5154.46	0.0691829
5137.1	0.0852427
5119.74	0.140216
5102.38	0.171572
5085.02	0.176099
5067.66	0.233085
5050.3	0.230137
5032.94	0.21371
5015.58	0.217651
4998.22	0.123572
4980.86	0.182809
4963.5	0.20643
4946.14	0.211662
4928.78	0.226381
4911.42	0.175672
4894.06	0.233016
4876.7	0.214353
4859.34	0.244327
4841.98	0.256271
4824.62	0.270993
4807.26	0.250388
4789.9	0.264319
4772.54	0.267054
4755.18	0.251756
4737.82	0.250102
4720.46	0.127926
4703.1	0.190937
4685.74	0.182858
4668.38	0.163257
4651.02	0.109643
4633.66	0.144053
4616.3	0.137739
4598.94	0.100234
4581.58	0.0791362
4564.22	0.0490838
4546.86	0.0414893
4529.5	0.0422736
4512.14	0.0424993
4494.78	0.0398498
4477.42	0.0297176
4460.06	0.0639849
4442.7	0.0535606
4425.34	0.0488982
4407.98	0.0501121
4390.63	0.0504593
4373.27	0.0445652
4355.91	0.070083
4338.55	0.0583322
4321.19	0.0573425
4303.83	0.0907064
4286.47	0.0371398
4269.11	0.0968905
4251.75	0.0902131
4234.39	0.0611966
4217.03	0.145647
4199.67	0.0958235
4182.31	0.102809
4164.95	0.0724454
4147.59	0.0521813
4130.23	0.0301467
4112.87	0.0399846
4095.51	0.0369085
4078.15	0.0535672
4060.79	0.0424997
4043.43	0.739423
4026.07	0.729912
4008.71	0.735579
3991.35	0.733859
3973.99	0.737049
3956.63	0.730225
3939.27	0.728333
3921.91	0.719519
3904.55	0.72407
3887.19	0.724249
3869.83	0.71812
3852.47	0.717397
3835.11	0.717676
3817.75	0.721337
3800.39	0.722854
3783.03	0.725576
3765.67	0.726099
3748.31	0.726903
3730.95	0.725986
3713.59	0.729865
3696.23	0.733861
3678.87	0.736108
3661.51	0.739155
3644.15	0.741201
3626.79	0.741948
3609.43	0.743526
3592.07	0.741614
3574.71	0.739147
3557.35	0.735276
3539.99	0.727673
3522.64	0.710552
3505.28	0.683062
3487.92	0.686334
3470.56	0.688921
3453.2	0.669659
3435.84	0.657226
3418.48	0.65952
3401.12	0.652941
3383.76	0.625788
3366.4	0.581362
3349.04	0.544903
3331.68	0.538432
3314.32	0.444957
3296.96	0.417532
3279.6	0.405693
3262.24	0.394872
3244.88	0.479429
3227.52	0.537458
3210.16	0.562266
3192.8	0.564145
3175.44	0.607182
3158.08	0.587021
3140.72	0.593459
3123.36	0.606183
3106	0.620144
3088.64	0.612222
3071.28	0.62928
3053.92	0.629037
3036.56	0.63633
3019.2	0.643847
3001.84	0.650446
2984.48	0.646099
2967.12	0.651633
2949.76	0.654193
2932.4	0.652826
2915.04	0.647124
2897.68	0.658011
2880.32	0.660925
2862.96	0.655781
2845.6	0.66456
2828.24	0.654248
2810.88	0.660568
2793.52	0.651524
2776.16	0.643672
2758.8	0.610952
2741.44	0.572844
2724.08	0.499519
2706.72	0.35588
2689.36	0.428979
2672	0.479118
2654.64	0.451312
2637.29	0.327618
2619.93	0.306823
2602.57	0.300176
2585.21	0.305318
2567.85	0.365917
2550.49	0.366317
2533.13	0.390351
2515.77	0.37431
2498.41	0.358865
2481.05	0.295003
2463.69	0.38142
2446.33	0.387224
2428.97	0.345375
2411.61	0.369517
2394.25	0.365619
2376.89	0.3328
2359.53	0.322162
2342.17	0.243429
2324.81	0.163454
2307.45	0.273106
2290.09	0.325597
2272.73	0.322046
2255.37	0.311743
2238.01	0.310262
2220.65	0.356354
2203.29	0.34654
2185.93	0.387085
2168.57	0.374413
2151.21	0.357553
2133.85	0.334166
2116.49	0.365975
2099.13	0.408449
2081.77	0.438145
2064.41	0.438463
2047.05	0.420697
2029.69	0.375031
2012.33	0.32876
1994.97	0.253195
1977.61	0.13021
1960.25	0.0789485
1942.89	0.0523158
1925.53	0.0378232
1908.17	0.0374303
1890.81	0.0417391
1873.45	0.0461884
1856.09	0.0457809
1838.73	0.0379491
1821.37	0.0381185
1804.01	0.0396241
1786.65	0.0439013
1769.3	0.0506243
1751.94	0.0417037
1734.58	0.0423363
1717.22	0.072234
1699.86	0.0938937
1682.5	0.116749
1665.14	0.147862
1647.78	0.16189
1630.42	0.193829
1613.06	0.205328
1595.7	0.242949
1578.34	0.230085
1560.98	0.210411
1543.62	0.154509
1526.26	0.205788
1508.9	0.188037
1491.54	0.23792
1474.18	0.194728
1456.82	0.189712
1439.46	0.238521
1422.1	0.272185
1404.74	0.177867
1387.38	0.286903
1370.02	0.279899
1352.66	0.259988
1335.3	0.287326
1317.94	0.26478
1300.58	0.289792
1283.22	0.155527
1265.86	0.119528
1248.5	0.148533
1231.14	0.199009
1213.78	0.132082
1196.42	0.160269
1179.06	0.139527
1161.7	0.16253
1144.34	0.0909392
1126.98	0.0804291
1109.62	0.0351829
1092.26	0.0292866
1074.9	0.0449951
1057.54	0.0471408
1040.18	0.0438933
1022.82	0.0415856
1005.46	0.0725126
988.104	0.0506641
970.744	0.0370502
953.384	0.0520464
936.025	0.0597752
918.665	0.0524747
901.305	0.0850779
883.945	0.0431316
866.585	0.0526108
849.226	0.092971
831.866	0.0727745
814.506	0.05128
797.146	0.0358664
779.786	0.0834623
762.427	0.117805
745.067	0.11645
727.707	0.0847458
710.347	0.0575214
692.987	0.0412357
675.628	0.0380846
658.268	0.0351779
640.908	0.0382363
623.548	0.0593722
606.188	0.0571226
