Infrared Spectrum: 2-Benzylaminopyridine 250-500um
Formula: C 12 H 12 N 2
CAS: 6935-27-9
State: solid
Instrument: Bruker Tensor 37 FTIR
Resolution: 0.96450084
Origin: Pacific Northwest National Laboratory Under IARPA Contract
1/cm	Reflectance
7498.03	0.624423
7480.67	0.616015
7463.31	0.614828
7445.95	0.619183
7428.59	0.620639
7411.23	0.613155
7393.87	0.602227
7376.51	0.590782
7359.15	0.588657
7341.79	0.592456
7324.43	0.581535
7307.07	0.573781
7289.71	0.577821
7272.35	0.586819
7254.99	0.588384
7237.63	0.590166
7220.27	0.591255
7202.91	0.594969
7185.55	0.596468
7168.19	0.59877
7150.83	0.604679
7133.47	0.610962
7116.11	0.618457
7098.75	0.618062
7081.39	0.623446
7064.03	0.628404
7046.67	0.621429
7029.31	0.62227
7011.96	0.612232
6994.6	0.597661
6977.24	0.573328
6959.88	0.522498
6942.52	0.51326
6925.16	0.51698
6907.8	0.499109
6890.44	0.472639
6873.08	0.466342
6855.72	0.46157
6838.36	0.433867
6821	0.3644
6803.64	0.30952
6786.28	0.308536
6768.92	0.252839
6751.56	0.189952
6734.2	0.168704
6716.84	0.174065
6699.48	0.217802
6682.12	0.275624
6664.76	0.333054
6647.4	0.321526
6630.04	0.371855
6612.68	0.373635
6595.32	0.374465
6577.96	0.367219
6560.6	0.402346
6543.24	0.381203
6525.88	0.409925
6508.52	0.410658
6491.16	0.417445
6473.8	0.430819
6456.44	0.448564
6439.08	0.439745
6421.72	0.440982
6404.36	0.449601
6387	0.450526
6369.64	0.437137
6352.28	0.44839
6334.92	0.460397
6317.56	0.457299
6300.2	0.459644
6282.84	0.448794
6265.48	0.458019
6248.12	0.449735
6230.76	0.440444
6213.4	0.399696
6196.04	0.357497
6178.68	0.296154
6161.32	0.178221
6143.97	0.178298
6126.61	0.222698
6109.25	0.233076
6091.89	0.162622
6074.53	0.113232
6057.17	0.0966739
6039.81	0.127841
6022.45	0.137507
6005.09	0.143027
5987.73	0.159091
5970.37	0.157465
5953.01	0.135876
5935.65	0.133514
5918.29	0.133313
5900.93	0.158138
5883.57	0.136203
5866.21	0.147511
5848.85	0.126843
5831.49	0.141814
5814.13	0.110668
5796.77	0.108149
5779.41	0.0673803
5762.05	0.0796871
5744.69	0.107421
5727.33	0.116763
5709.97	0.123158
5692.61	0.116122
5675.25	0.133062
5657.89	0.140123
5640.53	0.149722
5623.17	0.153714
5605.81	0.130462
5588.45	0.145737
5571.09	0.112265
5553.73	0.168373
5536.37	0.171623
5519.01	0.194861
5501.65	0.186391
5484.29	0.15841
5466.93	0.129675
5449.57	0.0989467
5432.21	0.0630238
5414.85	0.0469256
5397.49	0.0413553
5380.13	0.0356008
5362.77	0.0353939
5345.41	0.0375532
5328.05	0.0389513
5310.69	0.0390017
5293.33	0.0357519
5275.97	0.0359478
5258.62	0.0366744
5241.26	0.0381131
5223.9	0.0389869
5206.54	0.0390439
5189.18	0.0382103
5171.82	0.0429367
5154.46	0.0427811
5137.1	0.0451415
5119.74	0.0548383
5102.38	0.0624378
5085.02	0.0629832
5067.66	0.0804651
5050.3	0.0797957
5032.94	0.0728713
5015.58	0.0731099
4998.22	0.0536887
4980.86	0.0680761
4963.5	0.073206
4946.14	0.0758312
4928.78	0.0801992
4911.42	0.0637506
4894.06	0.0801001
4876.7	0.0731717
4859.34	0.0848169
4841.98	0.0889322
4824.62	0.0970572
4807.26	0.0889932
4789.9	0.0942025
4772.54	0.0930004
4755.18	0.085118
4737.82	0.0837643
4720.46	0.0472736
4703.1	0.0625662
4685.74	0.0596483
4668.38	0.0543191
4651.02	0.0437215
4633.66	0.0495916
4616.3	0.0500879
4598.94	0.0399314
4581.58	0.0355153
4564.22	0.0298989
4546.86	0.0424994
4529.5	0.0369182
4512.14	0.0390142
4494.78	0.0340491
4477.42	0.0322691
4460.06	0.0412543
4442.7	0.0358698
4425.34	0.0330629
4407.98	0.0370262
4390.63	0.0360793
4373.27	0.0336495
4355.91	0.037647
4338.55	0.0340459
4321.19	0.0377531
4303.83	0.0388768
4286.47	0.0339018
4269.11	0.0387333
4251.75	0.037446
4234.39	0.0352158
4217.03	0.0454089
4199.67	0.0375966
4182.31	0.0366722
4164.95	0.0335659
4147.59	0.0291747
4130.23	0.0305353
4112.87	0.0328361
4095.51	0.0388314
4078.15	0.0360641
4060.79	0.0313657
4043.43	0.626038
4026.07	0.614472
4008.71	0.61779
3991.35	0.617266
3973.99	0.620266
3956.63	0.613934
3939.27	0.600771
3921.91	0.587127
3904.55	0.597581
3887.19	0.589304
3869.83	0.582361
3852.47	0.578302
3835.11	0.584023
3817.75	0.588754
3800.39	0.587483
3783.03	0.594348
3765.67	0.596368
3748.31	0.598162
3730.95	0.597597
3713.59	0.606042
3696.23	0.6097
3678.87	0.613442
3661.51	0.623676
3644.15	0.62402
3626.79	0.626233
3609.43	0.627788
3592.07	0.626303
3574.71	0.621583
3557.35	0.615384
3539.99	0.594724
3522.64	0.56416
3505.28	0.51589
3487.92	0.522893
3470.56	0.52658
3453.2	0.492924
3435.84	0.477202
3418.48	0.474888
3401.12	0.464983
3383.76	0.427867
3366.4	0.364658
3349.04	0.320843
3331.68	0.312308
3314.32	0.220927
3296.96	0.194969
3279.6	0.18692
3262.24	0.179998
3244.88	0.249284
3227.52	0.308417
3210.16	0.338772
3192.8	0.337318
3175.44	0.395581
3158.08	0.36863
3140.72	0.375535
3123.36	0.39361
3106	0.412127
3088.64	0.400456
3071.28	0.424344
3053.92	0.423552
3036.56	0.434306
3019.2	0.445071
3001.84	0.455314
2984.48	0.448759
2967.12	0.455795
2949.76	0.459
2932.4	0.456297
2915.04	0.448089
2897.68	0.464684
2880.32	0.468615
2862.96	0.461027
2845.6	0.472863
2828.24	0.458982
2810.88	0.468235
2793.52	0.453932
2776.16	0.442264
2758.8	0.395518
2741.44	0.348288
2724.08	0.268291
2706.72	0.160081
2689.36	0.204378
2672	0.244438
2654.64	0.219389
2637.29	0.130271
2619.93	0.11835
2602.57	0.117334
2585.21	0.117019
2567.85	0.152831
2550.49	0.152663
2533.13	0.169303
2515.77	0.158494
2498.41	0.147303
2481.05	0.113641
2463.69	0.162279
2446.33	0.16679
2428.97	0.13965
2411.61	0.154664
2394.25	0.152192
2376.89	0.131394
2359.53	0.124715
2342.17	0.0876132
2324.81	0.0640912
2307.45	0.100124
2290.09	0.126865
2272.73	0.123585
2255.37	0.11888
2238.01	0.117814
2220.65	0.144932
2203.29	0.13855
2185.93	0.164886
2168.57	0.155925
2151.21	0.145277
2133.85	0.130265
2116.49	0.148245
2099.13	0.176114
2081.77	0.195984
2064.41	0.194666
2047.05	0.179601
2029.69	0.148885
2012.33	0.123588
1994.97	0.0904561
1977.61	0.0560604
1960.25	0.0459322
1942.89	0.0398015
1925.53	0.0354741
1908.17	0.0371693
1890.81	0.0385522
1873.45	0.0392602
1856.09	0.0387065
1838.73	0.037107
1821.37	0.0369713
1804.01	0.0379377
1786.65	0.0384883
1769.3	0.039697
1751.94	0.037829
1734.58	0.0380094
1717.22	0.0429658
1699.86	0.0464413
1682.5	0.0508636
1665.14	0.0561793
1647.78	0.0600516
1630.42	0.0674614
1613.06	0.0696178
1595.7	0.0824986
1578.34	0.0774083
1560.98	0.072776
1543.62	0.0612099
1526.26	0.0715469
1508.9	0.0684011
1491.54	0.0848058
1474.18	0.0656594
1456.82	0.0688527
1439.46	0.0834268
1422.1	0.0976227
1404.74	0.0624401
1387.38	0.100608
1370.02	0.0992685
1352.66	0.0907366
1335.3	0.104408
1317.94	0.0926253
1300.58	0.100555
1283.22	0.0563216
1265.86	0.0470751
1248.5	0.0537789
1231.14	0.0653194
1213.78	0.0482032
1196.42	0.054065
1179.06	0.0475819
1161.7	0.0531471
1144.34	0.0376489
1126.98	0.0348248
1109.62	0.0260736
1092.26	0.0307957
1074.9	0.0340697
1057.54	0.0370874
1040.18	0.032377
1022.82	0.0405878
1005.46	0.0406256
988.104	0.0341206
970.744	0.0316173
953.384	0.0355844
936.025	0.0358907
918.665	0.0339626
901.305	0.0383165
883.945	0.0294424
866.585	0.0328327
849.226	0.0373685
831.866	0.0369835
814.506	0.0327779
797.146	0.0292287
779.786	0.036581
762.427	0.0381694
745.067	0.0395702
727.707	0.0330765
710.347	0.0298461
692.987	0.0259003
675.628	0.039618
658.268	0.0279402
640.908	0.0336423
623.548	0.0338835
606.188	0.0339599
