Infrared Spectrum: BENZOIC ACID, o-HYDROXY-
Formula: C7 H6 O3
CAS: 69-72-7
State: SOLID (0.5 mg / 200 mg KBr DISC)
Melting point: 157-159 C
Boiling point: ABOUT 211 C AT 20 mmHg
Class: COBLENTZ III
Instrument: PERKIN-ELMER 21 (GRATING)
Instrument parameters: FILTER AT ABOUT 10 MICRONS
Sampling: TRANSMISSION
Resolution: 2
1/CM	TRANSMITTANCE
4000	0.7005
3991	0.7011
3982	0.7018
3973	0.7021
3964	0.7021
3955	0.7021
3946	0.7021
3937	0.7021
3928	0.7021
3919	0.7021
3910	0.7021
3901	0.7022
3892	0.7028
3883	0.7037
3874	0.7046
3865	0.7055
3856	0.7064
3847	0.7072
3838	0.7081
3829	0.7093
3820	0.7104
3811	0.7114
3802	0.7125
3793	0.7137
3784	0.7148
3775	0.7158
3766	0.7168
3757	0.7178
3748	0.7188
3739	0.7198
3730	0.7208
3721	0.7218
3712	0.7222
3703	0.7222
3694	0.7224
3685	0.7224
3676	0.7225
3667	0.7225
3658	0.7225
3649	0.7221
3640	0.7218
3631	0.7214
3622	0.7211
3613	0.7207
3604	0.7203
3595	0.7192
3586	0.7174
3577	0.7154
3568	0.7136
3559	0.7117
3550	0.7096
3541	0.7074
3532	0.7053
3523	0.7035
3514	0.7031
3505	0.7026
3496	0.7021
3487	0.7018
3478	0.7015
3469	0.701
3460	0.7005
3451	0.6999
3442	0.6993
3433	0.6987
3424	0.6978
3415	0.6961
3406	0.6947
3397	0.693
3388	0.6891
3379	0.6845
3370	0.6797
3361	0.6743
3352	0.6671
3343	0.6598
3334	0.6244
3325	0.5931
3316	0.5628
3307	0.5324
3298	0.5017
3289	0.4718
3280	0.4603
3271	0.4598
3262	0.4615
3253	0.4692
3244	0.4789
3235	0.4889
3226	0.5025
3217	0.5099
3208	0.5142
3199	0.5157
3190	0.5168
3181	0.5174
3172	0.5164
3163	0.5135
3154	0.5118
3145	0.5105
3136	0.5087
3127	0.5
3118	0.4868
3109	0.4723
3100	0.4647
3091	0.4596
3082	0.4548
3073	0.4518
3064	0.4488
3055	0.4466
3046	0.445
3037	0.4449
3028	0.4474
3019	0.4509
3010	0.4544
3001	0.458
2992	0.4614
2983	0.4647
2974	0.4671
2965	0.4681
2956	0.469
2947	0.47
2938	0.4701
2929	0.4695
2920	0.4679
2911	0.4652
2902	0.4627
2893	0.4598
2884	0.4567
2875	0.4565
2866	0.4588
2857	0.4628
2848	0.4673
2839	0.4737
2830	0.4801
2821	0.4868
2812	0.4938
2803	0.5007
2794	0.5076
2785	0.5143
2776	0.5198
2767	0.5252
2758	0.5275
2749	0.5289
2740	0.529
2731	0.529
2722	0.5305
2713	0.5322
2704	0.5353
2695	0.5393
2686	0.5426
2677	0.5444
2668	0.5454
2659	0.5456
2650	0.5399
2641	0.5297
2632	0.5207
2623	0.5147
2614	0.513
2605	0.5127
2596	0.5136
2587	0.5153
2578	0.5262
2569	0.5319
2560	0.5338
2551	0.5339
2542	0.5379
2533	0.5477
2524	0.5572
2515	0.5664
2506	0.5757
2497	0.5849
2488	0.5938
2479	0.6022
2470	0.6093
2461	0.6165
2452	0.6237
2443	0.631
2434	0.6384
2425	0.6442
2416	0.649
2407	0.6531
2398	0.6546
2389	0.6551
2380	0.6545
2371	0.6555
2362	0.6564
2353	0.6581
2344	0.6646
2335	0.6775
2326	0.6899
2317	0.7031
2308	0.7126
2299	0.7187
2290	0.7204
2281	0.7224
2272	0.7242
2263	0.7275
2254	0.7312
2245	0.7351
2236	0.7394
2227	0.7434
2218	0.7461
2209	0.7489
2200	0.75
2191	0.7498
2182	0.7507
2173	0.7522
2164	0.7555
2155	0.7582
2146	0.7601
2137	0.7599
2128	0.759
2119	0.758
2110	0.7575
2101	0.7581
2092	0.761
2083	0.7661
2074	0.7734
2065	0.7808
2056	0.7874
2047	0.7887
2038	0.7895
2029	0.7903
2020	0.791
2011	0.7908
2002	0.784
1993	0.7834
1984	0.7898
1975	0.7953
1966	0.7955
1957	0.7975
1948	0.8018
1939	0.8038
1930	0.8001
1921	0.806
1912	0.811
1903	0.8125
1894	0.8105
1885	0.8037
1876	0.7983
1867	0.8015
1858	0.8088
1849	0.8061
1840	0.7992
1831	0.7962
1822	0.7986
1813	0.8
1804	0.8
1795	0.798
1786	0.7926
1777	0.7832
1768	0.7605
1759	0.7345
1750	0.7208
1741	0.7028
1732	0.6807
1723	0.6404
1714	0.5905
1705	0.519
1696	0.3475
1687	0.2833
1678	0.2379
1669	0.1967
1660	0.3332
1651	0.4439
1642	0.521
1633	0.4655
1624	0.3239
1615	0.4504
1606	0.5527
1597	0.5822
1588	0.5284
1579	0.5525
1570	0.5881
1561	0.6621
1552	0.6637
1543	0.7075
1534	0.7155
1525	0.7289
1516	0.7249
1507	0.6492
1498	0.5327
1489	0.3209
1480	0.4662
1471	0.393
1462	0.4134
1453	0.2337
1444	0.2884
1435	0.4159
1426	0.5136
1417	0.593
1408	0.5992
1399	0.6105
1390	0.5701
1381	0.6184
1372	0.674
1363	0.6946
1354	0.7014
1345	0.6611
1336	0.6222
1327	0.5239
1318	0.5789
1309	0.3448
1300	0.2594
1291	0.3393
1282	0.5332
1273	0.6468
1264	0.5566
1255	0.2673
1246	0.2542
1237	0.353
1228	0.4288
1219	0.4383
1210	0.2949
1201	0.404
1192	0.4044
1183	0.4748
1174	0.555
1165	0.5886
1156	0.3476
1147	0.5115
1138	0.5593
1129	0.5851
1120	0.6124
1111	0.6281
1102	0.6535
1093	0.625
1084	0.6621
1075	0.681
1066	0.6921
1057	0.6993
1048	0.7095
1039	0.705
1030	0.6052
1021	0.6935
1012	0.7075
1003	0.7143
994	0.7106
985	0.7288
976	0.733
967	0.6788
958	0.7361
949	0.7403
940	0.7449
931	0.7328
922	0.6921
913	0.6426
904	0.5886
895	0.5151
886	0.5381
877	0.5986
868	0.5943
859	0.6818
850	0.6625
841	0.7389
832	0.765
823	0.7801
814	0.7822
805	0.7741
796	0.7761
787	0.5172
778	0.6656
769	0.635
760	0.2339
751	0.5829
742	0.7215
733	0.7474
724	0.7521
715	0.7201
706	0.5614
697	0.3596
688	0.516
