Infrared Spectrum: BENZOIC ACID, o-HYDROXY-
Formula: C7 H6 O3
CAS: 69-72-7
State: SOLID (NUJOL MULL)
Class: COBLENTZ III
Instrument: BECKMAN IR-7 (GRATING)
Instrument parameters: GRATING CHANGES AT 3000, 2200, 1150 CM^-^1
Sampling: TRANSMISSION
Resolution: 4
Origin: WESTERN REGIONAL RES. USDA
1/CM	TRANSMITTANCE
598.564	0.788
607.49	0.767
616.417	0.739
625.343	0.701
634.269	0.646
643.196	0.586
652.122	0.6222
661.048	0.6382
669.975	0.86
678.901	0.7471
687.828	0.372
696.754	0.207
705.68	0.688
714.607	0.825
723.533	0.847
732.459	0.853
741.386	0.842
750.312	0.5983
759.238	0.075
768.165	0.718
777.091	0.521
786.017	0.714
794.944	0.849
803.87	0.847
812.797	0.865
821.723	0.863
830.649	0.853
839.576	0.83
848.502	0.5211
857.428	0.7131
866.355	0.64
875.281	0.602
884.207	0.481
893.134	0.425
902.06	0.576
910.986	0.645
919.913	0.734
928.839	0.793
937.766	0.81
946.692	0.81
955.618	0.792
964.545	0.789
973.471	0.809
982.397	0.812
991.324	0.765
1000.25	0.805
1009.18	0.784
1018.1	0.757
1027.03	0.5271
1035.96	0.802
1044.88	0.803
1053.81	0.783
1062.73	0.78
1071.66	0.777
1080.59	0.717
1089.51	0.761
1098.44	0.751
1107.37	0.729
1116.29	0.704
1125.22	0.645
1134.15	0.616
1143.07	0.471
1152	0.135
1160.92	0.64
1169.85	0.616
1178.78	0.447
1187.7	0.306
1196.63	0.341
1205.56	0.1941
1214.48	0.3089
1223.41	0.337
1232.34	0.236
1241.26	0.139
1250.19	0.133
1259.11	0.549
1268.04	0.679
1276.97	0.509
1285.89	0.1651
1294.82	0.071
1303.75	0.1829
1312.67	0.543
1321.6	0.352
1330.53	0.606
1339.45	0.691
1348.38	0.711
1357.3	0.692
1366.23	0.631
1375.16	0.472
1384.08	0.517
1393.01	0.645
1401.94	0.594
1410.86	0.622
1419.79	0.503
1428.72	0.299
1437.64	0.097
1446.57	0.064
1455.49	0.185
1464.42	0.133
1473.35	0.361
1482.27	0.078
1491.2	0.602
1500.13	0.717
1509.05	0.779
1517.98	0.753
1526.9	0.767
1535.83	0.74
1544.76	0.683
1553.68	0.618
1562.61	0.543
1571.54	0.476
1580.46	0.4781
1589.39	0.569
1598.32	0.438
1607.24	0.198
1616.17	0.2451
1625.09	0.442
1634.02	0.369
1642.95	0.24
1651.87	0.097
1660.8	0.063
1669.73	0.101
1678.65	0.131
1687.58	0.3791
1696.51	0.573
1705.43	0.681
1714.36	0.718
1723.28	0.743
1732.21	0.78
1741.14	0.771
1750.06	0.775
1758.99	0.81
1767.92	0.827
1776.84	0.835
1785.77	0.843
1794.7	0.835
1803.62	0.833
1812.55	0.831
1821.47	0.827
1830.4	0.814
1839.33	0.834
1848.25	0.833
1857.18	0.813
1866.11	0.809
1875.03	0.827
1883.96	0.834
1892.89	0.837
1901.81	0.835
1910.74	0.83
1919.66	0.818
1928.59	0.83
1937.52	0.831
1946.44	0.818
1955.37	0.814
1964.3	0.823
1973.22	0.807
1982.15	0.779
1991.08	0.812
2000	0.81
2008.93	0.81
2017.85	0.807
2026.78	0.805
2035.71	0.8039
2044.63	0.7974
2053.56	0.7839
2062.49	0.7698
2071.41	0.7583
2080.34	0.7501
2089.27	0.7541
2098.19	0.7595
2107.12	0.7623
2116.04	0.771
2124.97	0.773
2133.9	0.7724
2142.82	0.7676
2151.75	0.7629
2160.68	0.7563
2169.6	0.7503
2178.53	0.7512
2187.46	0.757
2196.38	0.76
2205.31	0.759
2214.23	0.7539
2223.16	0.7484
2232.09	0.7438
2241.01	0.7393
2249.94	0.7337
2258.87	0.7252
2267.79	0.721
2276.72	0.7171
2285.65	0.7133
2294.57	0.7095
2303.5	0.7057
2312.42	0.7009
2321.35	0.6944
2330.28	0.6848
2339.2	0.6783
2348.13	0.6717
2357.06	0.6652
2365.98	0.6576
2374.91	0.6497
2383.84	0.6413
2392.76	0.634
2401.69	0.6267
2410.61	0.6179
2419.54	0.607
2428.47	0.5966
2437.39	0.5856
2446.32	0.5735
2455.25	0.561
2464.17	0.5473
2473.1	0.5343
2482.03	0.5194
2490.95	0.5035
2499.88	0.4934
2508.8	0.4649
2517.73	0.4519
2526.66	0.4211
2535.58	0.405
2544.51	0.4069
2553.44	0.4023
2562.36	0.3933
2571.29	0.3818
2580.21	0.3701
2589.14	0.362
2598.07	0.356
2606.99	0.3649
2615.92	0.3829
2624.85	0.3965
2633.77	0.4096
2642.7	0.4259
2651.63	0.432
2660.55	0.43
2669.48	0.4291
2678.4	0.4221
2687.33	0.4115
2696.26	0.4007
2705.18	0.396
2714.11	0.3912
2723.04	0.387
2731.96	0.3941
2740.89	0.4041
2749.82	0.407
2758.74	0.4016
2767.67	0.3878
2776.59	0.3751
2785.52	0.366
2794.45	0.3549
2803.37	0.3393
2812.3	0.3205
2821.23	0.2947
2830.15	0.2763
2839.08	0.2319
2848.01	0.1095
2856.93	0.0822
2865.86	0.0879
2874.78	0.1101
2883.71	0.128
2892.64	0.1216
2901.56	0.0975
2910.49	0.0761
2919.42	0.0365
2928.34	0.0284
2937.27	0.0377
2946.2	0.0496
2955.12	0.0587
2964.05	0.0901
2972.97	0.1482
2981.9	0.164
2990.83	0.1833
2999.75	0.2077
3008.68	0.2219
3017.61	0.2433
3026.53	0.2587
3035.46	0.2723
3044.39	0.2758
3053.31	0.2792
3062.24	0.282
3071.16	0.2859
3080.09	0.31
3089.02	0.3293
3097.94	0.3422
3106.87	0.3543
3115.8	0.3603
3124.72	0.3697
3133.65	0.3783
3142.58	0.3836
3151.5	0.3947
3160.43	0.4014
3169.35	0.4072
3178.28	0.408
3187.21	0.4082
3196.13	0.3962
3205.06	0.3635
3213.99	0.3396
3222.91	0.2951
3231.84	0.264
3240.77	0.2821
3249.69	0.3106
3258.62	0.3966
3267.54	0.4512
3276.47	0.5114
3285.4	0.5719
3294.32	0.6004
3303.25	0.6227
3312.18	0.6459
3321.1	0.6585
3330.03	0.6684
3338.96	0.6767
3347.88	0.6857
3356.81	0.6954
3365.73	0.7074
3374.66	0.719
3383.59	0.7268
3392.51	0.727
3401.44	0.725
3410.37	0.7238
3419.29	0.722
3428.22	0.721
3437.15	0.721
3446.07	0.7198
3455	0.718
3463.92	0.7163
3472.85	0.712
3481.78	0.7069
3490.7	0.6999
3499.63	0.6944
3508.56	0.6904
3517.48	0.689
3526.41	0.6901
3535.34	0.6929
3544.26	0.695
3553.19	0.6965
3562.11	0.697
3571.04	0.696
3579.97	0.6952
3588.89	0.691
3597.82	0.6877
3606.75	0.686
3615.67	0.685
3624.6	0.683
3633.52	0.6826
3642.45	0.682
3651.38	0.68
3660.3	0.679
3669.23	0.677
3678.16	0.6737
3687.08	0.671
3696.01	0.6672
3704.94	0.6644
3713.86	0.6616
3722.79	0.658
3731.71	0.656
3740.64	0.654
3749.57	0.6481
3758.49	0.645
3767.42	0.644
3776.35	0.6412
3785.27	0.6405
3794.2	0.6377
3803.13	0.6359
3812.05	0.6341
3820.98	0.6324
3829.9	0.6306
3838.83	0.628
3847.76	0.626
3856.68	0.6243
3865.61	0.6225
3874.54	0.6197
3883.46	0.617
3892.39	0.6152
3901.32	0.6124
3910.24	0.6106
3919.17	0.6079
3928.09	0.6061
3937.02	0.6033
3945.95	0.6021
3954.87	0.5998
3963.8	0.598
3972.73	0.5952
3981.65	0.5935
3990.58	0.5907
3999.51	0.5909
