Infrared Spectrum: SALICYLIC ACID
Formula: C7 H6 O3
CAS: 69-72-7
State: SOLID (2 mg/300mg KBr PELLET)
Class: COBLENTZ
Instrument: Not specified, most likely a prism, grating, or hybrid spectrometer.
Sampling: TRANSMISSION
Resolution: 4
Origin: INFRACORD
MICROMETERS	TRANSMITTANCE
2.542	0.63
2.60051	0.63
2.65901	0.615
2.71752	0.64
2.77603	0.65
2.83453	0.666
2.89304	0.681
2.95155	0.702
3.01005	0.651
3.06856	0.511
3.12706	0.293
3.18557	0.348
3.24408	0.344
3.30258	0.298
3.36109	0.254
3.4196	0.268
3.4781	0.287
3.53661	0.259
3.59512	0.285
3.65362	0.334
3.71213	0.341
3.77064	0.338
3.82914	0.354
3.88765	0.326
3.94615	0.323
4.00466	0.336
4.06317	0.391
4.12167	0.43
4.18018	0.458
4.23869	0.483
4.29719	0.501
4.3557	0.528
4.41421	0.547
4.47271	0.566
4.53122	0.584
4.58973	0.597
4.64823	0.607
4.70674	0.612
4.76524	0.623
4.82375	0.617
4.88226	0.635
4.94076	0.666
4.99927	0.674
5.05778	0.669
5.11628	0.66
5.17479	0.684
5.2333	0.689
5.2918	0.694
5.35031	0.704
5.40882	0.683
5.46732	0.696
5.52583	0.683
5.58433	0.691
5.64284	0.698
5.70135	0.673
5.75985	0.6
5.81836	0.57
5.87687	0.5
5.93537	0.415
5.99388	0.259
6.05239	0.103
6.11089	0.07
6.1694	0.272
6.22791	0.316
6.28641	0.15
6.34492	0.348
6.40342	0.351
6.46193	0.377
6.52044	0.503
6.57894	0.575
6.63745	0.603
6.69596	0.607
6.75446	0.443
6.81297	0.097
6.87148	0.232
6.92998	0.199
6.98849	0.13
7.047	0.146
7.1055	0.27
7.16401	0.399
7.22251	0.425
7.28102	0.4
7.33953	0.41
7.39803	0.514
7.45654	0.559
7.51505	0.549
7.57355	0.419
7.63206	0.325
7.69057	0.356
7.74907	0.146
7.80758	0.092
7.86609	0.178
7.92459	0.432
7.9831	0.41
8.0416	0.168
8.10011	0.077
8.15862	0.143
8.21712	0.184
8.27563	0.226
8.33414	0.12
8.39264	0.156
8.45115	0.202
8.50966	0.199
8.56816	0.311
8.62667	0.409
8.68518	0.27
8.74368	0.136
8.80219	0.295
8.86069	0.341
8.9192	0.369
8.97771	0.397
9.03621	0.435
9.09472	0.453
9.15323	0.475
9.21173	0.468
9.27024	0.445
9.32875	0.495
9.38725	0.506
9.44576	0.519
9.50427	0.524
9.56277	0.536
9.62128	0.544
9.67979	0.542
9.73829	0.382
9.7968	0.445
9.8553	0.5
9.91381	0.529
9.97232	0.534
10.0308	0.533
10.0893	0.526
10.1478	0.534
10.2063	0.554
10.2648	0.557
10.3234	0.554
10.3819	0.501
10.4404	0.508
10.4989	0.556
10.5574	0.562
10.6159	0.562
10.6744	0.561
10.7329	0.552
10.7914	0.534
10.8499	0.506
10.9084	0.455
10.9669	0.429
11.0254	0.409
11.0839	0.381
11.1424	0.336
11.201	0.287
11.2595	0.282
11.318	0.292
11.3765	0.32
11.435	0.361
11.4935	0.397
11.552	0.376
11.6105	0.407
11.669	0.463
11.7275	0.392
11.786	0.394
11.8445	0.509
11.903	0.549
11.9615	0.58
12.02	0.595
12.0785	0.607
12.1371	0.618
12.1956	0.63
12.2541	0.638
12.3126	0.643
12.3711	0.641
12.4296	0.627
12.4881	0.633
12.5466	0.65
12.6051	0.641
12.6636	0.557
12.7221	0.354
12.7806	0.295
12.8391	0.354
12.8976	0.433
12.9561	0.45
13.0147	0.43
13.0732	0.351
13.1317	0.201
13.1902	0.069
13.2487	0.082
13.3072	0.232
13.3657	0.334
13.4242	0.445
13.4827	0.498
13.5412	0.533
13.5997	0.557
13.6582	0.574
13.7167	0.579
13.7752	0.58
13.8337	0.579
13.8922	0.57
13.9508	0.552
14.0093	0.533
14.0678	0.485
14.1263	0.429
14.1848	0.359
14.2433	0.287
14.3018	0.211
14.3603	0.158
14.4188	0.15
14.4773	0.161
14.5358	0.204
14.5943	0.252
14.6528	0.3
14.7113	0.366
14.7698	0.404
14.8284	0.422
14.8869	0.43
14.9454	0.46
15.0039	0.46
15.0624	0.371
15.1209	0.222
15.1794	0.125
15.2379	0.156
15.2964	0.224
15.3549	0.272
15.4134	0.326
15.4719	0.371
15.5304	0.397
15.5889	0.419
15.6474	0.433
15.7059	0.45
15.7645	0.465
15.823	0.473
15.8815	0.488
15.94	0.498
15.9985	0.503
16.057	0.514
16.1155	0.524
16.174	0.528
16.2325	0.528
16.291	0.528
16.3495	0.528
16.408	0.528
16.4665	0.529
16.525	0.531
16.5835	0.534
16.6421	0.542
16.7006	0.549
16.7591	0.559
16.8176	0.566
16.8761	0.575
16.9346	0.582
16.9931	0.589
17.0516	0.589
17.1101	0.585
17.1686	0.579
17.2271	0.57
17.2856	0.557
17.3441	0.544
17.4026	0.534
17.4611	0.518
17.5196	0.476
17.5782	0.45
17.6367	0.43
17.6952	0.435
17.7537	0.475
17.8122	0.509
17.8707	0.544
17.9292	0.567
17.9877	0.582
18.0462	0.599
18.1047	0.613
18.1632	0.632
18.2217	0.643
18.2802	0.648
18.3387	0.648
18.3972	0.645
18.4558	0.615
18.5143	0.574
18.5728	0.537
18.6313	0.506
18.6898	0.437
18.7483	0.305
18.8068	0.24
18.8653	0.278
18.9238	0.372
18.9823	0.419
19.0408	0.46
19.0993	0.498
19.1578	0.519
19.2163	0.542
19.2748	0.557
19.3333	0.564
19.3919	0.567
19.4504	0.569
19.5089	0.569
19.5674	0.57
19.6259	0.574
19.6844	0.585
19.7429	0.595
19.8014	0.6
19.8599	0.61
19.9184	0.617
19.9769	0.62
20.0354	0.623
20.0939	0.625
20.1524	0.63
20.2109	0.632
20.2694	0.633
20.328	0.64
20.3865	0.645
20.445	0.65
20.5035	0.661
20.562	0.661
20.6205	0.661
20.679	0.665
20.7375	0.666
20.796	0.671
20.8545	0.674
20.913	0.679
20.9715	0.679
21.03	0.679
21.0885	0.676
21.147	0.665
21.2056	0.627
21.2641	0.557
21.3226	0.48
21.3811	0.407
21.4396	0.344
21.4981	0.31
21.5566	0.288
21.6151	0.288
21.6736	0.305
21.7321	0.33
21.7906	0.354
21.8491	0.377
21.9076	0.396
21.9661	0.422
22.0246	0.447
22.0831	0.462
22.1417	0.48
22.2002	0.498
22.2587	0.509
22.3172	0.519
22.3757	0.531
22.4342	0.542
22.4927	0.547
22.5512	0.554
22.6097	0.559
22.6682	0.562
22.7267	0.564
22.7852	0.569
22.8437	0.575
22.9022	0.58
22.9607	0.587
23.0193	0.59
23.0778	0.585
23.1363	0.582
23.1948	0.575
23.2533	0.57
23.3118	0.564
23.3703	0.561
23.4288	0.557
23.4873	0.559
23.5458	0.566
23.6043	0.569
23.6628	0.575
23.7213	0.58
23.7798	0.587
23.8383	0.594
23.8968	0.597
23.9554	0.602
24.0139	0.607
24.0724	0.607
24.1309	0.607
24.1894	0.605
24.2479	0.608
24.3064	0.613
24.3649	0.618
24.4234	0.62
24.4819	0.622
24.5404	0.622
24.5989	0.622
24.6574	0.618
24.7159	0.618
24.7744	0.618
24.833	0.62
