Infrared Spectrum: ANILINE, 2,3,5,6-TETRAFLUORO-
Formula: C6 H3 F4 N
CAS: 700-17-4
State: SOLUTION (5% CCl4 FOR 3800-1330, 5% CS2 FOR 1330-400)
Boiling point: 158 C
Class: COBLENTZ III
Instrument: BECKMAN IR-9 (GRATING)
Instrument parameters: ORDER CHANGES: 670, 1200, 2000 CM^-^1
Sampling: TRANSMISSION
Path length: 0.010 CM, 0.011 CM
Resolution: 2
Origin: DOW CHEMICAL COMPANY
1/CM	TRANSMITTANCE
403	0.0904
412	0.1424
421	0.3775
430	0.4607
439	0.5234
448	0.5581
457	0.5841
466	0.6092
475	0.6551
484	0.6696
493	0.6865
502	0.7006
511	0.7145
520	0.7295
529	0.7428
538	0.7539
547	0.7643
556	0.7635
565	0.7285
574	0.7718
583	0.7887
592	0.7543
601	0.7378
610	0.7498
619	0.7549
628	0.7471
637	0.7328
646	0.7208
655	0.7094
664	0.7235
673	0.6682
682	0.761
691	0.7728
700	0.7804
709	0.6587
718	0.5668
727	0.7425
736	0.771
745	0.7805
754	0.7875
763	0.791
772	0.7865
781	0.7801
790	0.7419
799	0.2903
808	0.547
817	0.7594
826	0.7786
835	0.7697
844	0.7641
853	0.688
862	0.6684
871	0.6651
880	0.39
889	0.2838
898	0.4723
907	0.7174
916	0.7676
925	0.8075
934	0.8198
943	0.8171
952	0.7095
961	0.8037
970	0.8096
979	0.8251
988	0.8498
997	0.851
1006	0.8491
1015	0.8313
1024	0.8182
1033	0.8265
1042	0.8088
1051	0.7753
1060	0.8034
1069	0.778
1078	0.5527
1087	0.0702
1096	0.4679
1105	0.3393
1114	0.6746
1123	0.7108
1132	0.81
1141	0.8106
1150	0.6808
1159	0.4479
1168	0.4452
1177	0.1354
1186	0.6332
1195	0.7789
1204	0.7799
1213	0.7534
1222	0.7715
1231	0.8471
1240	0.8441
1249	0.8451
1258	0.7988
1267	0.4138
1276	0.736
1285	0.8211
1294	0.8449
1303	0.8535
1312	0.8515
1321	0.8496
1330	0.8513
1339	0.8521
1348	0.8475
1357	0.7942
1366	0.8474
1375	0.8534
1384	0.8493
1393	0.8391
1402	0.5703
1411	0.8457
1420	0.8477
1429	0.8435
1438	0.8278
1447	0.7925
1456	0.7885
1465	0.8061
1474	0.7815
1483	0.7107
1492	0.5223
1501	0.0487
1510	0.2331
1519	0.0525
1528	0.0018
1537	0.1592
1546	0.3402
1555	0.3756
1564	0.4515
1573	0.5358
1582	0.5607
1591	0.5553
1600	0.485
1609	0.4803
1618	0.5252
1627	0.7117
1636	0.7538
1645	0.7368
1654	0.4136
1663	0.0389
1672	0.6244
1681	0.7406
1690	0.8108
1699	0.8154
1708	0.8337
1717	0.8512
1726	0.8556
1735	0.8571
1744	0.8571
1753	0.8559
1762	0.8567
1771	0.8645
1780	0.8627
1789	0.8714
1798	0.8708
1807	0.8673
1816	0.8611
1825	0.8545
1834	0.854
1843	0.8553
1852	0.8677
1861	0.8686
1870	0.8694
1879	0.8713
1888	0.8699
1897	0.8706
1906	0.876
1915	0.8777
1924	0.8775
1933	0.8753
1942	0.8718
1951	0.8767
1960	0.8787
1969	0.8777
1978	0.8751
1987	0.8699
1996	0.8645
2005	0.8591
2014	0.8649
2023	0.8664
2032	0.8662
2041	0.8653
2050	0.8634
2059	0.865
2068	0.8673
2077	0.871
2086	0.8736
2095	0.8734
2104	0.8725
2113	0.8711
2122	0.8728
2131	0.8753
2140	0.8775
2149	0.8767
2158	0.8751
2167	0.8768
2176	0.8777
2185	0.8766
2194	0.8733
2203	0.8713
2212	0.8713
2221	0.8732
2230	0.8699
2239	0.8609
2248	0.8608
2257	0.8678
2266	0.8658
2275	0.8596
2284	0.851
2293	0.8521
2302	0.8577
2311	0.8638
2320	0.8705
2329	0.8694
2338	0.8698
2347	0.8753
2356	0.8796
2365	0.8793
2374	0.879
2383	0.8787
2392	0.879
2401	0.8792
2410	0.8792
2419	0.8798
2428	0.8806
2437	0.8814
2446	0.8824
2455	0.8836
2464	0.8841
2473	0.8817
2482	0.8778
2491	0.8734
2500	0.8621
2509	0.8678
2518	0.8799
2527	0.8814
2536	0.8813
2545	0.8808
2554	0.8798
2563	0.8788
2572	0.8767
2581	0.8696
2590	0.8648
2599	0.8742
2608	0.8762
2617	0.8739
2626	0.8711
2635	0.8659
2644	0.8671
2653	0.8741
2662	0.8794
2671	0.8794
2680	0.8791
2689	0.8786
2698	0.8782
2707	0.878
2716	0.878
2725	0.8791
2734	0.8814
2743	0.8823
2752	0.8801
2761	0.8775
2770	0.8749
2779	0.8734
2788	0.8793
2797	0.8808
2806	0.8818
2815	0.8828
2824	0.8832
2833	0.8816
2842	0.8806
2851	0.8797
2860	0.8792
2869	0.8787
2878	0.8783
2887	0.8778
2896	0.8771
2905	0.8763
2914	0.8735
2923	0.8671
2932	0.8605
2941	0.8686
2950	0.8761
2959	0.8773
2968	0.8787
2977	0.8799
2986	0.8811
2995	0.8808
3004	0.8806
3013	0.8807
3022	0.8802
3031	0.8787
3040	0.878
3049	0.8775
3058	0.8771
3067	0.8758
3076	0.8704
3085	0.7998
3094	0.7544
3103	0.8315
3112	0.8599
3121	0.8651
3130	0.8613
3139	0.8612
3148	0.8634
3157	0.8659
3166	0.8625
3175	0.8559
3184	0.8507
3193	0.8533
3202	0.8573
3211	0.8615
3220	0.8657
3229	0.8692
3238	0.8711
3247	0.8712
3256	0.8697
3265	0.8678
3274	0.87
3283	0.8736
3292	0.8765
3301	0.8771
3310	0.8764
3319	0.8746
3328	0.8718
3337	0.8681
3346	0.8623
3355	0.8552
3364	0.8473
3373	0.8356
3382	0.7984
3391	0.7134
3400	0.5495
3409	0.3244
3418	0.5272
3427	0.7592
3436	0.8014
3445	0.8291
3454	0.837
3463	0.835
3472	0.8078
3481	0.745
3490	0.666
3499	0.5705
3508	0.4996
3517	0.7028
3526	0.8001
3535	0.8348
3544	0.851
3553	0.8604
3562	0.867
3571	0.8691
3580	0.8637
3589	0.8723
3598	0.8806
3607	0.8736
3616	0.8784
3625	0.8808
3634	0.8828
3643	0.885
3652	0.8859
3661	0.8867
3670	0.8871
3679	0.8871
3688	0.8871
3697	0.8873
3706	0.8875
3715	0.8878
3724	0.888
3733	0.8882
3742	0.8884
3751	0.8886
3760	0.8889
3769	0.8887
3778	0.8875
3787	0.8854
3796	0.8836
