Infrared Spectrum: Acetic acid, methoxyphenyl
Formula: C9 H10 O3
CAS: 7021-09-2
State: SOLID (KBr DISC)
Melting point: 71 C
Class: COBLENTZ III
Instrument: BECKMAN IR-4 (HYBRID PRISM-GRATING)
Sampling: TRANSMISSION
Resolution: 2
Origin: UNIVERSITY OF FLORIDA
1/CM	TRANSMITTANCE
668	0.3518
677	0.4617
686	0.511
695	0.1244
704	0.3475
713	0.2392
722	0.0908
731	0.451
740	0.5946
749	0.5989
758	0.5465
767	0.2928
776	0.4604
785	0.5897
794	0.5926
803	0.5774
812	0.5579
821	0.5423
830	0.5084
839	0.4544
848	0.4643
857	0.4036
866	0.4732
875	0.4607
884	0.4709
893	0.492
902	0.5159
911	0.4706
920	0.5764
929	0.5878
938	0.5633
947	0.5243
956	0.4147
965	0.4307
974	0.0976
983	0.4473
992	0.5993
1001	0.5945
1010	0.6788
1019	0.6744
1028	0.5512
1037	0.6518
1046	0.5918
1055	0.4885
1064	0.3023
1073	0.1169
1082	0.0075
1091	0
1100	0.1915
1109	0.3366
1118	0.4683
1127	0.5478
1136	0.5831
1145	0.5876
1154	0.4494
1163	0.4615
1172	0.209
1181	0.0128
1190	0.0472
1199	0.2652
1208	0.3474
1217	0.1569
1226	0.0379
1235	0.3148
1244	0.391
1253	0.2665
1262	0.259
1271	0.4905
1280	0.6067
1289	0.613
1298	0.5864
1307	0.605
1316	0.5379
1325	0.4396
1334	0.5288
1343	0.5674
1352	0.6385
1361	0.6494
1370	0.643
1379	0.6156
1388	0.5836
1397	0.4915
1406	0.2376
1415	0.1632
1424	0.3972
1433	0.4887
1442	0.5296
1451	0.4391
1460	0.3478
1469	0.4945
1478	0.6023
1487	0.6248
1496	0.4195
1505	0.6179
1514	0.6538
1523	0.6881
1532	0.7001
1541	0.7111
1550	0.7047
1559	0.701
1568	0.6997
1577	0.6848
1586	0.6365
1595	0.6818
1604	0.6793
1613	0.6831
1622	0.6738
1631	0.6697
1640	0.6684
1649	0.6629
1658	0.643
1667	0.6359
1676	0.6182
1685	0.5746
1694	0.5354
1703	0.5004
1712	0.4691
1721	0.4002
1730	0.2995
1739	0.216
1748	0.117
1757	0.0163
1766	0.003
1775	0.1864
1784	0.4049
1793	0.4838
1802	0.5311
1811	0.5642
1820	0.5741
1829	0.5966
1838	0.6507
1847	0.6618
1856	0.668
1865	0.6777
1874	0.6788
1883	0.6778
1892	0.6875
1901	0.6975
1910	0.6995
1919	0.7154
1928	0.7202
1937	0.7226
1946	0.7169
1955	0.7166
1964	0.7069
1973	0.7131
1982	0.7185
1991	0.7177
2000	0.7237
2009	0.7346
2018	0.7396
2027	0.7385
2036	0.7349
2045	0.7291
2054	0.7246
2063	0.7278
2072	0.7358
2081	0.7388
2090	0.7412
2099	0.7435
2108	0.7461
2117	0.7479
2126	0.7474
2135	0.7446
2144	0.743
2153	0.7418
2162	0.7406
2171	0.7395
2180	0.7384
2189	0.737
2198	0.7362
2207	0.7365
2216	0.7375
2225	0.7391
2234	0.7399
2243	0.7393
2252	0.7375
2261	0.7349
2270	0.733
2279	0.7325
2288	0.7345
2297	0.7363
2306	0.7364
2315	0.7361
2324	0.7358
2333	0.7354
2342	0.735
2351	0.7338
2360	0.732
2369	0.7266
2378	0.7125
2387	0.6926
2396	0.685
2405	0.6818
2414	0.6805
2423	0.6759
2432	0.6617
2441	0.6613
2450	0.6609
2459	0.6544
2468	0.6327
2477	0.6222
2486	0.6031
2495	0.5888
2504	0.5859
2513	0.5841
2522	0.5793
2531	0.5645
2540	0.5629
2549	0.5676
2558	0.5679
2567	0.554
2576	0.5434
2585	0.5375
2594	0.5344
2603	0.5319
2612	0.5252
2621	0.5104
2630	0.5097
2639	0.519
2648	0.5317
2657	0.5368
2666	0.537
2675	0.5359
2684	0.5334
2693	0.5223
2702	0.5067
2711	0.488
2720	0.4747
2729	0.4763
2738	0.481
2747	0.4873
2756	0.4887
2765	0.4854
2774	0.4747
2783	0.4644
2792	0.4516
2801	0.4321
2810	0.3984
2819	0.372
2828	0.3465
2837	0.3232
2846	0.3027
2855	0.289
2864	0.2797
2873	0.2682
2882	0.2532
2891	0.2316
2900	0.2012
2909	0.1733
2918	0.1354
2927	0.1146
2936	0.1014
2945	0.0891
2954	0.0841
2963	0.0841
2972	0.0849
2981	0.0862
2990	0.088
2999	0.0893
3008	0.0865
3017	0.0851
3026	0.0848
3035	0.086
3044	0.0897
3053	0.0959
3062	0.1056
3071	0.1123
3080	0.1134
3089	0.1151
3098	0.1176
3107	0.1249
3116	0.1484
3125	0.1625
3134	0.172
3143	0.1786
3152	0.1811
3161	0.1831
3170	0.186
3179	0.1933
3188	0.2108
3197	0.2295
3206	0.2438
3215	0.2598
3224	0.2776
3233	0.2998
3242	0.3239
3251	0.3489
3260	0.3738
3269	0.3985
3278	0.4229
3287	0.445
3296	0.4689
3305	0.4986
3314	0.5132
3323	0.5293
3332	0.5466
3341	0.5624
3350	0.573
3359	0.5815
3368	0.5894
3377	0.5968
3386	0.6036
3395	0.608
3404	0.6117
3413	0.6153
3422	0.6171
3431	0.6169
3440	0.6158
3449	0.6172
3458	0.6267
3467	0.6423
3476	0.6529
3485	0.6615
3494	0.6689
3503	0.6756
3512	0.6814
3521	0.6868
3530	0.6922
3539	0.6976
3548	0.7014
3557	0.7043
3566	0.707
3575	0.7094
3584	0.7119
3593	0.7142
3602	0.7165
3611	0.7182
3620	0.7197
3629	0.7211
3638	0.7219
3647	0.7226
3656	0.7234
3665	0.725
3674	0.7282
3683	0.7318
3692	0.7336
3701	0.7351
3710	0.7364
3719	0.7375
3728	0.7385
3737	0.7394
3746	0.7399
3755	0.7396
3764	0.7386
3773	0.7369
3782	0.7354
3791	0.7355
3800	0.7355
3809	0.7359
3818	0.7365
3827	0.7371
3836	0.7378
3845	0.7381
3854	0.7382
3863	0.7381
3872	0.7379
3881	0.7378
3890	0.7375
3899	0.737
3908	0.7365
3917	0.7359
3926	0.7352
3935	0.7345
3944	0.7338
3953	0.7332
3962	0.7324
3971	0.7318
3980	0.7312
3989	0.7305
3998	0.73
