Infrared Spectrum: HEXACHLOROPHENE
Formula: C13 H6 Cl6 O2
CAS: 70-30-4
State: SOLID (KBr DISC)
Melting point: 164-165 C
Class: COBLENTZ III
Instrument: PERKIN-ELMER 21 (GRATING)
Instrument parameters: FILTER AT ABOUT 10 MICRONS
Sampling: TRANSMISSION
Resolution: 2
1/CM	TRANSMITTANCE
4000	0.9185
3991	0.9188
3982	0.919
3973	0.9192
3964	0.9195
3955	0.9198
3946	0.92
3937	0.9205
3928	0.9207
3919	0.9211
3910	0.9214
3901	0.9216
3892	0.922
3883	0.9225
3874	0.9226
3865	0.9232
3856	0.9235
3847	0.924
3838	0.9244
3829	0.9248
3820	0.9252
3811	0.9257
3802	0.9263
3793	0.9267
3784	0.9273
3775	0.9277
3766	0.9287
3757	0.9297
3748	0.9306
3739	0.9316
3730	0.9324
3721	0.933
3712	0.9336
3703	0.9342
3694	0.9349
3685	0.9353
3676	0.9355
3667	0.9356
3658	0.9356
3649	0.9357
3640	0.9356
3631	0.9353
3622	0.9348
3613	0.9342
3604	0.9331
3595	0.9313
3586	0.9286
3577	0.9259
3568	0.9215
3559	0.9163
3550	0.911
3541	0.9023
3532	0.8814
3523	0.8566
3514	0.837
3505	0.8121
3496	0.7861
3487	0.7208
3478	0.6379
3469	0.5654
3460	0.5553
3451	0.5787
3442	0.6257
3433	0.6691
3424	0.6747
3415	0.6717
3406	0.6521
3397	0.6298
3388	0.6072
3379	0.5906
3370	0.5874
3361	0.5871
3352	0.5892
3343	0.5996
3334	0.6146
3325	0.6397
3316	0.6765
3307	0.7085
3298	0.7282
3289	0.7428
3280	0.7558
3271	0.7675
3262	0.7774
3253	0.7873
3244	0.7973
3235	0.8064
3226	0.814
3217	0.8216
3208	0.8276
3199	0.8335
3190	0.837
3181	0.8407
3172	0.8459
3163	0.8508
3154	0.8546
3145	0.8578
3136	0.8614
3127	0.8649
3118	0.8683
3109	0.8717
3100	0.8737
3091	0.8752
3082	0.8735
3073	0.8677
3064	0.861
3055	0.8587
3046	0.8599
3037	0.8643
3028	0.8735
3019	0.8814
3010	0.8873
3001	0.8907
2992	0.8933
2983	0.8948
2974	0.8954
2965	0.895
2956	0.8946
2947	0.8922
2938	0.8883
2929	0.8848
2920	0.8816
2911	0.8788
2902	0.8764
2893	0.8763
2884	0.8781
2875	0.8836
2866	0.889
2857	0.8915
2848	0.8937
2839	0.895
2830	0.896
2821	0.8972
2812	0.899
2803	0.9017
2794	0.9039
2785	0.9068
2776	0.9096
2767	0.9125
2758	0.9153
2749	0.9184
2740	0.9208
2731	0.9224
2722	0.9239
2713	0.9238
2704	0.9234
2695	0.9222
2686	0.9223
2677	0.9235
2668	0.9254
2659	0.9271
2650	0.9286
2641	0.9293
2632	0.93
2623	0.9307
2614	0.9313
2605	0.9321
2596	0.9328
2587	0.9335
2578	0.934
2569	0.9346
2560	0.9352
2551	0.9357
2542	0.9361
2533	0.9364
2524	0.9367
2515	0.9369
2506	0.9375
2497	0.9381
2488	0.9386
2479	0.9392
2470	0.94
2461	0.9406
2452	0.9409
2443	0.9414
2434	0.9417
2425	0.9421
2416	0.9426
2407	0.9431
2398	0.9433
2389	0.9435
2380	0.9438
2371	0.9439
2362	0.9432
2353	0.9418
2344	0.9406
2335	0.9402
2326	0.9401
2317	0.9403
2308	0.9409
2299	0.9419
2290	0.9428
2281	0.9436
2272	0.9448
2263	0.9459
2254	0.9471
2245	0.9484
2236	0.9489
2227	0.9493
2218	0.9496
2209	0.9499
2200	0.9501
2191	0.9506
2182	0.9512
2173	0.9518
2164	0.9525
2155	0.9531
2146	0.9539
2137	0.9547
2128	0.9556
2119	0.9565
2110	0.9567
2101	0.9562
2092	0.9556
2083	0.9549
2074	0.9543
2065	0.9538
2056	0.9531
2047	0.9524
2038	0.952
2029	0.9513
2020	0.9509
2011	0.9509
2002	0.9509
1993	0.9509
1984	0.9512
1975	0.9514
1966	0.9517
1957	0.952
1948	0.9524
1939	0.9531
1930	0.9538
1921	0.9545
1912	0.9551
1903	0.9555
1894	0.9558
1885	0.9563
1876	0.9573
1867	0.9581
1858	0.9583
1849	0.9585
1840	0.9587
1831	0.9592
1822	0.9596
1813	0.9596
1804	0.9594
1795	0.959
1786	0.9586
1777	0.958
1768	0.9572
1759	0.9551
1750	0.9506
1741	0.9351
1732	0.9281
1723	0.9174
1714	0.9159
1705	0.9225
1696	0.926
1687	0.9306
1678	0.9321
1669	0.9284
1660	0.9229
1651	0.9156
1642	0.9072
1633	0.8979
1624	0.8944
1615	0.8987
1606	0.9069
1597	0.9139
1588	0.9131
1579	0.8432
1570	0.833
1561	0.8541
1552	0.8957
1543	0.9238
1534	0.9278
1525	0.9299
1516	0.9315
1507	0.9358
1498	0.9346
1489	0.9168
1480	0.8994
1471	0.8956
1462	0.8766
1453	0.6808
1444	0.3133
1435	0.3187
1426	0.5151
1417	0.7389
1408	0.7558
1399	0.6099
1390	0.6699
1381	0.6867
1372	0.8428
1363	0.8736
1354	0.886
1345	0.8847
1336	0.8685
1327	0.8364
1318	0.7669
1309	0.6248
1300	0.7456
1291	0.7333
1282	0.5791
1273	0.7072
1264	0.7695
1255	0.779
1246	0.7452
1237	0.6724
1228	0.6989
1219	0.6898
1210	0.6477
1201	0.7194
1192	0.6181
1183	0.5734
1174	0.659
1165	0.6489
1156	0.7809
1147	0.7877
1138	0.4972
1129	0.6219
1120	0.7627
1111	0.8219
1102	0.846
1093	0.8584
1084	0.8656
1075	0.8687
1066	0.8768
1057	0.8798
1048	0.8836
1039	0.8847
1030	0.8873
1021	0.8927
1012	0.8948
1003	0.9032
994	0.8985
985	0.9051
976	0.8881
967	0.7014
958	0.67
949	0.7202
940	0.7714
931	0.8132
922	0.8559
913	0.9144
904	0.9268
895	0.8481
886	0.6881
877	0.8718
868	0.7998
859	0.6631
850	0.8961
841	0.9308
832	0.9337
823	0.9355
814	0.9376
805	0.9339
796	0.9312
787	0.9324
778	0.925
769	0.8993
760	0.9196
751	0.8266
742	0.5985
733	0.661
724	0.8365
715	0.8581
706	0.9057
697	0.9174
688	0.9144
679	0.9067
670	0.8801
