Infrared Spectrum: BIS-(2-HYDROXY-3,5,6-TRICHLOROPHENYL)METHANE
Formula: C13 H6 Cl6 O2
CAS: 70-30-4
State: SOLID (MINERAL OIL MULL)
Class: COBLENTZ
Instrument: Not specified, most likely a prism, grating, or hybrid spectrometer.
Sampling: TRANSMISSION
Resolution: 4
Origin: WYANDOTTE CHEMICALS CORP., WYANDOTTE, MICHIGAN, USA
MICROMETERS	TRANSMITTANCE
2.02	0.219
2.06082	0.23
2.10164	0.25
2.14245	0.269
2.18327	0.27
2.22409	0.272
2.26491	0.284
2.30572	0.307
2.34654	0.319
2.38736	0.331
2.42818	0.343
2.46899	0.351
2.50981	0.36
2.55063	0.373
2.59145	0.39
2.63226	0.414
2.67308	0.429
2.7139	0.446
2.75472	0.472
2.79553	0.522
2.83635	0.309
2.87717	0.131
2.91799	0.28
2.9588	0.346
2.99962	0.385
3.04044	0.417
3.08126	0.419
3.12207	0.416
3.16289	0.407
3.20371	0.401
3.24453	0.375
3.28534	0.353
3.32616	0.236
3.36698	0.03
3.4078	0.028
3.44861	0.047
3.48943	0.059
3.53025	0.17
3.57107	0.554
3.61188	0.609
3.6527	0.605
3.69352	0.602
3.73434	0.617
3.77515	0.627
3.81597	0.639
3.85679	0.659
3.89761	0.651
3.93842	0.664
3.97924	0.681
4.02006	0.69
4.06088	0.702
4.10169	0.7
4.14251	0.705
4.18333	0.724
4.22415	0.719
4.26496	0.719
4.30578	0.734
4.3466	0.752
4.38742	0.768
4.42823	0.768
4.46905	0.771
4.50987	0.781
4.55069	0.785
4.5915	0.791
4.63232	0.798
4.67314	0.8
4.71396	0.818
4.75477	0.824
4.79559	0.827
4.83641	0.827
4.87723	0.83
4.91805	0.834
4.95886	0.84
4.99968	0.847
5.0405	0.847
5.08132	0.856
5.12213	0.873
5.16295	0.876
5.20377	0.881
5.24459	0.886
5.2854	0.895
5.32622	0.901
5.36704	0.906
5.40786	0.91
5.44867	0.913
5.48949	0.917
5.53031	0.917
5.57113	0.92
5.61194	0.925
5.65276	0.928
5.69358	0.932
5.7344	0.925
5.77521	0.89
5.81603	0.802
5.85685	0.9
5.89767	0.93
5.93848	0.937
5.9793	0.934
6.02012	0.92
6.06094	0.934
6.10175	0.932
6.14257	0.928
6.18339	0.918
6.22421	0.895
6.26502	0.82
6.30584	0.588
6.34666	0.688
6.38748	0.796
6.42829	0.893
6.46911	0.937
6.50993	0.925
6.55075	0.918
6.59156	0.891
6.63238	0.864
6.6732	0.785
6.71402	0.673
6.75483	0.402
6.79565	0.211
6.83647	0.109
6.87729	0.04
6.9181	0.081
6.95892	0.311
6.99974	0.505
7.04056	0.668
7.08137	0.353
7.12219	0.323
7.16301	0.365
7.20383	0.362
7.24464	0.358
7.28546	0.575
7.32628	0.678
7.3671	0.749
7.40791	0.785
7.44873	0.778
7.48955	0.813
7.53037	0.766
7.57118	0.524
7.612	0.302
7.65282	0.59
7.69364	0.575
7.73445	0.235
7.77527	0.077
7.81609	0.384
7.85691	0.536
7.89773	0.62
7.93854	0.7
7.97936	0.668
8.02018	0.683
8.061	0.656
8.10181	0.509
8.14263	0.302
8.18345	0.228
8.22427	0.233
8.26508	0.434
8.3059	0.538
8.34672	0.338
8.38754	0.072
8.42835	0.291
8.46917	0.395
8.50999	0.529
8.55081	0.653
8.59162	0.712
8.63244	0.759
8.67326	0.729
8.71408	0.362
8.75489	0.135
8.79571	0.189
8.83653	0.341
8.87735	0.566
8.91816	0.707
8.95898	0.773
8.9998	0.793
9.04062	0.813
9.08143	0.815
9.12225	0.817
9.16307	0.818
9.20389	0.82
9.2447	0.824
9.28552	0.825
9.32634	0.844
9.36716	0.854
9.40797	0.869
9.44879	0.876
9.48961	0.883
9.53043	0.874
9.57124	0.861
9.61206	0.856
9.65288	0.861
9.6937	0.868
9.73451	0.881
9.77533	0.896
9.81615	0.908
9.85697	0.915
9.89778	0.922
9.9386	0.934
9.97942	0.942
10.0202	0.956
10.0611	0.954
10.1019	0.939
10.1427	0.922
10.1835	0.91
10.2243	0.9
10.2651	0.879
10.306	0.803
10.3468	0.6
10.3876	0.23
10.4284	0.228
10.4692	0.338
10.51	0.465
10.5509	0.59
10.5917	0.702
10.6325	0.788
10.6733	0.817
10.7141	0.768
10.755	0.548
10.7958	0.468
10.8366	0.549
10.8774	0.747
10.9182	0.824
10.959	0.89
10.9999	0.918
11.0407	0.934
11.0815	0.918
11.1223	0.91
11.1631	0.788
11.2039	0.343
11.2448	0.236
11.2856	0.563
11.3264	0.722
11.3672	0.808
11.408	0.844
11.4489	0.869
11.4897	0.802
11.5305	0.595
11.5713	0.487
11.6121	0.681
11.6529	0.656
11.6938	0.248
11.7346	0.463
11.7754	0.768
11.8162	0.856
11.857	0.886
11.8978	0.905
11.9387	0.918
11.9795	0.927
12.0203	0.925
12.0611	0.927
12.1019	0.923
12.1427	0.923
12.1836	0.923
12.2244	0.922
12.2652	0.92
12.306	0.918
12.3468	0.917
12.3877	0.913
12.4285	0.912
12.4693	0.915
12.5101	0.913
12.5509	0.912
12.5917	0.91
12.6326	0.908
12.6734	0.901
12.7142	0.9
12.755	0.901
12.7958	0.903
12.8366	0.9
12.8775	0.893
12.9183	0.883
12.9591	0.871
12.9999	0.808
13.0407	0.832
13.0816	0.869
13.1224	0.881
13.1632	0.881
13.204	0.866
13.2448	0.822
13.2856	0.7
13.3265	0.5
13.3673	0.461
13.4081	0.252
13.4489	0.152
13.4897	0.262
13.5305	0.426
13.5714	0.549
13.6122	0.615
13.653	0.648
13.6938	0.666
13.7346	0.675
13.7755	0.685
13.8163	0.698
13.8571	0.719
13.8979	0.714
13.9387	0.681
13.9795	0.727
14.0204	0.802
14.0612	0.84
14.102	0.876
14.1428	0.89
14.1836	0.901
14.2244	0.906
14.2653	0.91
14.3061	0.915
14.3469	0.913
14.3877	0.918
14.4285	0.912
14.4693	0.913
14.5102	0.901
14.551	0.898
14.5918	0.888
14.6326	0.884
14.6734	0.874
14.7143	0.862
14.7551	0.856
14.7959	0.842
14.8367	0.824
14.8775	0.798
14.9183	0.761
14.9592	0.719
15	0.676
15.0408	0.646
15.0816	0.698
15.1224	0.752
15.1632	0.769
15.2041	0.749
15.2449	0.729
15.2857	0.719
15.3265	0.71
15.3673	0.698
15.4082	0.697
15.449	0.676
15.4898	0.664
15.5306	0.654
15.5714	0.642
15.6122	0.627
15.6531	0.609
15.6939	0.597
15.7347	0.573
15.7755	0.554
15.8163	0.524
15.8571	0.483
15.898	0.45
15.9388	0.426
15.9796	0.423
