Infrared Spectrum: p-TOLUENESULFONAMIDE
Formula: C7 H9 N O2 S
CAS: 70-55-3
State: SOLID (SPLIT MULL)
Class: COBLENTZ III
Instrument: DOW KBr FOREPRISM-GRATING
Instrument parameters: BLAZED AT 3.5, 12.0, 20.0 MICRON AND CHANGED AT 5.0, 7.5, 14.9 MICRON
Sampling: TRANSMISSION
Resolution: 2
Origin: DOW CHEMICAL COMPANY
1/CM	TRANSMITTANCE
3800	0.4398
3791	0.4431
3782	0.446
3773	0.4489
3764	0.4527
3755	0.4565
3746	0.462
3737	0.4678
3728	0.472
3719	0.4771
3710	0.4781
3701	0.4769
3692	0.4765
3683	0.4777
3674	0.4822
3665	0.4901
3656	0.4934
3647	0.4896
3638	0.4925
3629	0.4973
3620	0.5006
3611	0.5021
3602	0.5052
3593	0.509
3584	0.513
3575	0.5174
3566	0.5221
3557	0.5276
3548	0.5324
3539	0.5356
3530	0.5372
3521	0.5435
3512	0.5486
3503	0.5539
3494	0.5592
3485	0.565
3476	0.5712
3467	0.5794
3458	0.5869
3449	0.593
3440	0.5973
3431	0.5993
3422	0.591
3413	0.5506
3404	0.4983
3395	0.4429
3386	0.2795
3377	0.1198
3368	0.104
3359	0.1386
3350	0.1541
3341	0.1619
3332	0.1168
3323	0.0826
3314	0.1253
3305	0.1702
3296	0.21
3287	0.226
3278	0.2244
3269	0.1542
3260	0.0437
3251	0.0209
3242	0.0285
3233	0.0294
3224	0.0609
3215	0.123
3206	0.1662
3197	0.1985
3188	0.2258
3179	0.2473
3170	0.2693
3161	0.29
3152	0.3046
3143	0.3224
3134	0.32
3125	0.301
3116	0.2799
3107	0.2897
3098	0.2913
3089	0.2962
3080	0.3653
3071	0.3921
3062	0.4034
3053	0.4062
3044	0.4156
3035	0.4298
3026	0.4308
3017	0.4481
3008	0.4569
2999	0.4654
2990	0.4736
2981	0.4758
2972	0.4777
2963	0.4802
2954	0.4837
2945	0.4874
2936	0.4899
2927	0.4829
2918	0.4712
2909	0.4772
2900	0.5007
2891	0.5165
2882	0.5243
2873	0.5297
2864	0.5327
2855	0.5335
2846	0.5359
2837	0.5526
2828	0.5671
2819	0.5747
2810	0.5791
2801	0.5834
2792	0.5867
2783	0.59
2774	0.5939
2765	0.598
2756	0.6026
2747	0.6067
2738	0.6065
2729	0.6087
2720	0.6112
2711	0.6138
2702	0.616
2693	0.618
2684	0.6208
2675	0.6246
2666	0.6255
2657	0.6249
2648	0.6241
2639	0.622
2630	0.6212
2621	0.6251
2612	0.6282
2603	0.6243
2594	0.6219
2585	0.6224
2576	0.6286
2567	0.6378
2558	0.6484
2549	0.6554
2540	0.6604
2531	0.6648
2522	0.6686
2513	0.6718
2504	0.6755
2495	0.6761
2486	0.674
2477	0.6707
2468	0.6672
2459	0.67
2450	0.6747
2441	0.6774
2432	0.68
2423	0.6818
2414	0.6832
2405	0.6856
2396	0.6883
2387	0.6912
2378	0.6957
2369	0.71
2360	0.718
2351	0.7194
2342	0.7128
2333	0.7164
2324	0.7142
2315	0.7047
2306	0.7008
2297	0.7033
2288	0.7065
2279	0.7101
2270	0.7141
2261	0.7183
2252	0.7225
2243	0.7265
2234	0.7324
2225	0.7394
2216	0.7475
2207	0.7531
2198	0.7558
2189	0.7585
2180	0.7634
2171	0.7683
2162	0.7733
2153	0.7782
2144	0.7833
2135	0.7882
2126	0.7918
2117	0.795
2108	0.7991
2099	0.8035
2090	0.8082
2081	0.8132
2072	0.8183
2063	0.8225
2054	0.8256
2045	0.8254
2036	0.8268
2027	0.8294
2018	0.8336
2009	0.839
2000	0.8475
1991	0.8498
1982	0.8467
1973	0.8514
1964	0.8578
1955	0.8568
1946	0.8465
1937	0.8577
1928	0.867
1919	0.8412
1910	0.8515
1901	0.8661
1892	0.8732
1883	0.8788
1874	0.8807
1865	0.8847
1856	0.88
1847	0.8968
1838	0.8971
1829	0.8907
1820	0.886
1811	0.8932
1802	0.8814
1793	0.901
1784	0.9067
1775	0.913
1766	0.9161
1757	0.9135
1748	0.9284
1739	0.927
1730	0.9295
1721	0.9318
1712	0.9415
1703	0.9452
1694	0.9557
1685	0.9478
1676	0.9475
1667	0.9507
1658	0.9317
1649	0.9114
1640	0.9058
1631	0.8959
1622	0.8918
1613	0.8665
1604	0.7797
1595	0.6077
1586	0.7101
1577	0.594
1568	0.5259
1559	0.4059
1550	0.6472
1541	0.7928
1532	0.7571
1523	0.7526
1514	0.8121
1505	0.8559
1496	0.7457
1487	0.7747
1478	0.7418
1469	0.6172
1460	0.6876
1451	0.6644
1442	0.6985
1433	0.7356
1424	0.736
1415	0.7453
1406	0.7293
1397	0.7408
1388	0.7617
1379	0.7668
1370	0.8111
1361	0.8122
1352	0.7472
1343	0.5601
1334	0.1901
1325	0.0651
1316	0.0363
1307	0.1542
1298	0.328
1289	0.3184
1280	0.5362
1271	0.7284
1262	0.7743
1253	0.7921
1244	0.8056
1235	0.8164
1226	0.8036
1217	0.8007
1208	0.7784
1199	0.7304
1190	0.7411
1181	0.5002
1172	0.1477
1163	0.1983
1154	0.0174
1145	0.0534
1136	0.4008
1127	0.5121
1118	0.5925
1109	0.6343
1100	0.4408
1091	0.3306
1082	0.5382
1073	0.5265
1064	0.5209
1055	0.6728
1046	0.6681
1037	0.7207
1028	0.7841
1019	0.8174
1010	0.8132
1001	0.8594
992	0.8637
983	0.8728
974	0.8775
965	0.8517
956	0.8398
947	0.8474
938	0.8228
929	0.6983
920	0.4627
911	0.393
902	0.3625
893	0.6247
884	0.6939
875	0.7415
866	0.7655
857	0.7921
848	0.7956
839	0.7761
830	0.7834
821	0.76
812	0.5008
803	0.4658
794	0.6936
785	0.7243
776	0.7289
767	0.2545
758	0.4798
749	0.6241
740	0.5793
731	0.5232
722	0.4455
713	0.4044
704	0.2869
695	0.2919
686	0.3423
677	0.3858
668	0.3479
659	0.6919
650	0.7371
641	0.7058
632	0.6604
623	0.6818
614	0.6812
605	0.5918
596	0.2271
587	0.6611
578	0.6995
569	0.6387
560	0.1932
551	0.4586
542	0.3518
533	0.2358
524	0.61
515	0.6789
506	0.6822
497	0.5457
488	0.6621
479	0.6856
470	0.6694
461	0.6575
452	0.6565
