Infrared Spectrum: p-Toluenesulfonamide
Formula: C7 H9 N O2 S
CAS: 70-55-3
State: SOLID (SPLIT MULL), FLUOROLUBE FOR 3800-1330 CM^-^1, NUJOL FOR 1330-400 CM^-^1
Class: COBLENTZ III
Instrument: DOW FOREPRISM-GRATING
Instrument parameters: BLAZED AT 3.5, 12.0, 20.0 MICRON AND CHANGED AT 5.0, 7.5, 14.9 MICRON
Sampling: TRANSMISSION
Resolution: 2
Origin: DOW CHEMICAL COMPANY
1/CM	TRANSMITTANCE
392	0.7276
401	0.7274
410	0.727
419	0.7266
428	0.7259
437	0.7236
446	0.7163
455	0.7123
464	0.7154
473	0.728
482	0.7202
491	0.6535
500	0.7174
509	0.7211
518	0.6781
527	0.5818
536	0.3872
545	0.5779
554	0.4646
563	0.4036
572	0.713
581	0.7
590	0.576
599	0.3053
608	0.713
617	0.7226
626	0.7293
635	0.7429
644	0.7418
653	0.7194
662	0.5682
671	0.4584
680	0.4745
689	0.4097
698	0.4604
707	0.4479
716	0.5273
725	0.559
734	0.6076
743	0.6671
752	0.6834
761	0.5211
770	0.4402
779	0.7618
788	0.7696
797	0.7376
806	0.6752
815	0.6945
824	0.7851
833	0.7923
842	0.795
851	0.7938
860	0.7877
869	0.7575
878	0.7572
887	0.7291
896	0.642
905	0.4842
914	0.4989
923	0.5963
932	0.7745
941	0.8129
950	0.8058
959	0.8243
968	0.8271
977	0.8309
986	0.8258
995	0.8233
1004	0.8174
1013	0.7029
1022	0.8018
1031	0.7759
1040	0.7452
1049	0.7374
1058	0.7192
1067	0.5737
1076	0.6517
1085	0.518
1094	0.3887
1103	0.6609
1112	0.6952
1121	0.6291
1130	0.5536
1139	0.5073
1148	0.0764
1157	0.2038
1166	0.3247
1175	0.4518
1184	0.708
1193	0.7606
1202	0.7546
1211	0.7861
1220	0.7955
1229	0.7941
1238	0.7891
1247	0.7806
1256	0.77
1265	0.7562
1274	0.6957
1283	0.6107
1292	0.4757
1301	0.4881
1310	0.3114
1319	0.1634
1328	0.1216
1337	0.5263
1346	0.7436
1355	0.7708
1364	0.7734
1373	0.7693
1382	0.7838
1391	0.775
1400	0.7565
1409	0.7652
1418	0.7632
1427	0.7644
1436	0.7658
1445	0.75
1454	0.7376
1463	0.7456
1472	0.6964
1481	0.7748
1490	0.7694
1499	0.7868
1508	0.8156
1517	0.8135
1526	0.8053
1535	0.7926
1544	0.7666
1553	0.7095
1562	0.5801
1571	0.6056
1580	0.7212
1589	0.7198
1598	0.7091
1607	0.8126
1616	0.831
1625	0.8379
1634	0.8432
1643	0.8394
1652	0.8531
1661	0.8609
1670	0.8631
1679	0.8636
1688	0.8633
1697	0.8628
1706	0.8627
1715	0.8625
1724	0.8625
1733	0.8625
1742	0.8616
1751	0.862
1760	0.8651
1769	0.8634
1778	0.8614
1787	0.8587
1796	0.853
1805	0.8592
1814	0.8591
1823	0.8591
1832	0.8608
1841	0.8598
1850	0.8583
1859	0.8568
1868	0.8562
1877	0.8554
1886	0.8544
1895	0.8537
1904	0.8452
1913	0.839
1922	0.8546
1931	0.8519
1940	0.8491
1949	0.8515
1958	0.8512
1967	0.85
1976	0.8501
1985	0.8486
1994	0.858
2003	0.8625
2012	0.8624
2021	0.8615
2030	0.8604
2039	0.8593
2048	0.8582
2057	0.8577
2066	0.8574
2075	0.8569
2084	0.856
2093	0.8551
2102	0.8542
2111	0.853
2120	0.8518
2129	0.8504
2138	0.8487
2147	0.847
2156	0.8455
2165	0.8453
2174	0.8469
2183	0.8407
2192	0.834
2201	0.8313
2210	0.8288
2219	0.8251
2228	0.821
2237	0.8169
2246	0.8127
2255	0.8085
2264	0.8048
2273	0.8009
2282	0.7977
2291	0.7956
2300	0.7943
2309	0.7964
2318	0.7987
2327	0.8019
2336	0.8026
2345	0.8029
2354	0.8038
2363	0.8046
2372	0.8046
2381	0.8041
2390	0.8034
2399	0.8021
2408	0.801
2417	0.8001
2426	0.7993
2435	0.7984
2444	0.7979
2453	0.7975
2462	0.7974
2471	0.7972
2480	0.7973
2489	0.7979
2498	0.7985
2507	0.8002
2516	0.8015
2525	0.8006
2534	0.7969
2543	0.7928
2552	0.7884
2561	0.7823
2570	0.7765
2579	0.774
2588	0.7732
2597	0.7728
2606	0.7724
2615	0.7723
2624	0.7723
2633	0.7723
2642	0.7723
2651	0.7724
2660	0.7725
2669	0.7725
2678	0.7724
2687	0.7722
2696	0.772
2705	0.7718
2714	0.7719
2723	0.772
2732	0.7721
2741	0.772
2750	0.7712
2759	0.7703
2768	0.7695
2777	0.7684
2786	0.7673
2795	0.7662
2804	0.7635
2813	0.7602
2822	0.757
2831	0.7536
2840	0.7504
2849	0.747
2858	0.7446
2867	0.7422
2876	0.7399
2885	0.7375
2894	0.7345
2903	0.731
2912	0.7279
2921	0.7254
2930	0.7295
2939	0.7307
2948	0.7294
2957	0.7266
2966	0.7227
2975	0.7181
2984	0.7132
2993	0.7082
3002	0.7032
3011	0.6982
3020	0.693
3029	0.6874
3038	0.681
3047	0.6726
3056	0.661
3065	0.6454
3074	0.6274
3083	0.603
3092	0.5737
3101	0.5516
3110	0.5326
3119	0.5239
3128	0.5479
3137	0.5756
3146	0.5807
3155	0.5758
3164	0.566
3173	0.5551
3182	0.5421
3191	0.5248
3200	0.5002
3209	0.4657
3218	0.4186
3227	0.2964
3236	0.1689
3245	0.1665
3254	0.1688
3263	0.2077
3272	0.3566
3281	0.4358
3290	0.4346
3299	0.4163
3308	0.3874
3317	0.2944
3326	0.2489
3335	0.3411
3344	0.45
3353	0.4514
3362	0.3875
3371	0.3175
3380	0.339
3389	0.5113
3398	0.664
3407	0.726
3416	0.7457
3425	0.7521
3434	0.7541
3443	0.7532
3452	0.752
3461	0.7502
3470	0.7483
3479	0.7465
3488	0.7445
3497	0.7422
3506	0.7401
3515	0.7378
3524	0.7356
3533	0.7333
3542	0.7311
3551	0.7288
3560	0.7266
3569	0.7243
3578	0.7222
3587	0.7199
3596	0.7178
3605	0.7156
3614	0.7135
3623	0.7114
3632	0.7095
3641	0.7075
3650	0.7056
3659	0.7036
3668	0.7017
3677	0.6999
3686	0.6984
3695	0.6968
3704	0.6954
3713	0.6938
3722	0.6926
3731	0.6917
3740	0.6909
3749	0.6901
3758	0.6894
3767	0.6888
3776	0.6883
3785	0.6878
