Infrared Spectrum: ETHANONE, 1-[4-TRIFLUOROMETHYLPHENYL]-
Formula: C9 H7 F3 O
CAS: 709-63-7
State: SOLUTION (2% IN CCl4 FOR 3800-1333, 2% IN CS2 FOR 1333-400 CM^-^1)
Class: COBLENTZ III
Instrument: DOW KBr FOREPRISM-GRATING
Instrument parameters: BLAZED AT 3.5, 12.0, 20.0 MICRON, CHANGED AT 5.0, 7.5, 14.9 MICRON
Sampling: TRANSMISSION
Path length: 0.011, 0.011 CM
Resolution: 4
Origin: DOW CHEMICAL COMPANY
1/CM	TRANSMITTANCE
381.786	0.167
390.543	0.2
399.299	0.304
408.056	0.574
416.812	0.72
425.569	0.755
434.326	0.783
443.082	0.813
451.839	0.825
460.595	0.834
469.352	0.841
478.108	0.839
486.865	0.833
495.622	0.804
504.378	0.836
513.135	0.864
521.891	0.874
530.648	0.879
539.405	0.884
548.161	0.885
556.918	0.884
565.674	0.881
574.431	0.881
583.187	0.877
591.944	0.866
600.701	0.789
609.457	0.694
618.214	0.847
626.97	0.873
635.727	0.879
644.484	0.87
653.24	0.866
661.997	0.892
670.753	0.9
679.51	0.909
688.266	0.915
697.023	0.918
705.78	0.918
714.536	0.89
723.293	0.912
732.049	0.942
740.806	0.939
749.563	0.953
758.319	0.954
767.076	0.956
775.832	0.956
784.589	0.954
793.346	0.956
802.102	0.957
810.859	0.959
819.615	0.956
828.372	0.889
837.128	0.814
845.885	0.458
854.642	0.792
863.398	0.833
872.155	0.884
880.911	0.914
889.668	0.959
898.425	0.98
907.181	0.986
915.938	0.991
924.694	0.987
933.451	0.982
942.207	0.971
950.964	0.899
959.721	0.874
968.477	0.956
977.234	0.963
985.99	0.963
994.747	0.954
1003.5	0.937
1012.26	0.8139
1021.02	0.894
1029.77	0.923
1038.53	0.918
1047.29	0.907
1056.04	0.8299
1064.8	0.709
1073.56	0.757
1082.31	0.668
1091.07	0.84
1099.83	0.832
1108.58	0.5248
1117.34	0.735
1126.1	0.5379
1134.85	0.11
1143.61	0.4911
1152.37	0.687
1161.12	0.5749
1169.88	0.2269
1178.64	0.5561
1187.39	0.776
1196.15	0.849
1204.91	0.863
1213.66	0.847
1222.42	0.854
1231.17	0.807
1239.93	0.811
1248.69	0.743
1257.44	0.5208
1266.2	0.6601
1274.96	0.849
1283.71	0.871
1292.47	0.858
1301.23	0.809
1309.98	0.5641
1318.74	0.3937
1327.5	0.158
1336.25	0.6691
1345.01	0.821
1353.77	0.787
1362.52	0.731
1371.28	0.87
1380.04	0.905
1388.79	0.919
1397.55	0.901
1406.31	0.8369
1415.06	0.6942
1423.82	0.844
1432.58	0.843
1441.33	0.885
1450.09	0.905
1458.85	0.911
1467.6	0.914
1476.36	0.909
1485.12	0.889
1493.87	0.855
1502.63	0.804
1511.39	0.672
1520.14	0.688
1528.9	0.652
1537.66	0.563
1546.41	0.481
1555.17	0.488
1563.93	0.564
1572.68	0.627
1581.44	0.631
1590.19	0.678
1598.95	0.773
1607.71	0.851
1616.46	0.89
1625.22	0.912
1633.98	0.93
1642.73	0.941
1651.49	0.935
1660.25	0.918
1669	0.911
1677.76	0.893
1686.52	0.7779
1695.27	0.3057
1704.03	0.5672
1712.79	0.867
1721.54	0.911
1730.3	0.914
1739.06	0.919
1747.81	0.915
1756.57	0.93
1765.33	0.935
1774.08	0.938
1782.84	0.935
1791.6	0.938
1800.35	0.937
1809.11	0.935
1817.87	0.933
1826.62	0.937
1835.38	0.939
1844.14	0.937
1852.89	0.937
1861.65	0.938
1870.41	0.939
1879.16	0.945
1887.92	0.945
1896.68	0.945
1905.43	0.942
1914.19	0.937
1922.95	0.944
1931.7	0.941
1940.46	0.937
1949.21	0.948
1957.97	0.946
1966.73	0.945
1975.48	0.942
1984.24	0.941
1993	0.938
2001.75	0.939
2010.51	0.942
2019.27	0.944
2028.02	0.944
2036.78	0.944
2045.54	0.945
2054.29	0.946
2063.05	0.9481
2071.81	0.9492
2080.56	0.9504
2089.32	0.952
2098.08	0.952
2106.83	0.953
2115.59	0.953
2124.35	0.953
2133.1	0.953
2141.86	0.953
2150.62	0.953
2159.37	0.953
2168.13	0.953
2176.89	0.953
2185.64	0.953
2194.4	0.953
2203.16	0.952
2211.91	0.952
2220.67	0.952
2229.43	0.952
2238.18	0.95
2246.94	0.948
2255.7	0.9454
2264.45	0.9384
2273.21	0.9344
2281.97	0.931
2290.72	0.926
2299.48	0.923
2308.23	0.9254
2316.99	0.929
2325.75	0.931
2334.5	0.934
2343.26	0.9378
2352.02	0.944
2360.77	0.946
2369.53	0.948
2378.29	0.95
2387.04	0.952
2395.8	0.953
2404.56	0.954
2413.31	0.956
2422.07	0.957
2430.83	0.957
2439.58	0.957
2448.34	0.957
2457.1	0.957
2465.85	0.957
2474.61	0.957
2483.37	0.957
2492.12	0.957
2500.88	0.957
2509.64	0.956
2518.39	0.9562
2527.15	0.957
2535.91	0.957
2544.66	0.957
2553.42	0.957
2562.18	0.957
2570.93	0.9577
2579.69	0.956
2588.45	0.9566
2597.2	0.954
2605.96	0.957
2614.72	0.957
2623.47	0.957
2632.23	0.956
2640.99	0.956
2649.74	0.957
2658.5	0.957
2667.25	0.957
2676.01	0.959
2684.77	0.959
2693.52	0.96
2702.28	0.963
2711.04	0.963
2719.79	0.961
2728.55	0.961
2737.31	0.961
2746.06	0.96
2754.82	0.961
2763.58	0.961
2772.33	0.961
2781.09	0.9638
2789.85	0.964
2798.6	0.965
2807.36	0.964
2816.12	0.9631
2824.87	0.9639
2833.63	0.964
2842.39	0.9669
2851.14	0.965
2859.9	0.965
2868.66	0.961
2877.41	0.961
2886.17	0.965
2894.93	0.965
2903.68	0.965
2912.44	0.965
2921.2	0.96
2929.95	0.959
2938.71	0.959
2947.47	0.959
2956.22	0.9585
2964.98	0.956
2973.74	0.9575
2982.49	0.9616
2991.25	0.964
3000.01	0.9597
3008.76	0.9524
3017.52	0.9597
3026.27	0.968
3035.03	0.969
3043.79	0.969
3052.54	0.9645
3061.3	0.963
3070.06	0.9635
3078.81	0.967
3087.57	0.9715
3096.33	0.974
3105.08	0.976
3113.84	0.9786
3122.6	0.979
3131.35	0.9794
3140.11	0.979
3148.87	0.98
3157.62	0.98
3166.38	0.9837
3175.14	0.984
3183.89	0.986
3192.65	0.987
3201.41	0.984
3210.16	0.984
3218.92	0.987
3227.68	0.986
3236.43	0.987
3245.19	0.989
3253.95	0.989
3262.7	0.9891
3271.46	0.99
3280.22	0.991
3288.97	0.99
3297.73	0.991
3306.49	0.993
3315.24	0.994
3324	0.993
3332.76	0.993
3341.51	0.991
3350.27	0.991
3359.03	0.99
3367.78	0.987
3376.54	0.982
3385.29	0.987
3394.05	0.994
3402.81	0.998
3411.56	0.998
3420.32	0.997
3429.08	0.997
3437.83	0.9946
3446.59	0.993
3455.35	0.9918
3464.1	0.991
3472.86	0.991
3481.62	0.99
3490.37	0.9895
3499.13	0.99
3507.89	0.987
3516.64	0.9865
3525.4	0.9864
3534.16	0.9848
3542.91	0.984
3551.67	0.986
3560.43	0.986
3569.18	0.986
3577.94	0.984
3586.7	0.9867
3595.45	0.987
3604.21	0.986
3612.97	0.986
3621.72	0.984
3630.48	0.984
3639.24	0.984
3647.99	0.983
3656.75	0.983
3665.51	0.982
3674.26	0.98
3683.02	0.98
3691.78	0.982
3700.53	0.986
3709.29	0.983
3718.05	0.984
3726.8	0.982
3735.56	0.982
3744.31	0.98
3753.07	0.98
3761.83	0.98
3770.58	0.98
3779.34	0.98
3788.1	0.98
3796.85	0.982
