Infrared Spectrum: 1-Butanol
Formula: C H3 C H2 C H2 C H2 O H
CAS: 71-36-3
State: gas
Melting point: -89.53 C
Boiling point: 117.25 C
Class: IUPAC A
Instrument: IFS66V (Bruker)
Instrument parameters: KBr Beam splitter; MCT Detector; Multipass cell
Sampling: 1 L/min Flow
Resolution: 0.9640
Temperature: 23 C
Pressure: 101.3 kPa
Origin: NIST, Anayltical Chemistry Division, 301-975-3108
cm-1	(micromol/mol)-1m-1 (base 10)
575.169	2.12582e-06
583.847	3.60737e-06
592.525	5.15882e-06
601.203	3.9688e-06
609.882	3.35971e-06
618.56	4.09278e-06
627.238	5.29696e-06
635.916	3.77345e-06
644.594	3.461e-06
653.272	3.34017e-06
661.951	4.10294e-06
670.629	3.46488e-06
679.307	3.00107e-06
687.985	4.00843e-06
696.663	3.65786e-06
705.341	3.38558e-06
714.019	3.88964e-06
722.698	5.2212e-06
731.376	7.91977e-06
740.054	1.07885e-05
748.732	9.19894e-06
757.41	7.18973e-06
766.088	5.23468e-06
774.767	4.36267e-06
783.445	5.01225e-06
792.123	5.7437e-06
800.801	6.32905e-06
809.479	7.81505e-06
818.157	8.84151e-06
826.835	1.29808e-05
835.514	2.03558e-05
844.192	2.38069e-05
852.87	2.53766e-05
861.548	1.85507e-05
870.226	1.23473e-05
878.904	1.02475e-05
887.583	1.02586e-05
896.261	1.29176e-05
904.939	1.41279e-05
913.617	1.42021e-05
922.295	1.7688e-05
930.973	2.7915e-05
939.651	4.30636e-05
948.33	5.30296e-05
957.008	5.43005e-05
965.686	4.67434e-05
974.364	3.99861e-05
983.042	4.55019e-05
991.72	5.03514e-05
1000.4	6.0853e-05
1009.08	7.27357e-05
1017.75	9.74859e-05
1026.43	0.000128653
1035.11	0.00017664
1043.79	0.000201815
1052.47	0.000208142
1061.15	0.000204611
1069.82	0.000221101
1078.5	0.000198751
1087.18	0.000134545
1095.86	8.55065e-05
1104.54	5.69265e-05
1113.21	4.09652e-05
1121.89	3.10204e-05
1130.57	2.39476e-05
1139.25	1.92825e-05
1147.93	1.71892e-05
1156.61	1.70535e-05
1165.28	1.86226e-05
1173.96	2.21571e-05
1182.64	2.74172e-05
1191.32	3.51705e-05
1200	4.22699e-05
1208.67	4.86864e-05
1217.35	4.88194e-05
1226.03	4.35301e-05
1234.71	3.62222e-05
1243.39	3.26211e-05
1252.07	3.26387e-05
1260.74	3.49095e-05
1269.42	3.71122e-05
1278.1	3.85922e-05
1286.78	3.65271e-05
1295.46	3.2406e-05
1304.13	2.72744e-05
1312.81	2.51335e-05
1321.49	2.48192e-05
1330.17	2.85659e-05
1338.85	3.32263e-05
1347.52	3.4237e-05
1356.2	3.41985e-05
1364.88	3.79277e-05
1373.56	5.87895e-05
1382.24	7.82464e-05
1390.92	9.14479e-05
1399.59	6.77678e-05
1408.27	4.09274e-05
1416.95	2.72714e-05
1425.63	2.42049e-05
1434.31	2.78975e-05
1442.98	3.75961e-05
1451.66	4.95568e-05
1460.34	5.99717e-05
1469.02	6.13742e-05
1477.7	5.73172e-05
1486.38	4.13288e-05
1495.05	2.45033e-05
1503.73	1.23754e-05
1512.41	6.95619e-06
1521.09	5.6789e-06
1529.77	3.61819e-06
1538.44	4.14897e-06
1547.12	3.21982e-06
1555.8	2.93347e-06
1564.48	2.75809e-06
1573.16	2.62979e-06
1581.83	2.2998e-06
1590.51	2.25055e-06
1599.19	2.13562e-06
1607.87	2.13654e-06
1616.55	3.43845e-06
1625.23	1.91759e-06
1633.9	1.53877e-06
1642.58	1.83672e-06
1651.26	1.8896e-06
1659.94	1.72927e-06
1668.62	1.88992e-06
1677.29	1.6085e-06
1685.97	1.72292e-06
1694.65	1.80735e-06
1703.33	1.61821e-06
1712.01	1.5452e-06
1720.69	1.40409e-06
1729.36	1.39849e-06
1738.04	1.48729e-06
1746.72	1.63105e-06
1755.4	1.43917e-06
1764.08	1.33928e-06
1772.75	2.15434e-06
1781.43	1.36577e-06
1790.11	1.57504e-06
1798.79	1.5938e-06
1807.47	1.50124e-06
1816.15	1.1985e-06
1824.82	1.33044e-06
1833.5	1.09716e-06
1842.18	1.22469e-06
1850.86	1.27275e-06
1859.54	1.42883e-06
1868.21	1.62975e-06
1876.89	1.34611e-06
1885.57	1.20036e-06
1894.25	1.37565e-06
1902.93	1.46961e-06
1911.6	1.53076e-06
1920.28	1.53672e-06
1928.96	1.62631e-06
1937.64	1.33579e-06
1946.32	1.33871e-06
1955	1.4848e-06
1963.67	1.3376e-06
1972.35	1.63607e-06
1981.03	1.76265e-06
1989.71	1.73354e-06
1998.39	1.5873e-06
2007.06	1.89026e-06
2015.74	2.27493e-06
2024.42	2.99265e-06
2033.1	3.45717e-06
2041.78	3.4412e-06
2050.46	2.73066e-06
2059.13	2.16122e-06
2067.81	1.7302e-06
2076.49	1.56465e-06
2085.17	1.74302e-06
2093.85	1.6167e-06
2102.52	1.45887e-06
2111.2	1.19792e-06
2119.88	9.56953e-07
2128.56	8.48729e-07
2137.24	8.72956e-07
2145.91	9.91829e-07
2154.59	1.14802e-06
2163.27	1.26412e-06
2171.95	1.5444e-06
2180.63	1.62275e-06
2189.31	1.75293e-06
2197.98	1.74716e-06
2206.66	1.74751e-06
2215.34	1.69389e-06
2224.02	1.45823e-06
2232.7	1.60176e-06
2241.37	1.64118e-06
2250.05	1.42643e-06
2258.73	1.63343e-06
2267.41	1.61762e-06
2276.09	2.16391e-06
2284.77	2.1841e-06
2293.44	2.10062e-06
2302.12	2.17111e-06
2310.8	2.43897e-06
2319.48	2.72679e-06
2328.16	2.92864e-06
2336.83	2.72543e-06
2345.51	2.86051e-06
2354.19	2.57414e-06
2362.87	2.88037e-06
2371.55	2.60829e-06
2380.23	2.72779e-06
2388.9	2.86747e-06
2397.58	2.82646e-06
2406.26	3.38637e-06
2414.94	3.52777e-06
2423.62	3.50774e-06
2432.29	3.28438e-06
2440.97	3.03546e-06
2449.65	2.57728e-06
2458.33	2.10447e-06
2467.01	2.1965e-06
2475.68	2.09118e-06
2484.36	1.75336e-06
2493.04	2.15127e-06
2501.72	1.68481e-06
2510.4	1.99748e-06
2519.08	1.89732e-06
2527.75	1.97874e-06
2536.43	2.15875e-06
2545.11	2.27727e-06
2553.79	2.332e-06
2562.47	2.4023e-06
2571.14	2.74051e-06
2579.82	2.9004e-06
2588.5	3.45446e-06
2597.18	3.73439e-06
2605.86	3.84912e-06
2614.54	4.2007e-06
2623.21	4.38579e-06
2631.89	4.71617e-06
2640.57	5.12446e-06
2649.25	5.85064e-06
2657.93	6.27939e-06
2666.6	7.21758e-06
2675.28	7.62078e-06
2683.96	8.35692e-06
2692.64	8.53148e-06
2701.32	8.97608e-06
2709.99	9.37461e-06
2718.67	1.04067e-05
2727.35	1.21208e-05
2736.03	1.45262e-05
2744.71	1.65559e-05
2753.39	1.77122e-05
2762.06	1.79065e-05
2770.74	1.87296e-05
2779.42	2.00623e-05
2788.1	2.19181e-05
2796.78	2.28515e-05
2805.45	2.35894e-05
2814.13	2.51399e-05
2822.81	2.98157e-05
2831.49	4.01174e-05
2840.17	6.01335e-05
2848.85	9.37626e-05
2857.52	0.000137023
2866.2	0.000196377
2874.88	0.000280865
2883.56	0.000330193
2892.24	0.000336165
2900.91	0.000282371
2909.59	0.000279324
2918.27	0.000315039
2926.95	0.000369115
2935.63	0.000432943
2944.31	0.00046426
2952.98	0.000452217
2961.66	0.000471883
2970.34	0.000487468
2979.02	0.000400744
2987.7	0.000210242
2996.37	8.3232e-05
3005.05	3.36706e-05
3013.73	1.62999e-05
3022.41	1.13892e-05
3031.09	9.96527e-06
3039.76	9.06552e-06
3048.44	9.00286e-06
3057.12	8.13572e-06
3065.8	7.30057e-06
3074.48	5.98999e-06
3083.16	5.11398e-06
3091.83	4.72213e-06
3100.51	4.81707e-06
3109.19	4.33384e-06
3117.87	4.11399e-06
3126.55	3.9794e-06
3135.22	4.10594e-06
3143.9	3.88444e-06
3152.58	3.8641e-06
3161.26	3.99442e-06
3169.94	4.12557e-06
3178.62	3.72458e-06
3187.29	4.19234e-06
3195.97	4.46425e-06
3204.65	4.37999e-06
3213.33	4.01596e-06
3222.01	2.90823e-06
3230.68	2.29607e-06
3239.36	1.52076e-06
3248.04	1.64796e-06
3256.72	1.62252e-06
3265.4	1.49079e-06
3274.07	1.18112e-06
3282.75	9.84221e-07
3291.43	1.05785e-06
3300.11	1.42975e-06
3308.79	1.47575e-06
3317.47	1.91493e-06
3326.14	1.47982e-06
3334.82	1.52873e-06
3343.5	1.2051e-06
3352.18	1.27412e-06
3360.86	1.33533e-06
3369.53	1.48512e-06
3378.21	1.37265e-06
3386.89	1.29841e-06
3395.57	1.52787e-06
3404.25	1.65788e-06
3412.93	1.88699e-06
3421.6	2.49843e-06
3430.28	2.89201e-06
3438.96	2.49688e-06
3447.64	2.5632e-06
3456.32	2.37767e-06
3464.99	3.03211e-06
3473.67	3.35858e-06
3482.35	3.37437e-06
3491.03	2.86433e-06
3499.71	2.61675e-06
3508.39	2.39777e-06
3517.06	2.36904e-06
3525.74	1.86985e-06
3534.42	2.51159e-06
3543.1	2.19052e-06
3551.78	2.10019e-06
3560.45	2.04569e-06
3569.13	2.17441e-06
3577.81	2.18039e-06
3586.49	2.12497e-06
3595.17	2.37911e-06
3603.84	2.71929e-06
3612.52	3.72453e-06
3621.2	5.03791e-06
3629.88	8.44342e-06
3638.56	1.45158e-05
3647.24	2.99841e-05
3655.91	4.96698e-05
3664.59	6.81941e-05
3673.27	7.79868e-05
3681.95	6.32813e-05
3690.63	3.53127e-05
3699.3	1.39459e-05
3707.98	6.68957e-06
3716.66	4.60866e-06
3725.34	4.06062e-06
3734.02	3.55423e-06
3742.7	3.58301e-06
3751.37	3.45026e-06
3760.05	3.42873e-06
3768.73	3.09112e-06
3777.41	3.11695e-06
3786.09	3.19544e-06
3794.76	3.33598e-06
3803.44	3.65101e-06
3812.12	3.52285e-06
3820.8	4.4522e-06
3829.48	4.06401e-06
3838.16	5.48802e-06
3846.83	4.75322e-06
3855.51	5.24853e-06
3864.19	5.35788e-06
3872.87	4.96558e-06
3881.55	4.32918e-06
3890.22	3.65472e-06
3898.9	3.30514e-06
3907.58	3.01358e-06
3916.26	2.44051e-06
3924.94	2.41065e-06
3933.61	2.44279e-06
3942.29	2.4384e-06
3950.97	1.89203e-06
3959.65	2.14259e-06
3968.33	2.32236e-06
