Infrared Spectrum: 1-Butanol
Formula: C H3 C H2 C H2 C H2 O H
CAS: 71-36-3
State: gas
Melting point: -89.53 C
Boiling point: 117.25 C
Class: IUPAC A
Instrument: IFS66V (Bruker)
Instrument parameters: KBr Beam splitter; MCT Detector; Multipass cell
Sampling: 1 L/min Flow
Resolution: 0.2410
Temperature: 23 C
Pressure: 101.3 kPa
Origin: NIST, Anayltical Chemistry Division, 301-975-3108
cm-1	(micromol/mol)-1m-1 (base 10)
575.048	-3.76075e-07
583.606	2.09983e-07
592.163	3.95935e-06
600.721	7.61466e-06
609.279	3.6078e-06
617.836	8.19388e-07
626.394	3.34239e-06
634.951	4.32902e-06
643.509	1.2188e-06
652.067	6.22101e-06
660.624	4.92867e-06
669.182	2.37863e-06
677.74	2.33303e-06
686.297	5.27045e-06
694.855	2.92097e-06
703.412	2.82753e-06
711.97	5.84331e-06
720.528	5.79936e-06
729.085	7.36047e-06
737.643	1.0468e-05
746.201	8.58778e-06
754.758	9.52109e-06
763.316	4.98786e-06
771.873	3.47933e-06
780.431	3.88417e-06
788.989	4.23723e-06
797.546	6.30553e-06
806.104	8.07144e-06
814.662	9.81218e-06
823.219	1.20014e-05
831.777	1.68398e-05
840.334	2.508e-05
848.892	2.51285e-05
857.45	2.23936e-05
866.007	1.43829e-05
874.565	1.00027e-05
883.123	1.04933e-05
891.68	1.17092e-05
900.238	1.33436e-05
908.795	1.50938e-05
917.353	1.43633e-05
925.911	2.03233e-05
934.468	3.3472e-05
943.026	4.78338e-05
951.584	5.48414e-05
960.141	5.22172e-05
968.699	4.34019e-05
977.256	4.00509e-05
985.814	4.65742e-05
994.372	5.59362e-05
1002.93	6.18868e-05
1011.49	7.849e-05
1020.04	0.000105771
1028.6	0.000136857
1037.16	0.00018925
1045.72	0.000204056
1054.28	0.000215413
1062.83	0.000203365
1071.39	0.000220322
1079.95	0.000190901
1088.51	0.00012429
1097.06	8.01021e-05
1105.62	5.43372e-05
1114.18	3.92296e-05
1122.74	3.10082e-05
1131.29	2.3569e-05
1139.85	1.93391e-05
1148.41	1.82556e-05
1156.97	1.67157e-05
1165.52	1.94524e-05
1174.08	2.19998e-05
1182.64	2.70555e-05
1191.2	3.52164e-05
1199.75	4.22149e-05
1208.31	4.90031e-05
1216.87	4.86801e-05
1225.43	4.41677e-05
1233.99	3.69611e-05
1242.54	3.28523e-05
1251.1	3.22337e-05
1259.66	3.51874e-05
1268.22	3.70764e-05
1276.77	3.91511e-05
1285.33	3.68653e-05
1293.89	3.33316e-05
1302.45	2.79403e-05
1311	2.56588e-05
1319.56	2.45158e-05
1328.12	2.65499e-05
1336.68	3.25139e-05
1345.23	3.42035e-05
1353.79	3.45244e-05
1362.35	3.55176e-05
1370.91	5.01146e-05
1379.46	7.50724e-05
1388.02	8.73286e-05
1396.58	7.50327e-05
1405.14	4.97678e-05
1413.7	3.08331e-05
1422.25	2.36482e-05
1430.81	2.59675e-05
1439.37	3.26226e-05
1447.93	4.60615e-05
1456.48	5.70011e-05
1465.04	6.71014e-05
1473.6	6.138e-05
1482.16	4.8926e-05
1490.71	3.40189e-05
1499.27	1.75647e-05
1507.83	9.30248e-06
1516.39	5.54237e-06
1524.94	4.54616e-06
1533.5	4.1878e-06
1542.06	5.08981e-06
1550.62	2.9853e-06
1559.18	2.94075e-06
1567.73	2.59714e-06
1576.29	5.22905e-06
1584.85	2.97522e-06
1593.41	2.14985e-06
1601.96	2.12992e-06
1610.52	2.27874e-06
1619.08	1.99919e-06
1627.64	2.18387e-06
1636.19	1.67689e-06
1644.75	1.26431e-06
1653.31	7.56429e-06
1661.87	1.44784e-06
1670.42	1.84573e-06
1678.98	1.96623e-06
1687.54	1.50302e-06
1696.1	3.73518e-06
1704.65	1.8701e-06
1713.21	2.02413e-06
1721.77	1.82562e-06
1730.33	1.06883e-06
1738.89	1.63097e-06
1747.44	1.67903e-06
1756	1.39234e-06
1764.56	1.37711e-06
1773.12	1.45553e-06
1781.67	1.31677e-06
1790.23	1.03976e-06
1798.79	1.74462e-06
1807.35	1.38436e-06
1815.9	1.06676e-06
1824.46	4.61955e-07
1833.02	1.33526e-06
1841.58	9.96881e-07
1850.13	1.20782e-06
1858.69	1.29811e-06
1867.25	1.52674e-06
1875.81	1.10093e-06
1884.36	1.58169e-06
1892.92	1.45515e-06
1901.48	8.71533e-07
1910.04	1.54089e-06
1918.6	1.62989e-06
1927.15	1.75016e-06
1935.71	1.82951e-06
1944.27	1.68639e-06
1952.83	8.20247e-07
1961.38	1.59393e-06
1969.94	1.5397e-06
1978.5	2.12847e-06
1987.06	1.60814e-06
1995.61	1.80203e-06
2004.17	1.98278e-06
2012.73	2.06493e-06
2021.29	2.75233e-06
2029.84	3.33657e-06
2038.4	3.20691e-06
2046.96	3.29186e-06
2055.52	2.08684e-06
2064.08	1.74251e-06
2072.63	1.39038e-06
2081.19	1.46721e-06
2089.75	1.14345e-06
2098.31	1.42425e-06
2106.86	1.15722e-06
2115.42	9.7863e-07
2123.98	1.2738e-06
2132.54	6.02246e-07
2141.09	6.50274e-07
2149.65	8.73699e-07
2158.21	1.27236e-06
2166.77	1.40997e-06
2175.32	1.54945e-06
2183.88	1.9965e-06
2192.44	1.90421e-06
2201	2.26596e-06
2209.55	1.83602e-06
2218.11	1.6671e-06
2226.67	9.3927e-07
2235.23	1.35217e-06
2243.79	1.25634e-06
2252.34	1.18421e-06
2260.9	1.83613e-06
2269.46	1.87231e-06
2278.02	2.2127e-06
2286.57	2.27109e-06
2295.13	2.5465e-06
2303.69	2.3196e-06
2312.25	2.28608e-06
2320.8	3.38704e-06
2329.36	2.1149e-06
2337.92	3.21544e-06
2346.48	2.45728e-06
2355.03	2.26895e-06
2363.59	2.49541e-06
2372.15	2.13649e-06
2380.71	2.73731e-06
2389.26	3.41169e-06
2397.82	2.89071e-06
2406.38	3.55902e-06
2414.94	3.29764e-06
2423.5	3.57954e-06
2432.05	3.35921e-06
2440.61	3.20703e-06
2449.17	2.26336e-06
2457.73	2.60727e-06
2466.28	1.70568e-06
2474.84	1.68079e-06
2483.4	2.33115e-06
2491.96	1.18246e-06
2500.51	2.1654e-06
2509.07	2.50012e-06
2517.63	2.25387e-06
2526.19	1.36029e-06
2534.74	1.86919e-06
2543.3	2.40348e-06
2551.86	2.15114e-06
2560.42	2.37718e-06
2568.98	3.06551e-06
2577.53	2.89098e-06
2586.09	2.58356e-06
2594.65	3.12936e-06
2603.21	3.23853e-06
2611.76	4.84302e-06
2620.32	4.22161e-06
2628.88	4.85871e-06
2637.44	4.71726e-06
2645.99	5.36441e-06
2654.55	6.50321e-06
2663.11	7.11066e-06
2671.67	7.7263e-06
2680.22	8.11982e-06
2688.78	7.98566e-06
2697.34	9.17367e-06
2705.9	8.89628e-06
2714.45	1.0112e-05
2723.01	1.16609e-05
2731.57	1.3369e-05
2740.13	1.57164e-05
2748.69	1.72226e-05
2757.24	1.75481e-05
2765.8	1.81705e-05
2774.36	1.94163e-05
2782.92	1.96227e-05
2791.47	2.20505e-05
2800.03	2.22973e-05
2808.59	2.54778e-05
2817.15	2.69667e-05
2825.7	3.29529e-05
2834.26	4.5619e-05
2842.82	6.85989e-05
2851.38	0.000104803
2859.93	0.00015206
2868.49	0.000215108
2877.05	0.000308933
2885.61	0.000335249
2894.16	0.00033172
2902.72	0.000275762
2911.28	0.000285512
2919.84	0.000323622
2928.4	0.00037832
2936.95	0.000443725
2945.51	0.000457529
2954.07	0.000455289
2962.63	0.000476466
2971.18	0.000472324
2979.74	0.00038949
2988.3	0.000197391
2996.86	7.90459e-05
3005.41	3.12607e-05
3013.97	1.65401e-05
3022.53	1.08715e-05
3031.09	9.03824e-06
3039.64	8.56504e-06
3048.2	8.77954e-06
3056.76	8.57446e-06
3065.32	7.66484e-06
3073.88	5.1815e-06
3082.43	5.83245e-06
3090.99	5.29663e-06
3099.55	3.77465e-06
3108.11	4.73116e-06
3116.66	4.5735e-06
3125.22	3.77228e-06
3133.78	3.7156e-06
3142.34	3.94425e-06
3150.89	2.6166e-06
3159.45	3.37434e-06
3168.01	3.2591e-06
3176.57	4.00484e-06
3185.12	3.80446e-06
3193.68	4.66201e-06
3202.24	4.97283e-06
3210.8	3.87319e-06
3219.35	2.52705e-06
3227.91	2.49536e-06
3236.47	2.25379e-06
3245.03	1.32751e-06
3253.59	3.07552e-06
3262.14	6.44714e-07
3270.7	1.35396e-06
3279.26	1.39305e-06
3287.82	4.16125e-07
3296.37	2.05567e-06
3304.93	-5.20501e-07
3313.49	3.07878e-06
3322.05	2.6614e-06
3330.6	2.33211e-06
3339.16	1.90577e-06
3347.72	6.56988e-07
3356.28	2.07291e-07
3364.83	2.57465e-06
3373.39	2.73968e-06
3381.95	1.20316e-06
3390.51	1.47584e-06
3399.06	2.0949e-06
3407.62	6.40819e-07
3416.18	2.21282e-06
3424.74	1.14298e-06
3433.3	6.39147e-07
3441.85	4.26789e-06
3450.41	1.78588e-06
3458.97	3.02124e-06
3467.53	2.0618e-06
3476.08	3.33798e-06
3484.64	3.45718e-06
3493.2	3.33553e-06
3501.76	2.54623e-06
3510.31	4.79757e-06
3518.87	2.94475e-06
3527.43	2.22027e-06
3535.99	2.17265e-06
3544.54	3.15576e-06
3553.1	2.15195e-06
3561.66	1.67827e-06
3570.22	2.57091e-06
3578.78	1.66541e-06
3587.33	1.25899e-06
3595.89	1.89357e-06
3604.45	3.64281e-06
3613.01	3.37912e-06
3621.56	4.64178e-06
3630.12	9.94427e-06
3638.68	1.4601e-05
3647.24	2.98376e-05
3655.79	5.00901e-05
3664.35	6.68561e-05
3672.91	7.82256e-05
3681.47	6.42776e-05
3690.02	3.68478e-05
3698.58	1.43134e-05
3707.14	6.78061e-06
3715.7	4.47259e-06
3724.25	4.187e-06
3732.81	4.05303e-06
3741.37	3.26096e-06
3749.93	3.30297e-06
3758.49	3.24291e-06
3767.04	3.30081e-06
3775.6	3.00433e-06
3784.16	2.45226e-06
3792.72	5.06636e-06
3801.27	5.18827e-06
3809.83	3.64081e-06
3818.39	4.47863e-06
3826.95	3.46051e-06
3835.5	4.36397e-06
3844.06	3.89364e-06
3852.62	5.93724e-06
3861.18	5.31751e-06
3869.73	4.86769e-06
3878.29	4.77576e-06
3886.85	3.6812e-06
3895.41	3.46625e-06
3903.96	3.89582e-06
3912.52	3.77832e-06
3921.08	1.814e-06
3929.64	2.63079e-06
3938.2	3.43264e-06
3946.75	2.68771e-06
3955.31	3.79933e-06
3963.87	1.3843e-06
3972.43	2.12307e-06
