Infrared Spectrum: 1-Butanol
Formula: C H3 C H2 C H2 C H2 O H
CAS: 71-36-3
State: gas
Melting point: -89.53 C
Boiling point: 117.25 C
Class: IUPAC A
Instrument: IFS66V (Bruker)
Instrument parameters: KBr Beam splitter; MCT Detector; Multipass cell
Sampling: 1 L/min Flow
Resolution: 0.2410
Temperature: 23 C
Pressure: 101.3 kPa
Origin: NIST, Anayltical Chemistry Division, 301-975-3108
cm-1	(micromol/mol)-1m-1 (base 10)
575.048	-7.69614e-07
583.606	3.3421e-06
592.163	5.51087e-06
600.721	6.57393e-06
609.279	4.34163e-06
617.836	2.31586e-06
626.394	4.7365e-06
634.951	4.7214e-06
643.509	1.60484e-06
652.067	4.78555e-06
660.624	4.46437e-06
669.182	2.53949e-06
677.74	2.36171e-06
686.297	4.91269e-06
694.855	2.9921e-06
703.412	2.16741e-06
711.97	4.73603e-06
720.528	5.15565e-06
729.085	6.90677e-06
737.643	9.96967e-06
746.201	8.5025e-06
754.758	8.69461e-06
763.316	6.06005e-06
771.873	4.22079e-06
780.431	4.55208e-06
788.989	4.89105e-06
797.546	6.0982e-06
806.104	8.26606e-06
814.662	9.42036e-06
823.219	1.10833e-05
831.777	1.63468e-05
840.334	2.44824e-05
848.892	2.5292e-05
857.45	2.25689e-05
866.007	1.45375e-05
874.565	1.06094e-05
883.123	9.90131e-06
891.68	1.17989e-05
900.238	1.3372e-05
908.795	1.54099e-05
917.353	1.44101e-05
925.911	2.06312e-05
934.468	3.38968e-05
943.026	4.83593e-05
951.584	5.51828e-05
960.141	5.26538e-05
968.699	4.33241e-05
977.256	4.05206e-05
985.814	4.65203e-05
994.372	5.63201e-05
1002.93	6.18766e-05
1011.49	7.86107e-05
1020.04	0.000106172
1028.6	0.000136379
1037.16	0.000189867
1045.72	0.000202599
1054.28	0.000214206
1062.83	0.000203654
1071.39	0.000219515
1079.95	0.000191177
1088.51	0.000124179
1097.06	8.08903e-05
1105.62	5.39544e-05
1114.18	3.93252e-05
1122.74	3.05684e-05
1131.29	2.37431e-05
1139.85	1.92355e-05
1148.41	1.77489e-05
1156.97	1.67797e-05
1165.52	1.91195e-05
1174.08	2.22078e-05
1182.64	2.73808e-05
1191.2	3.53252e-05
1199.75	4.22194e-05
1208.31	4.8635e-05
1216.87	4.89742e-05
1225.43	4.38993e-05
1233.99	3.66766e-05
1242.54	3.29196e-05
1251.1	3.23225e-05
1259.66	3.49086e-05
1268.22	3.70956e-05
1276.77	3.87586e-05
1285.33	3.69129e-05
1293.89	3.31761e-05
1302.45	2.7969e-05
1311	2.54931e-05
1319.56	2.44678e-05
1328.12	2.67929e-05
1336.68	3.2577e-05
1345.23	3.4204e-05
1353.79	3.44176e-05
1362.35	3.54018e-05
1370.91	5.01015e-05
1379.46	7.48861e-05
1388.02	8.71504e-05
1396.58	7.50901e-05
1405.14	5.02475e-05
1413.7	3.06985e-05
1422.25	2.41095e-05
1430.81	2.62157e-05
1439.37	3.25992e-05
1447.93	4.57644e-05
1456.48	5.64242e-05
1465.04	6.69545e-05
1473.6	6.09766e-05
1482.16	4.92495e-05
1490.71	3.37896e-05
1499.27	1.76675e-05
1507.83	9.29877e-06
1516.39	5.69269e-06
1524.94	4.33434e-06
1533.5	4.10653e-06
1542.06	4.99338e-06
1550.62	2.95641e-06
1559.18	3.23888e-06
1567.73	2.85676e-06
1576.29	5.20672e-06
1584.85	2.53887e-06
1593.41	1.91864e-06
1601.96	2.06808e-06
1610.52	2.18368e-06
1619.08	1.98625e-06
1627.64	2.15495e-06
1636.19	1.75869e-06
1644.75	1.4842e-06
1653.31	6.20795e-06
1661.87	1.56857e-06
1670.42	1.65677e-06
1678.98	2.00789e-06
1687.54	1.52693e-06
1696.1	4.15905e-06
1704.65	1.9663e-06
1713.21	1.83314e-06
1721.77	1.56944e-06
1730.33	1.15185e-06
1738.89	1.54267e-06
1747.44	1.58033e-06
1756	1.54724e-06
1764.56	1.48846e-06
1773.12	1.58778e-06
1781.67	1.4404e-06
1790.23	1.33506e-06
1798.79	1.66811e-06
1807.35	1.37919e-06
1815.9	1.03961e-06
1824.46	9.00808e-07
1833.02	1.21711e-06
1841.58	1.19071e-06
1850.13	1.24594e-06
1858.69	1.32101e-06
1867.25	1.46543e-06
1875.81	1.36339e-06
1884.36	1.34611e-06
1892.92	1.49126e-06
1901.48	1.18342e-06
1910.04	1.49355e-06
1918.6	1.80837e-06
1927.15	1.81465e-06
1935.71	1.6664e-06
1944.27	1.48017e-06
1952.83	1.14902e-06
1961.38	1.4755e-06
1969.94	1.73568e-06
1978.5	1.84725e-06
1987.06	1.57103e-06
1995.61	1.61422e-06
2004.17	1.95691e-06
2012.73	2.22217e-06
2021.29	2.74259e-06
2029.84	3.18111e-06
2038.4	3.36003e-06
2046.96	2.99796e-06
2055.52	2.36208e-06
2064.08	1.66497e-06
2072.63	1.41506e-06
2081.19	1.49526e-06
2089.75	1.25756e-06
2098.31	1.37961e-06
2106.86	1.20814e-06
2115.42	1.22879e-06
2123.98	1.08701e-06
2132.54	6.52606e-07
2141.09	7.69112e-07
2149.65	8.93146e-07
2158.21	1.26022e-06
2166.77	1.51227e-06
2175.32	1.52715e-06
2183.88	1.99278e-06
2192.44	1.83499e-06
2201	1.9239e-06
2209.55	1.75081e-06
2218.11	1.43575e-06
2226.67	1.41118e-06
2235.23	1.3427e-06
2243.79	1.35401e-06
2252.34	1.48871e-06
2260.9	1.82318e-06
2269.46	1.8337e-06
2278.02	2.10596e-06
2286.57	2.33407e-06
2295.13	2.3103e-06
2303.69	2.35685e-06
2312.25	2.32966e-06
2320.8	3.1423e-06
2329.36	2.5444e-06
2337.92	3.01681e-06
2346.48	2.30225e-06
2355.03	2.22325e-06
2363.59	2.46494e-06
2372.15	2.66918e-06
2380.71	2.66965e-06
2389.26	3.21976e-06
2397.82	2.80287e-06
2406.38	3.51439e-06
2414.94	3.43526e-06
2423.5	3.51558e-06
2432.05	3.34991e-06
2440.61	3.13369e-06
2449.17	2.29632e-06
2457.73	2.27605e-06
2466.28	1.80887e-06
2474.84	1.74742e-06
2483.4	2.06199e-06
2491.96	1.73222e-06
2500.51	2.15261e-06
2509.07	2.15217e-06
2517.63	2.14346e-06
2526.19	1.6656e-06
2534.74	2.2244e-06
2543.3	2.27179e-06
2551.86	2.48226e-06
2560.42	2.44802e-06
2568.98	2.74455e-06
2577.53	3.06259e-06
2586.09	2.7424e-06
2594.65	3.23348e-06
2603.21	3.4688e-06
2611.76	4.29044e-06
2620.32	4.39712e-06
2628.88	4.96173e-06
2637.44	4.76822e-06
2645.99	5.28322e-06
2654.55	6.47206e-06
2663.11	7.14778e-06
2671.67	7.60615e-06
2680.22	7.99354e-06
2688.78	8.05321e-06
2697.34	9.13448e-06
2705.9	9.18377e-06
2714.45	1.03125e-05
2723.01	1.14969e-05
2731.57	1.312e-05
2740.13	1.52987e-05
2748.69	1.73586e-05
2757.24	1.73827e-05
2765.8	1.82346e-05
2774.36	1.91141e-05
2782.92	2.03112e-05
2791.47	2.24659e-05
2800.03	2.27903e-05
2808.59	2.49041e-05
2817.15	2.66665e-05
2825.7	3.25777e-05
2834.26	4.57159e-05
2842.82	6.86151e-05
2851.38	0.000105097
2859.93	0.00015205
2868.49	0.000215441
2877.05	0.000308372
2885.61	0.000335573
2894.16	0.000330876
2902.72	0.000276396
2911.28	0.000286036
2919.84	0.000322899
2928.4	0.000377921
2936.95	0.000443415
2945.51	0.000458164
2954.07	0.00045513
2962.63	0.000477477
2971.18	0.000471014
2979.74	0.000389888
2988.3	0.000197643
2996.86	7.92754e-05
3005.41	3.25604e-05
3013.97	1.6357e-05
3022.53	1.10579e-05
3031.09	9.47353e-06
3039.64	8.85743e-06
3048.2	8.86019e-06
3056.76	8.48874e-06
3065.32	7.71003e-06
3073.88	5.77263e-06
3082.43	5.62069e-06
3090.99	5.09885e-06
3099.55	4.06222e-06
3108.11	4.57793e-06
3116.66	4.3295e-06
3125.22	3.68055e-06
3133.78	3.70459e-06
3142.34	3.83416e-06
3150.89	3.27452e-06
3159.45	3.68418e-06
3168.01	3.50212e-06
3176.57	4.11081e-06
3185.12	4.12713e-06
3193.68	4.22823e-06
3202.24	4.38631e-06
3210.8	3.92067e-06
3219.35	2.89131e-06
3227.91	2.86204e-06
3236.47	1.82157e-06
3245.03	1.30005e-06
3253.59	2.19044e-06
3262.14	1.27343e-06
3270.7	1.28003e-06
3279.26	1.07026e-06
3287.82	1.1437e-06
3296.37	1.70361e-06
3304.93	5.31228e-07
3313.49	2.05084e-06
3322.05	2.16816e-06
3330.6	1.72066e-06
3339.16	2.00759e-06
3347.72	8.62173e-07
3356.28	9.57797e-07
3364.83	2.59646e-06
3373.39	1.95689e-06
3381.95	1.65127e-06
3390.51	1.5729e-06
3399.06	1.7645e-06
3407.62	1.72494e-06
3416.18	1.952e-06
3424.74	1.71736e-06
3433.3	1.46473e-06
3441.85	3.54674e-06
3450.41	2.35322e-06
3458.97	2.99527e-06
3467.53	2.5997e-06
3476.08	2.83133e-06
3484.64	3.49407e-06
3493.2	3.49064e-06
3501.76	2.51382e-06
3510.31	3.66092e-06
3518.87	2.70167e-06
3527.43	2.55479e-06
3535.99	2.07538e-06
3544.54	3.00483e-06
3553.1	2.06968e-06
3561.66	1.84516e-06
3570.22	2.44801e-06
3578.78	2.00177e-06
3587.33	1.64681e-06
3595.89	1.81427e-06
3604.45	3.4709e-06
3613.01	3.48096e-06
3621.56	4.76496e-06
3630.12	9.1052e-06
3638.68	1.47386e-05
3647.24	3.01511e-05
3655.79	5.01077e-05
3664.35	6.71762e-05
3672.91	7.86581e-05
3681.47	6.3569e-05
3690.02	3.76798e-05
3698.58	1.50574e-05
3707.14	7.00339e-06
3715.7	4.85447e-06
3724.25	4.1259e-06
3732.81	4.08755e-06
3741.37	3.89443e-06
3749.93	3.7426e-06
3758.49	3.41109e-06
3767.04	3.42775e-06
3775.6	2.91906e-06
3784.16	2.56135e-06
3792.72	4.24994e-06
3801.27	5.27728e-06
3809.83	4.00141e-06
3818.39	4.23442e-06
3826.95	3.64195e-06
3835.5	4.92118e-06
3844.06	3.86479e-06
3852.62	5.27726e-06
3861.18	4.85685e-06
3869.73	5.21275e-06
3878.29	4.57565e-06
3886.85	3.70475e-06
3895.41	3.59654e-06
3903.96	3.31363e-06
3912.52	3.11186e-06
3921.08	1.95034e-06
3929.64	2.81162e-06
3938.2	2.80032e-06
3946.75	2.30398e-06
3955.31	2.84937e-06
3963.87	2.22521e-06
3972.43	2.23887e-06
