Infrared Spectrum: 1-Butanol
Formula: C H3 C H2 C H2 C H2 O H
CAS: 71-36-3
State: gas
Melting point: -89.53 C
Boiling point: 117.25 C
Class: IUPAC A
Instrument: IFS66V (Bruker)
Instrument parameters: KBr Beam splitter; MCT Detector; Multipass cell
Sampling: 1 L/min Flow
Resolution: 0.9640
Temperature: 23 C
Pressure: 101.3 kPa
Origin: NIST, Anayltical Chemistry Division, 301-975-3108
cm-1	(micromol/mol)-1m-1 (base 10)
575.169	2.28328e-06
583.847	4.08799e-06
592.525	5.32554e-06
601.203	3.48929e-06
609.882	2.572e-06
618.56	3.62903e-06
627.238	5.56715e-06
635.916	3.59187e-06
644.594	3.27383e-06
653.272	2.56875e-06
661.951	4.07316e-06
670.629	3.82096e-06
679.307	2.58648e-06
687.985	3.58933e-06
696.663	4.22331e-06
705.341	2.68278e-06
714.019	3.78363e-06
722.698	4.63938e-06
731.376	8.11944e-06
740.054	1.06869e-05
748.732	9.32425e-06
757.41	7.20548e-06
766.088	4.91446e-06
774.767	4.6329e-06
783.445	5.48495e-06
792.123	5.36607e-06
800.801	6.26337e-06
809.479	8.49792e-06
818.157	9.17938e-06
826.835	1.34299e-05
835.514	2.08023e-05
844.192	2.37398e-05
852.87	2.52768e-05
861.548	1.88215e-05
870.226	1.23817e-05
878.904	1.07194e-05
887.583	1.04592e-05
896.261	1.31695e-05
904.939	1.40748e-05
913.617	1.44507e-05
922.295	1.77337e-05
930.973	2.78558e-05
939.651	4.31671e-05
948.33	5.2811e-05
957.008	5.44203e-05
965.686	4.69278e-05
974.364	4.00512e-05
983.042	4.54716e-05
991.72	5.02471e-05
1000.4	6.10655e-05
1009.08	7.26931e-05
1017.75	9.72949e-05
1026.43	0.000128543
1035.11	0.00017658
1043.79	0.00020116
1052.47	0.000207782
1061.15	0.000204246
1069.82	0.000220941
1078.5	0.000199878
1087.18	0.000134817
1095.86	8.55408e-05
1104.54	5.69997e-05
1113.21	4.09672e-05
1121.89	3.0742e-05
1130.57	2.39553e-05
1139.25	1.92555e-05
1147.93	1.71389e-05
1156.61	1.72152e-05
1165.28	1.83469e-05
1173.96	2.23816e-05
1182.64	2.76308e-05
1191.32	3.524e-05
1200	4.24232e-05
1208.67	4.89158e-05
1217.35	4.86887e-05
1226.03	4.36449e-05
1234.71	3.639e-05
1243.39	3.254e-05
1252.07	3.24152e-05
1260.74	3.49387e-05
1269.42	3.70051e-05
1278.1	3.85001e-05
1286.78	3.6586e-05
1295.46	3.26092e-05
1304.13	2.71704e-05
1312.81	2.50969e-05
1321.49	2.46269e-05
1330.17	2.83698e-05
1338.85	3.30037e-05
1347.52	3.40922e-05
1356.2	3.48236e-05
1364.88	3.77761e-05
1373.56	5.87735e-05
1382.24	7.80616e-05
1390.92	9.15917e-05
1399.59	6.74899e-05
1408.27	4.1142e-05
1416.95	2.71881e-05
1425.63	2.41714e-05
1434.31	2.77947e-05
1442.98	3.77363e-05
1451.66	4.95437e-05
1460.34	6.00626e-05
1469.02	6.15643e-05
1477.7	5.76326e-05
1486.38	4.13577e-05
1495.05	2.44757e-05
1503.73	1.24644e-05
1512.41	7.27691e-06
1521.09	6.42608e-06
1529.77	3.60485e-06
1538.44	3.36389e-06
1547.12	3.47753e-06
1555.8	2.72189e-06
1564.48	2.78603e-06
1573.16	2.73644e-06
1581.83	2.31794e-06
1590.51	2.40799e-06
1599.19	2.27309e-06
1607.87	2.11639e-06
1616.55	4.6013e-06
1625.23	1.94535e-06
1633.9	1.10256e-06
1642.58	1.92853e-06
1651.26	2.30212e-06
1659.94	1.78874e-06
1668.62	1.60153e-06
1677.29	1.59075e-06
1685.97	1.85826e-06
1694.65	1.96522e-06
1703.33	1.59397e-06
1712.01	1.40235e-06
1720.69	1.48431e-06
1729.36	1.3898e-06
1738.04	1.29103e-06
1746.72	1.73742e-06
1755.4	1.56265e-06
1764.08	1.27774e-06
1772.75	3.16859e-06
1781.43	1.23802e-06
1790.11	1.5987e-06
1798.79	1.53511e-06
1807.47	1.57571e-06
1816.15	9.34038e-07
1824.82	1.24168e-06
1833.5	1.06906e-06
1842.18	1.1276e-06
1850.86	1.21799e-06
1859.54	1.47805e-06
1868.21	1.79952e-06
1876.89	1.28413e-06
1885.57	1.1542e-06
1894.25	1.53215e-06
1902.93	1.63267e-06
1911.6	1.50717e-06
1920.28	1.67999e-06
1928.96	1.82905e-06
1937.64	1.15122e-06
1946.32	1.199e-06
1955	1.55332e-06
1963.67	1.04095e-06
1972.35	1.51226e-06
1981.03	1.74893e-06
1989.71	1.75065e-06
1998.39	1.54961e-06
2007.06	1.94641e-06
2015.74	2.15792e-06
2024.42	3.04233e-06
2033.1	3.51025e-06
2041.78	3.37718e-06
2050.46	2.67403e-06
2059.13	2.18014e-06
2067.81	1.58557e-06
2076.49	1.57499e-06
2085.17	1.72605e-06
2093.85	1.64681e-06
2102.52	1.35708e-06
2111.2	9.97057e-07
2119.88	1.12828e-06
2128.56	8.43526e-07
2137.24	8.99559e-07
2145.91	1.1038e-06
2154.59	1.12838e-06
2163.27	1.41015e-06
2171.95	1.58505e-06
2180.63	1.59792e-06
2189.31	1.85537e-06
2197.98	1.88921e-06
2206.66	1.73858e-06
2215.34	1.9329e-06
2224.02	1.42316e-06
2232.7	1.63943e-06
2241.37	1.80689e-06
2250.05	1.32049e-06
2258.73	1.62033e-06
2267.41	1.40856e-06
2276.09	2.28138e-06
2284.77	2.25427e-06
2293.44	2.02128e-06
2302.12	2.14121e-06
2310.8	2.14015e-06
2319.48	2.59555e-06
2328.16	2.88541e-06
2336.83	2.24015e-06
2345.51	2.9693e-06
2354.19	3.02087e-06
2362.87	3.80041e-06
2371.55	2.77179e-06
2380.23	2.76977e-06
2388.9	2.86445e-06
2397.58	2.83404e-06
2406.26	3.36736e-06
2414.94	3.43867e-06
2423.62	3.43188e-06
2432.29	3.29855e-06
2440.97	3.04297e-06
2449.65	2.82912e-06
2458.33	2.15625e-06
2467.01	2.33675e-06
2475.68	2.17788e-06
2484.36	1.69305e-06
2493.04	2.30653e-06
2501.72	1.38463e-06
2510.4	2.0247e-06
2519.08	2.01021e-06
2527.75	1.92509e-06
2536.43	2.27797e-06
2545.11	2.58532e-06
2553.79	2.31525e-06
2562.47	2.33818e-06
2571.14	2.87977e-06
2579.82	2.88055e-06
2588.5	3.70019e-06
2597.18	3.88546e-06
2605.86	3.86238e-06
2614.54	4.19736e-06
2623.21	4.3366e-06
2631.89	4.56528e-06
2640.57	4.96498e-06
2649.25	6.1434e-06
2657.93	6.15412e-06
2666.6	7.33636e-06
2675.28	7.60029e-06
2683.96	8.5391e-06
2692.64	8.53469e-06
2701.32	9.10191e-06
2709.99	9.19287e-06
2718.67	1.04711e-05
2727.35	1.21335e-05
2736.03	1.45789e-05
2744.71	1.6829e-05
2753.39	1.76738e-05
2762.06	1.78695e-05
2770.74	1.8798e-05
2779.42	2.01373e-05
2788.1	2.20965e-05
2796.78	2.34257e-05
2805.45	2.37898e-05
2814.13	2.49533e-05
2822.81	3.02767e-05
2831.49	3.98017e-05
2840.17	6.01954e-05
2848.85	9.43944e-05
2857.52	0.000136641
2866.2	0.000196381
2874.88	0.000280916
2883.56	0.0003301
2892.24	0.0003366
2900.91	0.000281586
2909.59	0.000278792
2918.27	0.000314961
2926.95	0.000369678
2935.63	0.000432503
2944.31	0.000464694
2952.98	0.000451431
2961.66	0.000471378
2970.34	0.000487125
2979.02	0.000401325
2987.7	0.00021029
2996.37	8.31671e-05
3005.05	3.35407e-05
3013.73	1.59986e-05
3022.41	1.0827e-05
3031.09	9.64796e-06
3039.76	8.76098e-06
3048.44	8.89416e-06
3057.12	7.94309e-06
3065.8	7.15056e-06
3074.48	6.25977e-06
3083.16	5.04896e-06
3091.83	4.72963e-06
3100.51	4.61611e-06
3109.19	3.9232e-06
3117.87	4.06459e-06
3126.55	4.05978e-06
3135.22	4.40018e-06
3143.9	3.5328e-06
3152.58	3.91009e-06
3161.26	4.32958e-06
3169.94	4.29086e-06
3178.62	3.33898e-06
3187.29	4.27195e-06
3195.97	4.41857e-06
3204.65	4.7075e-06
3213.33	4.14303e-06
3222.01	2.66506e-06
3230.68	2.27421e-06
3239.36	1.41469e-06
3248.04	1.36444e-06
3256.72	1.78837e-06
3265.4	2.04503e-06
3274.07	7.09047e-07
3282.75	1.05581e-06
3291.43	5.3236e-07
3300.11	1.49854e-06
3308.79	1.30507e-06
3317.47	1.95909e-06
3326.14	1.49623e-06
3334.82	1.67687e-06
3343.5	1.49285e-06
3352.18	1.30059e-06
3360.86	1.58818e-06
3369.53	1.30915e-06
3378.21	1.49864e-06
3386.89	1.44571e-06
3395.57	1.53828e-06
3404.25	1.53651e-06
3412.93	1.86025e-06
3421.6	2.48212e-06
3430.28	3.15247e-06
3438.96	2.99506e-06
3447.64	2.76991e-06
3456.32	2.2702e-06
3464.99	2.64519e-06
3473.67	3.68233e-06
3482.35	3.77482e-06
3491.03	2.87877e-06
3499.71	2.27528e-06
3508.39	1.89251e-06
3517.06	2.59053e-06
3525.74	1.41594e-06
3534.42	2.47832e-06
3543.1	2.90187e-06
3551.78	2.09098e-06
3560.45	1.93569e-06
3569.13	1.8946e-06
3577.81	2.21918e-06
3586.49	2.38362e-06
3595.17	2.50516e-06
3603.84	2.29139e-06
3612.52	3.65965e-06
3621.2	5.1277e-06
3629.88	8.59752e-06
3638.56	1.45138e-05
3647.24	3.0509e-05
3655.91	5.05384e-05
3664.59	6.79531e-05
3673.27	7.81198e-05
3681.95	6.26142e-05
3690.63	3.53552e-05
3699.3	1.42871e-05
3707.98	6.66595e-06
3716.66	4.51711e-06
3725.34	3.79335e-06
3734.02	3.206e-06
3742.7	3.62716e-06
3751.37	3.19494e-06
3760.05	3.40855e-06
3768.73	2.93698e-06
3777.41	3.64053e-06
3786.09	3.06465e-06
3794.76	2.81038e-06
3803.44	2.96204e-06
3812.12	3.83866e-06
3820.8	5.48245e-06
3829.48	4.25883e-06
3838.16	6.11206e-06
3846.83	5.40014e-06
3855.51	5.52319e-06
3864.19	5.64441e-06
3872.87	5.11235e-06
3881.55	4.39368e-06
3890.22	3.31588e-06
3898.9	3.15318e-06
3907.58	3.25692e-06
3916.26	2.18921e-06
3924.94	2.32303e-06
3933.61	2.1917e-06
3942.29	2.8602e-06
3950.97	1.76107e-06
3959.65	1.81228e-06
3968.33	2.19604e-06
