Infrared Spectrum: 1-Butanol
Formula: C H3 C H2 C H2 C H2 O H
CAS: 71-36-3
State: gas
Melting point: -89.53 C
Boiling point: 117.25 C
Class: IUPAC A
Instrument: IFS66V (Bruker)
Instrument parameters: KBr Beam splitter; MCT Detector; Multipass cell
Sampling: 1 L/min Flow
Resolution: 0.9640
Temperature: 23 C
Pressure: 101.3 kPa
Origin: NIST, Anayltical Chemistry Division, 301-975-3108
cm-1	(micromol/mol)-1m-1 (base 10)
575.169	2.25239e-06
583.847	3.76138e-06
592.525	5.19986e-06
601.203	3.94673e-06
609.882	3.29316e-06
618.56	4.04036e-06
627.238	5.17737e-06
635.916	3.81369e-06
644.594	3.5217e-06
653.272	3.23119e-06
661.951	4.06257e-06
670.629	3.51344e-06
679.307	2.88993e-06
687.985	3.94288e-06
696.663	3.71486e-06
705.341	3.29792e-06
714.019	3.93382e-06
722.698	5.15792e-06
731.376	7.93188e-06
740.054	1.06373e-05
748.732	9.18957e-06
757.41	7.21137e-06
766.088	5.2078e-06
774.767	4.49842e-06
783.445	5.08888e-06
792.123	5.66842e-06
800.801	6.35539e-06
809.479	7.95661e-06
818.157	8.9435e-06
826.835	1.30753e-05
835.514	2.04017e-05
844.192	2.37438e-05
852.87	2.52038e-05
861.548	1.85778e-05
870.226	1.24163e-05
878.904	1.04269e-05
887.583	1.0402e-05
896.261	1.30354e-05
904.939	1.42131e-05
913.617	1.43739e-05
922.295	1.78382e-05
930.973	2.79976e-05
939.651	4.29995e-05
948.33	5.28432e-05
957.008	5.41895e-05
965.686	4.68181e-05
974.364	4.02275e-05
983.042	4.56054e-05
991.72	5.05348e-05
1000.4	6.10703e-05
1009.08	7.29636e-05
1017.75	9.75963e-05
1026.43	0.000128665
1035.11	0.000176032
1043.79	0.000201055
1052.47	0.000207484
1061.15	0.000204264
1069.82	0.000219839
1078.5	0.000197793
1087.18	0.000134548
1095.86	8.57959e-05
1104.54	5.72369e-05
1113.21	4.12362e-05
1121.89	3.12081e-05
1130.57	2.41389e-05
1139.25	1.94673e-05
1147.93	1.7369e-05
1156.61	1.72586e-05
1165.28	1.8724e-05
1173.96	2.23086e-05
1182.64	2.75327e-05
1191.32	3.52028e-05
1200	4.22626e-05
1208.67	4.85953e-05
1217.35	4.86377e-05
1226.03	4.34758e-05
1234.71	3.62858e-05
1243.39	3.27038e-05
1252.07	3.26673e-05
1260.74	3.49368e-05
1269.42	3.71056e-05
1278.1	3.85255e-05
1286.78	3.65051e-05
1295.46	3.24441e-05
1304.13	2.73422e-05
1312.81	2.51984e-05
1321.49	2.49043e-05
1330.17	2.85902e-05
1338.85	3.31737e-05
1347.52	3.42492e-05
1356.2	3.44043e-05
1364.88	3.80955e-05
1373.56	5.86787e-05
1382.24	7.79933e-05
1390.92	9.07056e-05
1399.59	6.75062e-05
1408.27	4.1134e-05
1416.95	2.75008e-05
1425.63	2.44282e-05
1434.31	2.80548e-05
1442.98	3.76736e-05
1451.66	4.94818e-05
1460.34	5.97669e-05
1469.02	6.12048e-05
1477.7	5.70626e-05
1486.38	4.12422e-05
1495.05	2.4549e-05
1503.73	1.2588e-05
1512.41	7.1407e-06
1521.09	5.88595e-06
1529.77	3.68764e-06
1538.44	4.06984e-06
1547.12	3.31213e-06
1555.8	3.02111e-06
1564.48	2.79642e-06
1573.16	2.66177e-06
1581.83	2.33856e-06
1590.51	2.30856e-06
1599.19	2.17238e-06
1607.87	2.1384e-06
1616.55	3.58436e-06
1625.23	1.98522e-06
1633.9	1.51461e-06
1642.58	1.87667e-06
1651.26	1.907e-06
1659.94	1.77279e-06
1668.62	1.83966e-06
1677.29	1.65476e-06
1685.97	1.68622e-06
1694.65	1.82371e-06
1703.33	1.64844e-06
1712.01	1.54621e-06
1720.69	1.42819e-06
1729.36	1.40496e-06
1738.04	1.50848e-06
1746.72	1.67286e-06
1755.4	1.49608e-06
1764.08	1.34164e-06
1772.75	2.31554e-06
1781.43	1.35836e-06
1790.11	1.61649e-06
1798.79	1.58508e-06
1807.47	1.50513e-06
1816.15	1.16495e-06
1824.82	1.3191e-06
1833.5	1.10722e-06
1842.18	1.23913e-06
1850.86	1.25467e-06
1859.54	1.44773e-06
1868.21	1.65428e-06
1876.89	1.35412e-06
1885.57	1.22595e-06
1894.25	1.40585e-06
1902.93	1.49448e-06
1911.6	1.55198e-06
1920.28	1.56607e-06
1928.96	1.66815e-06
1937.64	1.32479e-06
1946.32	1.32672e-06
1955	1.5e-06
1963.67	1.30055e-06
1972.35	1.63399e-06
1981.03	1.76856e-06
1989.71	1.75672e-06
1998.39	1.59787e-06
2007.06	1.90371e-06
2015.74	2.26723e-06
2024.42	3.01375e-06
2033.1	3.47247e-06
2041.78	3.41653e-06
2050.46	2.71127e-06
2059.13	2.18376e-06
2067.81	1.71629e-06
2076.49	1.57844e-06
2085.17	1.74809e-06
2093.85	1.62939e-06
2102.52	1.4422e-06
2111.2	1.17692e-06
2119.88	1.00594e-06
2128.56	8.58275e-07
2137.24	8.94912e-07
2145.91	1.01722e-06
2154.59	1.16087e-06
2163.27	1.29783e-06
2171.95	1.55506e-06
2180.63	1.64012e-06
2189.31	1.75193e-06
2197.98	1.76611e-06
2206.66	1.73853e-06
2215.34	1.73796e-06
2224.02	1.47629e-06
2232.7	1.60407e-06
2241.37	1.67932e-06
2250.05	1.44115e-06
2258.73	1.63324e-06
2267.41	1.60494e-06
2276.09	2.16587e-06
2284.77	2.19626e-06
2293.44	2.09675e-06
2302.12	2.16932e-06
2310.8	2.41224e-06
2319.48	2.74732e-06
2328.16	2.92049e-06
2336.83	2.5976e-06
2345.51	2.87477e-06
2354.19	2.68387e-06
2362.87	3.07126e-06
2371.55	2.65358e-06
2380.23	2.74742e-06
2388.9	2.86744e-06
2397.58	2.86423e-06
2406.26	3.40289e-06
2414.94	3.53978e-06
2423.62	3.49861e-06
2432.29	3.31139e-06
2440.97	3.04017e-06
2449.65	2.61838e-06
2458.33	2.14042e-06
2467.01	2.23211e-06
2475.68	2.13274e-06
2484.36	1.76906e-06
2493.04	2.16286e-06
2501.72	1.67345e-06
2510.4	2.03485e-06
2519.08	1.95639e-06
2527.75	1.99014e-06
2536.43	2.21307e-06
2545.11	2.34015e-06
2553.79	2.3586e-06
2562.47	2.42908e-06
2571.14	2.79115e-06
2579.82	2.93189e-06
2588.5	3.48736e-06
2597.18	3.76484e-06
2605.86	3.87562e-06
2614.54	4.2241e-06
2623.21	4.43346e-06
2631.89	4.70351e-06
2640.57	5.13818e-06
2649.25	5.91004e-06
2657.93	6.31511e-06
2666.6	7.27986e-06
2675.28	7.65602e-06
2683.96	8.40338e-06
2692.64	8.53711e-06
2701.32	9.04466e-06
2709.99	9.40568e-06
2718.67	1.05109e-05
2727.35	1.21796e-05
2736.03	1.459e-05
2744.71	1.66634e-05
2753.39	1.77551e-05
2762.06	1.79936e-05
2770.74	1.88312e-05
2779.42	2.01751e-05
2788.1	2.20624e-05
2796.78	2.30696e-05
2805.45	2.38282e-05
2814.13	2.5417e-05
2822.81	3.02527e-05
2831.49	4.05218e-05
2840.17	6.06117e-05
2848.85	9.42385e-05
2857.52	0.000137235
2866.2	0.000196391
2874.88	0.000280072
2883.56	0.000329252
2892.24	0.000334816
2900.91	0.000282557
2909.59	0.000279618
2918.27	0.000315017
2926.95	0.0003687
2935.63	0.000431643
2944.31	0.000462703
2952.98	0.000451244
2961.66	0.000470584
2970.34	0.000485159
2979.02	0.000398571
2987.7	0.000210872
2996.37	8.46175e-05
3005.05	3.47853e-05
3013.73	1.70409e-05
3022.41	1.18243e-05
3031.09	1.02908e-05
3039.76	9.34063e-06
3048.44	9.25258e-06
3057.12	8.29007e-06
3065.8	7.44218e-06
3074.48	6.21275e-06
3083.16	5.22297e-06
3091.83	4.8572e-06
3100.51	4.86374e-06
3109.19	4.34948e-06
3117.87	4.18985e-06
3126.55	4.08295e-06
3135.22	4.21155e-06
3143.9	3.87802e-06
3152.58	3.95506e-06
3161.26	4.09246e-06
3169.94	4.19765e-06
3178.62	3.67443e-06
3187.29	4.2407e-06
3195.97	4.45386e-06
3204.65	4.44936e-06
3213.33	4.05113e-06
3222.01	2.87383e-06
3230.68	2.3309e-06
3239.36	1.57819e-06
3248.04	1.65437e-06
3256.72	1.69593e-06
3265.4	1.56957e-06
3274.07	1.12755e-06
3282.75	1.04714e-06
3291.43	9.74701e-07
3300.11	1.44448e-06
3308.79	1.4571e-06
3317.47	1.91193e-06
3326.14	1.47437e-06
3334.82	1.61004e-06
3343.5	1.26143e-06
3352.18	1.27377e-06
3360.86	1.37954e-06
3369.53	1.44549e-06
3378.21	1.42191e-06
3386.89	1.34252e-06
3395.57	1.53612e-06
3404.25	1.69723e-06
3412.93	1.90952e-06
3421.6	2.46201e-06
3430.28	2.92311e-06
3438.96	2.60681e-06
3447.64	2.58413e-06
3456.32	2.36711e-06
3464.99	2.98511e-06
3473.67	3.42722e-06
3482.35	3.44653e-06
3491.03	2.85879e-06
3499.71	2.58293e-06
3508.39	2.33998e-06
3517.06	2.38952e-06
3525.74	1.79648e-06
3534.42	2.49625e-06
3543.1	2.31925e-06
3551.78	2.12794e-06
3560.45	2.03642e-06
3569.13	2.15804e-06
3577.81	2.18872e-06
3586.49	2.2356e-06
3595.17	2.45584e-06
3603.84	2.68779e-06
3612.52	3.77574e-06
3621.2	5.1721e-06
3629.88	8.57756e-06
3638.56	1.46808e-05
3647.24	3.0062e-05
3655.91	4.95755e-05
3664.59	6.78011e-05
3673.27	7.74754e-05
3681.95	6.28826e-05
3690.63	3.53693e-05
3699.3	1.42263e-05
3707.98	6.90834e-06
3716.66	4.67824e-06
3725.34	4.09645e-06
3734.02	3.58084e-06
3742.7	3.66602e-06
3751.37	3.34173e-06
3760.05	3.47977e-06
3768.73	3.11304e-06
3777.41	3.22225e-06
3786.09	3.16175e-06
3794.76	3.23075e-06
3803.44	3.52864e-06
3812.12	3.5753e-06
3820.8	4.60525e-06
3829.48	4.1264e-06
3838.16	5.5853e-06
3846.83	4.83994e-06
3855.51	5.28571e-06
3864.19	5.40059e-06
3872.87	4.99948e-06
3881.55	4.33303e-06
3890.22	3.5835e-06
3898.9	3.34144e-06
3907.58	3.02293e-06
3916.26	2.38115e-06
3924.94	2.44818e-06
3933.61	2.39706e-06
3942.29	2.52634e-06
3950.97	1.88234e-06
3959.65	2.07855e-06
3968.33	2.30257e-06
