Infrared Spectrum: 1-Butanol
Formula: C H3 C H2 C H2 C H2 O H
CAS: 71-36-3
State: gas
Melting point: -89.53 C
Boiling point: 117.25 C
Class: IUPAC A
Instrument: IFS66V (Bruker)
Instrument parameters: KBr Beam splitter; MCT Detector; Multipass cell
Sampling: 1 L/min Flow
Resolution: 0.1250
Temperature: 23 C
Pressure: 101.3 kPa
Origin: NIST, Anayltical Chemistry Division, 301-975-3108
cm-1	(micromol/mol)-1m-1 (base 10)
574.988	-2.35731e-06
583.546	-1.7937e-06
592.103	7.08804e-06
600.661	5.66035e-06
609.219	7.87475e-06
617.776	1.35131e-06
626.334	4.22253e-06
634.891	4.98365e-06
643.449	9.13564e-08
652.007	3.48658e-06
660.564	4.50895e-06
669.122	3.40615e-06
677.68	2.27049e-06
686.237	5.10437e-06
694.795	2.69465e-06
703.352	1.78236e-06
711.91	4.41469e-06
720.468	5.68553e-06
729.025	7.294e-06
737.583	9.82512e-06
746.141	7.71732e-06
754.698	8.54678e-06
763.256	6.36331e-06
771.813	3.83361e-06
780.371	5.23438e-06
788.929	4.19212e-06
797.486	7.53757e-06
806.044	7.56349e-06
814.602	1.00917e-05
823.159	1.16918e-05
831.717	1.71491e-05
840.274	2.42569e-05
848.832	2.52152e-05
857.39	2.32439e-05
865.947	1.4248e-05
874.505	1.15683e-05
883.063	1.0177e-05
891.62	1.2023e-05
900.178	1.29669e-05
908.735	1.56957e-05
917.293	1.43848e-05
925.851	2.02579e-05
934.408	3.4117e-05
942.966	4.79798e-05
951.524	5.53863e-05
960.081	5.24114e-05
968.639	4.31135e-05
977.196	4.04085e-05
985.754	4.60809e-05
994.312	5.64164e-05
1002.87	6.19482e-05
1011.43	7.85004e-05
1019.98	0.000105621
1028.54	0.000136233
1037.1	0.000190237
1045.66	0.000202446
1054.22	0.00021492
1062.77	0.000203489
1071.33	0.000219658
1079.89	0.000191585
1088.45	0.000124764
1097	8.04996e-05
1105.56	5.42262e-05
1114.12	3.94353e-05
1122.68	3.06134e-05
1131.23	2.3692e-05
1139.79	1.91412e-05
1148.35	1.7676e-05
1156.91	1.68404e-05
1165.46	1.91013e-05
1174.02	2.20851e-05
1182.58	2.66886e-05
1191.14	3.56968e-05
1199.69	4.2313e-05
1208.25	4.87095e-05
1216.81	4.92499e-05
1225.37	4.37491e-05
1233.93	3.75065e-05
1242.48	3.28371e-05
1251.04	3.28503e-05
1259.6	3.47542e-05
1268.16	3.69707e-05
1276.71	3.87301e-05
1285.27	3.66647e-05
1293.83	3.35895e-05
1302.39	2.77766e-05
1310.94	2.60101e-05
1319.5	2.41371e-05
1328.06	2.68391e-05
1336.62	3.27082e-05
1345.17	3.45667e-05
1353.73	3.45071e-05
1362.29	3.4868e-05
1370.85	4.96023e-05
1379.4	7.48379e-05
1387.96	8.70867e-05
1396.52	7.5528e-05
1405.08	5.05101e-05
1413.64	3.05848e-05
1422.19	2.39557e-05
1430.75	2.63155e-05
1439.31	3.24668e-05
1447.87	4.60491e-05
1456.42	5.61793e-05
1464.98	6.76939e-05
1473.54	6.23648e-05
1482.1	4.95689e-05
1490.65	3.36549e-05
1499.21	1.78349e-05
1507.77	9.23142e-06
1516.33	5.89661e-06
1524.88	4.43892e-06
1533.44	3.94898e-06
1542	5.02487e-06
1550.56	3.19419e-06
1559.11	3.15314e-06
1567.67	2.92988e-06
1576.23	6.78619e-06
1584.79	2.28845e-06
1593.35	1.74989e-06
1601.9	2.11791e-06
1610.46	2.1241e-06
1619.02	1.89919e-06
1627.58	1.9588e-06
1636.13	1.7734e-06
1644.69	1.64382e-06
1653.25	6.90731e-06
1661.81	1.25326e-06
1670.36	1.31449e-06
1678.92	2.12805e-06
1687.48	1.28954e-06
1696.04	5.23329e-06
1704.59	1.94551e-06
1713.15	1.8444e-06
1721.71	1.68035e-06
1730.27	1.17809e-06
1738.83	1.57991e-06
1747.38	1.78649e-06
1755.94	1.52098e-06
1764.5	1.15277e-06
1773.06	1.29609e-06
1781.61	1.66611e-06
1790.17	1.17423e-06
1798.73	1.63412e-06
1807.29	1.48417e-06
1815.84	1.0651e-06
1824.4	8.80773e-07
1832.96	1.30259e-06
1841.52	1.27961e-06
1850.07	1.20138e-06
1858.63	1.50488e-06
1867.19	1.29652e-06
1875.75	1.55421e-06
1884.3	1.49554e-06
1892.86	1.69855e-06
1901.42	1.19552e-06
1909.98	1.55069e-06
1918.54	1.3625e-06
1927.09	2.04805e-06
1935.65	1.61843e-06
1944.21	1.73258e-06
1952.77	1.02661e-06
1961.32	1.33446e-06
1969.88	1.856e-06
1978.44	1.81732e-06
1987	1.49675e-06
1995.55	1.45669e-06
2004.11	1.85335e-06
2012.67	2.23683e-06
2021.23	2.63547e-06
2029.78	3.18802e-06
2038.34	3.17127e-06
2046.9	2.61266e-06
2055.46	2.47045e-06
2064.01	1.53638e-06
2072.57	1.30396e-06
2081.13	1.63367e-06
2089.69	1.01634e-06
2098.25	1.42875e-06
2106.8	1.78175e-06
2115.36	1.09535e-06
2123.92	1.13063e-06
2132.48	4.2005e-07
2141.03	9.28474e-07
2149.59	1.25744e-06
2158.15	9.69263e-07
2166.71	1.70182e-06
2175.26	1.6859e-06
2183.82	2.38253e-06
2192.38	1.66992e-06
2200.94	1.84372e-06
2209.49	1.85941e-06
2218.05	1.51141e-06
2226.61	1.32373e-06
2235.17	9.17156e-07
2243.72	1.32751e-06
2252.28	1.35775e-06
2260.84	2.20063e-06
2269.4	1.84625e-06
2277.96	1.74289e-06
2286.51	2.2692e-06
2295.07	1.95987e-06
2303.63	2.27835e-06
2312.19	2.18591e-06
2320.74	3.1814e-06
2329.3	2.49375e-06
2337.86	2.68248e-06
2346.42	2.56403e-06
2354.97	2.04029e-06
2363.53	2.80087e-06
2372.09	2.87228e-06
2380.65	2.24599e-06
2389.2	3.39359e-06
2397.76	2.51217e-06
2406.32	3.41385e-06
2414.88	3.34303e-06
2423.44	3.59643e-06
2431.99	3.61135e-06
2440.55	3.30422e-06
2449.11	2.51193e-06
2457.67	2.42491e-06
2466.22	1.74473e-06
2474.78	1.63874e-06
2483.34	2.42058e-06
2491.9	1.40579e-06
2500.45	2.1896e-06
2509.01	2.34149e-06
2517.57	2.20905e-06
2526.13	1.32907e-06
2534.68	2.41862e-06
2543.24	2.35308e-06
2551.8	2.66372e-06
2560.36	2.73929e-06
2568.91	2.69108e-06
2577.47	2.90263e-06
2586.03	2.82018e-06
2594.59	3.23117e-06
2603.15	3.06106e-06
2611.7	4.19268e-06
2620.26	4.74803e-06
2628.82	4.79619e-06
2637.38	5.19823e-06
2645.93	5.06977e-06
2654.49	6.55095e-06
2663.05	7.40465e-06
2671.61	7.39271e-06
2680.16	7.82072e-06
2688.72	7.91497e-06
2697.28	9.46388e-06
2705.84	8.84486e-06
2714.39	1.02349e-05
2722.95	1.1355e-05
2731.51	1.32783e-05
2740.07	1.57353e-05
2748.62	1.72317e-05
2757.18	1.72472e-05
2765.74	1.79477e-05
2774.3	1.91808e-05
2782.86	1.97938e-05
2791.41	2.22816e-05
2799.97	2.2587e-05
2808.53	2.50136e-05
2817.09	2.68408e-05
2825.64	3.27835e-05
2834.2	4.4808e-05
2842.76	6.77892e-05
2851.32	0.000104877
2859.87	0.000151075
2868.43	0.000216205
2876.99	0.000307799
2885.55	0.000334341
2894.1	0.000331717
2902.66	0.000276333
2911.22	0.000286161
2919.78	0.000322435
2928.34	0.00037717
2936.89	0.000442827
2945.45	0.000457495
2954.01	0.000455107
2962.57	0.000477355
2971.12	0.000472509
2979.68	0.000391084
2988.24	0.00019921
2996.8	7.95022e-05
3005.35	3.26807e-05
3013.91	1.58863e-05
3022.47	1.08e-05
3031.03	1.0124e-05
3039.58	8.6265e-06
3048.14	8.75456e-06
3056.7	8.46468e-06
3065.26	7.2829e-06
3073.81	6.36615e-06
3082.37	6.54013e-06
3090.93	4.9749e-06
3099.49	3.33534e-06
3108.05	4.66086e-06
3116.6	3.92775e-06
3125.16	3.50288e-06
3133.72	3.90675e-06
3142.28	4.44156e-06
3150.83	3.02732e-06
3159.39	3.7182e-06
3167.95	2.82123e-06
3176.51	3.76944e-06
3185.06	4.66897e-06
3193.62	4.35883e-06
3202.18	4.72339e-06
3210.74	4.345e-06
3219.29	3.84892e-06
3227.85	3.76812e-06
3236.41	1.51122e-06
3244.97	1.13715e-06
3253.52	2.15993e-06
3262.08	3.92712e-07
3270.64	1.02309e-06
3279.2	1.10468e-06
3287.76	1.15719e-06
3296.31	2.33084e-06
3304.87	5.61915e-07
3313.43	1.62203e-06
3321.99	2.73637e-06
3330.54	1.79399e-06
3339.1	1.86333e-06
3347.66	6.98944e-08
3356.22	1.59935e-06
3364.77	2.14624e-06
3373.33	2.12679e-06
3381.89	1.1744e-06
3390.45	1.75475e-06
3399	2.22541e-07
3407.56	2.13096e-06
3416.12	1.85238e-06
3424.68	2.17685e-06
3433.23	8.87376e-07
3441.79	3.23777e-06
3450.35	3.12632e-06
3458.91	2.92888e-06
3467.47	2.40287e-06
3476.02	2.21282e-06
3484.58	4.23846e-06
3493.14	3.29404e-06
3501.7	2.75742e-06
3510.25	5.00142e-06
3518.81	3.33643e-06
3527.37	2.38546e-06
3535.93	2.18812e-06
3544.48	3.59851e-06
3553.04	1.36331e-06
3561.6	1.69474e-06
3570.16	2.71087e-06
3578.71	2.18672e-06
3587.27	1.83451e-06
3595.83	1.05204e-06
3604.39	3.22039e-06
3612.95	3.07574e-06
3621.5	4.69276e-06
3630.06	8.33532e-06
3638.62	1.44503e-05
3647.18	3.03942e-05
3655.73	5.05833e-05
3664.29	6.70903e-05
3672.85	7.88774e-05
3681.41	6.33739e-05
3689.96	3.7504e-05
3698.52	1.56533e-05
3707.08	6.93937e-06
3715.64	4.9988e-06
3724.19	3.89077e-06
3732.75	4.29065e-06
3741.31	3.39558e-06
3749.87	4.19844e-06
3758.42	3.58141e-06
3766.98	3.38545e-06
3775.54	2.66694e-06
3784.1	2.64475e-06
3792.66	2.99748e-06
3801.21	5.2236e-06
3809.77	4.35112e-06
3818.33	4.16644e-06
3826.89	3.57779e-06
3835.44	5.38219e-06
3844	4.09713e-06
3852.56	4.79069e-06
3861.12	4.89359e-06
3869.67	5.99227e-06
3878.23	4.31071e-06
3886.79	3.11368e-06
3895.35	3.37566e-06
3903.9	3.14119e-06
3912.46	2.32976e-06
3921.02	1.65918e-06
3929.58	2.91883e-06
3938.13	3.23978e-06
3946.69	1.33436e-06
3955.25	2.57105e-06
3963.81	2.48768e-06
3972.37	2.01084e-06
