Infrared Spectrum: 1-Butanol
Formula: C H3 C H2 C H2 C H2 O H
CAS: 71-36-3
State: gas
Melting point: -89.53 C
Boiling point: 117.25 C
Class: IUPAC A
Instrument: IFS66V (Bruker)
Instrument parameters: KBr Beam splitter; MCT Detector; Multipass cell
Sampling: 1 L/min Flow
Resolution: 0.2410
Temperature: 23 C
Pressure: 101.3 kPa
Origin: NIST, Anayltical Chemistry Division, 301-975-3108
cm-1	(micromol/mol)-1m-1 (base 10)
575.048	-1.1546e-06
583.606	4.01915e-06
592.163	5.82194e-06
600.721	6.45465e-06
609.279	4.24849e-06
617.836	2.58003e-06
626.394	4.8546e-06
634.951	4.83387e-06
643.509	1.74419e-06
652.067	4.57244e-06
660.624	4.21842e-06
669.182	2.53074e-06
677.74	2.29723e-06
686.297	4.89234e-06
694.855	2.84857e-06
703.412	2.09976e-06
711.97	4.48554e-06
720.528	5.04762e-06
729.085	6.99465e-06
737.643	9.83122e-06
746.201	8.48043e-06
754.758	8.47804e-06
763.316	6.22876e-06
771.873	4.30875e-06
780.431	4.67455e-06
788.989	4.9171e-06
797.546	6.03059e-06
806.104	8.32678e-06
814.662	9.41318e-06
823.219	1.09031e-05
831.777	1.61623e-05
840.334	2.4492e-05
848.892	2.52844e-05
857.45	2.25867e-05
866.007	1.44595e-05
874.565	1.06689e-05
883.123	9.71458e-06
891.68	1.17738e-05
900.238	1.33233e-05
908.795	1.54846e-05
917.353	1.44112e-05
925.911	2.05944e-05
934.468	3.40258e-05
943.026	4.85267e-05
951.584	5.53183e-05
960.141	5.27953e-05
968.699	4.32914e-05
977.256	4.05978e-05
985.814	4.65343e-05
994.372	5.64432e-05
1002.93	6.18128e-05
1011.49	7.86074e-05
1020.04	0.000106242
1028.6	0.000136235
1037.16	0.000190217
1045.72	0.00020259
1054.28	0.00021427
1062.83	0.000203689
1071.39	0.000219721
1079.95	0.000191693
1088.51	0.000124026
1097.06	8.1003e-05
1105.62	5.37375e-05
1114.18	3.9208e-05
1122.74	3.0385e-05
1131.29	2.36769e-05
1139.85	1.917e-05
1148.41	1.75949e-05
1156.97	1.6793e-05
1165.52	1.907e-05
1174.08	2.22225e-05
1182.64	2.74387e-05
1191.2	3.53631e-05
1199.75	4.22693e-05
1208.31	4.8643e-05
1216.87	4.91061e-05
1225.43	4.38137e-05
1233.99	3.66538e-05
1242.54	3.29392e-05
1251.1	3.22941e-05
1259.66	3.48368e-05
1268.22	3.70453e-05
1276.77	3.87419e-05
1285.33	3.69099e-05
1293.89	3.31094e-05
1302.45	2.79358e-05
1311	2.54425e-05
1319.56	2.4417e-05
1328.12	2.67912e-05
1336.68	3.26252e-05
1345.23	3.42405e-05
1353.79	3.43501e-05
1362.35	3.52845e-05
1370.91	5.00701e-05
1379.46	7.50358e-05
1388.02	8.72258e-05
1396.58	7.51639e-05
1405.14	5.03515e-05
1413.7	3.05552e-05
1422.25	2.41154e-05
1430.81	2.61964e-05
1439.37	3.2558e-05
1447.93	4.57348e-05
1456.48	5.63032e-05
1465.04	6.71623e-05
1473.6	6.1052e-05
1482.16	4.93735e-05
1490.71	3.37873e-05
1499.27	1.76428e-05
1507.83	9.21485e-06
1516.39	5.70844e-06
1524.94	4.28225e-06
1533.5	4.01897e-06
1542.06	5.05533e-06
1550.62	2.87072e-06
1559.18	3.17691e-06
1567.73	2.88791e-06
1576.29	5.39849e-06
1584.85	2.42165e-06
1593.41	1.83348e-06
1601.96	2.03691e-06
1610.52	2.11099e-06
1619.08	1.92598e-06
1627.64	2.18079e-06
1636.19	1.72275e-06
1644.75	1.49019e-06
1653.31	6.09924e-06
1661.87	1.57756e-06
1670.42	1.6272e-06
1678.98	1.97819e-06
1687.54	1.5473e-06
1696.1	4.46149e-06
1704.65	2.00087e-06
1713.21	1.82433e-06
1721.77	1.51912e-06
1730.33	1.13582e-06
1738.89	1.451e-06
1747.44	1.53633e-06
1756	1.5849e-06
1764.56	1.53823e-06
1773.12	1.57517e-06
1781.67	1.4616e-06
1790.23	1.39004e-06
1798.79	1.62925e-06
1807.35	1.39655e-06
1815.9	1.03453e-06
1824.46	9.98462e-07
1833.02	1.20994e-06
1841.58	1.22342e-06
1850.13	1.24897e-06
1858.69	1.28613e-06
1867.25	1.4305e-06
1875.81	1.44264e-06
1884.36	1.27213e-06
1892.92	1.53472e-06
1901.48	1.22115e-06
1910.04	1.52245e-06
1918.6	1.81964e-06
1927.15	1.84652e-06
1935.71	1.64011e-06
1944.27	1.45224e-06
1952.83	1.15123e-06
1961.38	1.53385e-06
1969.94	1.74398e-06
1978.5	1.80193e-06
1987.06	1.56607e-06
1995.61	1.53353e-06
2004.17	1.95446e-06
2012.73	2.25414e-06
2021.29	2.7648e-06
2029.84	3.14557e-06
2038.4	3.38697e-06
2046.96	2.90179e-06
2055.52	2.38228e-06
2064.08	1.65914e-06
2072.63	1.3895e-06
2081.19	1.52459e-06
2089.75	1.2751e-06
2098.31	1.38899e-06
2106.86	1.24887e-06
2115.42	1.29629e-06
2123.98	1.04491e-06
2132.54	6.66845e-07
2141.09	7.56265e-07
2149.65	9.04734e-07
2158.21	1.25831e-06
2166.77	1.55243e-06
2175.32	1.53103e-06
2183.88	1.99377e-06
2192.44	1.83521e-06
2201	1.85543e-06
2209.55	1.71844e-06
2218.11	1.37357e-06
2226.67	1.45559e-06
2235.23	1.37733e-06
2243.79	1.36252e-06
2252.34	1.57823e-06
2260.9	1.79003e-06
2269.46	1.8204e-06
2278.02	2.06071e-06
2286.57	2.36556e-06
2295.13	2.31817e-06
2303.69	2.34481e-06
2312.25	2.32938e-06
2320.8	3.12089e-06
2329.36	2.54859e-06
2337.92	3.08792e-06
2346.48	2.25418e-06
2355.03	2.17155e-06
2363.59	2.32911e-06
2372.15	2.75103e-06
2380.71	2.62327e-06
2389.26	3.18204e-06
2397.82	2.75932e-06
2406.38	3.46664e-06
2414.94	3.48016e-06
2423.5	3.5128e-06
2432.05	3.33969e-06
2440.61	3.06167e-06
2449.17	2.2714e-06
2457.73	2.17638e-06
2466.28	1.82963e-06
2474.84	1.73431e-06
2483.4	2.03401e-06
2491.96	1.80791e-06
2500.51	2.13287e-06
2509.07	2.15071e-06
2517.63	2.16118e-06
2526.19	1.75442e-06
2534.74	2.35906e-06
2543.3	2.23983e-06
2551.86	2.60183e-06
2560.42	2.44725e-06
2568.98	2.75336e-06
2577.53	3.10083e-06
2586.09	2.77426e-06
2594.65	3.22537e-06
2603.21	3.51771e-06
2611.76	4.13126e-06
2620.32	4.42622e-06
2628.88	4.94345e-06
2637.44	4.76283e-06
2645.99	5.23696e-06
2654.55	6.3832e-06
2663.11	7.14996e-06
2671.67	7.52259e-06
2680.22	7.95364e-06
2688.78	8.04349e-06
2697.34	9.1449e-06
2705.9	9.18132e-06
2714.45	1.02769e-05
2723.01	1.15063e-05
2731.57	1.29739e-05
2740.13	1.53094e-05
2748.69	1.73193e-05
2757.24	1.73724e-05
2765.8	1.82184e-05
2774.36	1.90124e-05
2782.92	2.03914e-05
2791.47	2.24897e-05
2800.03	2.28369e-05
2808.59	2.469e-05
2817.15	2.65417e-05
2825.7	3.23682e-05
2834.26	4.55238e-05
2842.82	6.8394e-05
2851.38	0.000105088
2859.93	0.000152016
2868.49	0.000215496
2877.05	0.000308796
2885.61	0.000335974
2894.16	0.000331206
2902.72	0.000276427
2911.28	0.000286088
2919.84	0.000322673
2928.4	0.000377937
2936.95	0.000443808
2945.51	0.000458675
2954.07	0.00045552
2962.63	0.000478075
2971.18	0.000471172
2979.74	0.000390601
2988.3	0.000197492
2996.86	7.89326e-05
3005.41	3.24806e-05
3013.97	1.60236e-05
3022.53	1.08865e-05
3031.09	9.40099e-06
3039.64	8.73347e-06
3048.2	8.8888e-06
3056.76	8.38541e-06
3065.32	7.73364e-06
3073.88	5.78066e-06
3082.43	5.57343e-06
3090.99	4.99634e-06
3099.55	4.08964e-06
3108.11	4.50031e-06
3116.66	4.29699e-06
3125.22	3.63939e-06
3133.78	3.73336e-06
3142.34	3.85295e-06
3150.89	3.4482e-06
3159.45	3.72219e-06
3168.01	3.48166e-06
3176.57	4.17287e-06
3185.12	4.18264e-06
3193.68	4.11263e-06
3202.24	4.24377e-06
3210.8	4.02977e-06
3219.35	2.94772e-06
3227.91	2.99364e-06
3236.47	1.66018e-06
3245.03	1.29849e-06
3253.59	1.99079e-06
3262.14	1.45731e-06
3270.7	1.30676e-06
3279.26	1.03513e-06
3287.82	1.22548e-06
3296.37	1.56198e-06
3304.93	6.92786e-07
3313.49	1.90187e-06
3322.05	2.11851e-06
3330.6	1.61525e-06
3339.16	2.06409e-06
3347.72	9.79522e-07
3356.28	1.06889e-06
3364.83	2.60745e-06
3373.39	1.93929e-06
3381.95	1.74647e-06
3390.51	1.66123e-06
3399.06	1.74137e-06
3407.62	1.82439e-06
3416.18	1.84411e-06
3424.74	1.8847e-06
3433.3	1.49769e-06
3441.85	3.48962e-06
3450.41	2.44198e-06
3458.97	2.95569e-06
3467.53	2.83128e-06
3476.08	2.69062e-06
3484.64	3.45871e-06
3493.2	3.55722e-06
3501.76	2.438e-06
3510.31	3.46814e-06
3518.87	2.61343e-06
3527.43	2.72121e-06
3535.99	2.04319e-06
3544.54	3.03973e-06
3553.1	2.02808e-06
3561.66	1.86124e-06
3570.22	2.3695e-06
3578.78	2.10409e-06
3587.33	1.59666e-06
3595.89	1.74081e-06
3604.45	3.41879e-06
3613.01	3.48089e-06
3621.56	4.68018e-06
3630.12	8.80031e-06
3638.68	1.46721e-05
3647.24	3.02591e-05
3655.79	5.01614e-05
3664.35	6.72855e-05
3672.91	7.88791e-05
3681.47	6.34082e-05
3690.02	3.77857e-05
3698.58	1.5115e-05
3707.14	6.99637e-06
3715.7	4.91754e-06
3724.25	4.06346e-06
3732.81	4.08551e-06
3741.37	3.96105e-06
3749.93	3.74962e-06
3758.49	3.52899e-06
3767.04	3.33711e-06
3775.6	2.93369e-06
3784.16	2.53609e-06
3792.72	4.26087e-06
3801.27	5.43054e-06
3809.83	4.02979e-06
3818.39	4.21385e-06
3826.95	3.69755e-06
3835.5	4.98308e-06
3844.06	3.82745e-06
3852.62	5.09473e-06
3861.18	4.83866e-06
3869.73	5.24436e-06
3878.29	4.58153e-06
3886.85	3.76373e-06
3895.41	3.72909e-06
3903.96	3.35302e-06
3912.52	2.93408e-06
3921.08	1.83485e-06
3929.64	2.82247e-06
3938.2	2.72435e-06
3946.75	2.21486e-06
3955.31	2.71739e-06
3963.87	2.39238e-06
3972.43	2.2256e-06
