Infrared Spectrum: 1-Butanol
Formula: C H3 C H2 C H2 C H2 O H
CAS: 71-36-3
State: gas
Melting point: -89.53 C
Boiling point: 117.25 C
Class: IUPAC A
Instrument: IFS66V (Bruker)
Instrument parameters: KBr Beam splitter; MCT Detector; Multipass cell
Sampling: 1 L/min Flow
Resolution: 0.2410
Temperature: 23 C
Pressure: 101.3 kPa
Origin: NIST, Anayltical Chemistry Division, 301-975-3108
cm-1	(micromol/mol)-1m-1 (base 10)
575.048	-1.39233e-06
583.606	3.4511e-06
592.163	5.59779e-06
600.721	6.83121e-06
609.279	4.39038e-06
617.836	2.15083e-06
626.394	4.89178e-06
634.951	4.77938e-06
643.509	1.47113e-06
652.067	4.84125e-06
660.624	4.52837e-06
669.182	2.40456e-06
677.74	2.23313e-06
686.297	5.06127e-06
694.855	2.86636e-06
703.412	2.00191e-06
711.97	4.7499e-06
720.528	5.15508e-06
729.085	6.95009e-06
737.643	9.99155e-06
746.201	8.4696e-06
754.758	8.7558e-06
763.316	6.12133e-06
771.873	4.19277e-06
780.431	4.61131e-06
788.989	4.8225e-06
797.546	6.15319e-06
806.104	8.36938e-06
814.662	9.55183e-06
823.219	1.11102e-05
831.777	1.62656e-05
840.334	2.45408e-05
848.892	2.53759e-05
857.45	2.26423e-05
866.007	1.44353e-05
874.565	1.06085e-05
883.123	9.89571e-06
891.68	1.1789e-05
900.238	1.33229e-05
908.795	1.54959e-05
917.353	1.4334e-05
925.911	2.04895e-05
934.468	3.39281e-05
943.026	4.84177e-05
951.584	5.52179e-05
960.141	5.27094e-05
968.699	4.32665e-05
977.256	4.04794e-05
985.814	4.65394e-05
994.372	5.63462e-05
1002.93	6.18157e-05
1011.49	7.85246e-05
1020.04	0.000106118
1028.6	0.000136301
1037.16	0.000189992
1045.72	0.000202901
1054.28	0.000214478
1062.83	0.000203611
1071.39	0.000219892
1079.95	0.000191538
1088.51	0.000124095
1097.06	8.08523e-05
1105.62	5.38598e-05
1114.18	3.91834e-05
1122.74	3.05101e-05
1131.29	2.3713e-05
1139.85	1.91953e-05
1148.41	1.77484e-05
1156.97	1.67372e-05
1165.52	1.91389e-05
1174.08	2.21701e-05
1182.64	2.7365e-05
1191.2	3.53818e-05
1199.75	4.22531e-05
1208.31	4.86912e-05
1216.87	4.90593e-05
1225.43	4.3876e-05
1233.99	3.66445e-05
1242.54	3.29435e-05
1251.1	3.22779e-05
1259.66	3.4894e-05
1268.22	3.7093e-05
1276.77	3.87619e-05
1285.33	3.69162e-05
1293.89	3.31497e-05
1302.45	2.78932e-05
1311	2.5451e-05
1319.56	2.4407e-05
1328.12	2.67322e-05
1336.68	3.25831e-05
1345.23	3.42091e-05
1353.79	3.44022e-05
1362.35	3.53271e-05
1370.91	5.00443e-05
1379.46	7.50255e-05
1388.02	8.72619e-05
1396.58	7.50826e-05
1405.14	5.02561e-05
1413.7	3.06215e-05
1422.25	2.40163e-05
1430.81	2.61928e-05
1439.37	3.25497e-05
1447.93	4.58547e-05
1456.48	5.64939e-05
1465.04	6.71998e-05
1473.6	6.11684e-05
1482.16	4.92842e-05
1490.71	3.3861e-05
1499.27	1.7616e-05
1507.83	9.22047e-06
1516.39	5.65567e-06
1524.94	4.30463e-06
1533.5	4.07557e-06
1542.06	5.13016e-06
1550.62	2.88024e-06
1559.18	3.15213e-06
1567.73	2.84391e-06
1576.29	5.44151e-06
1584.85	2.52322e-06
1593.41	1.86056e-06
1601.96	2.06196e-06
1610.52	2.17123e-06
1619.08	1.96455e-06
1627.64	2.18754e-06
1636.19	1.67198e-06
1644.75	1.43712e-06
1653.31	6.56368e-06
1661.87	1.54263e-06
1670.42	1.64422e-06
1678.98	2.02238e-06
1687.54	1.5011e-06
1696.1	4.34552e-06
1704.65	1.98783e-06
1713.21	1.85704e-06
1721.77	1.5662e-06
1730.33	1.08501e-06
1738.89	1.52384e-06
1747.44	1.54927e-06
1756	1.56656e-06
1764.56	1.50331e-06
1773.12	1.53974e-06
1781.67	1.45004e-06
1790.23	1.29954e-06
1798.79	1.66903e-06
1807.35	1.36727e-06
1815.9	1.02236e-06
1824.46	8.78117e-07
1833.02	1.21771e-06
1841.58	1.20483e-06
1850.13	1.24002e-06
1858.69	1.30898e-06
1867.25	1.44883e-06
1875.81	1.378e-06
1884.36	1.34448e-06
1892.92	1.52783e-06
1901.48	1.16702e-06
1910.04	1.47847e-06
1918.6	1.81695e-06
1927.15	1.81167e-06
1935.71	1.65808e-06
1944.27	1.48219e-06
1952.83	1.11923e-06
1961.38	1.50039e-06
1969.94	1.75056e-06
1978.5	1.86451e-06
1987.06	1.54445e-06
1995.61	1.58849e-06
2004.17	1.96888e-06
2012.73	2.21829e-06
2021.29	2.75386e-06
2029.84	3.16182e-06
2038.4	3.34104e-06
2046.96	2.9802e-06
2055.52	2.33979e-06
2064.08	1.66849e-06
2072.63	1.37086e-06
2081.19	1.51315e-06
2089.75	1.24135e-06
2098.31	1.3677e-06
2106.86	1.21628e-06
2115.42	1.23433e-06
2123.98	1.09277e-06
2132.54	6.37807e-07
2141.09	7.50765e-07
2149.65	8.83952e-07
2158.21	1.28016e-06
2166.77	1.54947e-06
2175.32	1.52429e-06
2183.88	2.00748e-06
2192.44	1.83764e-06
2201	1.91766e-06
2209.55	1.75821e-06
2218.11	1.42137e-06
2226.67	1.394e-06
2235.23	1.34958e-06
2243.79	1.33185e-06
2252.34	1.47632e-06
2260.9	1.81412e-06
2269.46	1.81718e-06
2278.02	2.11087e-06
2286.57	2.36199e-06
2295.13	2.31428e-06
2303.69	2.35465e-06
2312.25	2.28808e-06
2320.8	3.15651e-06
2329.36	2.49845e-06
2337.92	3.02766e-06
2346.48	2.25124e-06
2355.03	2.1671e-06
2363.59	2.40392e-06
2372.15	2.68928e-06
2380.71	2.64941e-06
2389.26	3.2481e-06
2397.82	2.76662e-06
2406.38	3.51562e-06
2414.94	3.44089e-06
2423.5	3.51598e-06
2432.05	3.35435e-06
2440.61	3.15784e-06
2449.17	2.26307e-06
2457.73	2.25415e-06
2466.28	1.75537e-06
2474.84	1.70963e-06
2483.4	2.07581e-06
2491.96	1.71292e-06
2500.51	2.152e-06
2509.07	2.18751e-06
2517.63	2.17657e-06
2526.19	1.63612e-06
2534.74	2.26106e-06
2543.3	2.26217e-06
2551.86	2.52188e-06
2560.42	2.44779e-06
2568.98	2.73791e-06
2577.53	3.07258e-06
2586.09	2.70005e-06
2594.65	3.17962e-06
2603.21	3.43414e-06
2611.76	4.25365e-06
2620.32	4.41308e-06
2628.88	4.979e-06
2637.44	4.72907e-06
2645.99	5.27346e-06
2654.55	6.50527e-06
2663.11	7.18633e-06
2671.67	7.58747e-06
2680.22	7.9677e-06
2688.78	8.01813e-06
2697.34	9.16662e-06
2705.9	9.16643e-06
2714.45	1.02655e-05
2723.01	1.15009e-05
2731.57	1.30616e-05
2740.13	1.52668e-05
2748.69	1.73352e-05
2757.24	1.73319e-05
2765.8	1.82372e-05
2774.36	1.90611e-05
2782.92	2.02454e-05
2791.47	2.24331e-05
2800.03	2.27279e-05
2808.59	2.49462e-05
2817.15	2.65626e-05
2825.7	3.2456e-05
2834.26	4.55821e-05
2842.82	6.84087e-05
2851.38	0.000105028
2859.93	0.000152
2868.49	0.000215498
2877.05	0.000308759
2885.61	0.000335885
2894.16	0.000331232
2902.72	0.000276315
2911.28	0.00028607
2919.84	0.000322945
2928.4	0.000377914
2936.95	0.000443822
2945.51	0.000458442
2954.07	0.000455429
2962.63	0.000477823
2971.18	0.000471228
2979.74	0.000390359
2988.3	0.00019752
2996.86	7.88893e-05
3005.41	3.22869e-05
3013.97	1.60922e-05
3022.53	1.08704e-05
3031.09	9.295e-06
3039.64	8.7344e-06
3048.2	8.8066e-06
3056.76	8.42721e-06
3065.32	7.70182e-06
3073.88	5.70648e-06
3082.43	5.60762e-06
3090.99	5.09937e-06
3099.55	3.99104e-06
3108.11	4.56446e-06
3116.66	4.328e-06
3125.22	3.66185e-06
3133.78	3.68824e-06
3142.34	3.83565e-06
3150.89	3.22176e-06
3159.45	3.61137e-06
3168.01	3.40265e-06
3176.57	4.11589e-06
3185.12	4.14264e-06
3193.68	4.17859e-06
3202.24	4.34e-06
3210.8	3.94124e-06
3219.35	2.87125e-06
3227.91	2.92062e-06
3236.47	1.73636e-06
3245.03	1.26986e-06
3253.59	2.24902e-06
3262.14	1.27489e-06
3270.7	1.24972e-06
3279.26	1.04438e-06
3287.82	1.09137e-06
3296.37	1.71789e-06
3304.93	4.69564e-07
3313.49	2.08193e-06
3322.05	2.22352e-06
3330.6	1.69547e-06
3339.16	2.0673e-06
3347.72	8.87287e-07
3356.28	9.12463e-07
3364.83	2.71584e-06
3373.39	2.00536e-06
3381.95	1.71872e-06
3390.51	1.63972e-06
3399.06	1.79533e-06
3407.62	1.77369e-06
3416.18	1.89265e-06
3424.74	1.73642e-06
3433.3	1.30413e-06
3441.85	3.63085e-06
3450.41	2.27938e-06
3458.97	3.01013e-06
3467.53	2.6063e-06
3476.08	2.75232e-06
3484.64	3.48676e-06
3493.2	3.54045e-06
3501.76	2.51183e-06
3510.31	3.71459e-06
3518.87	2.75028e-06
3527.43	2.61349e-06
3535.99	2.06136e-06
3544.54	3.12933e-06
3553.1	2.01402e-06
3561.66	1.8263e-06
3570.22	2.47e-06
3578.78	1.99223e-06
3587.33	1.5466e-06
3595.89	1.70333e-06
3604.45	3.53727e-06
3613.01	3.45589e-06
3621.56	4.66728e-06
3630.12	9.10922e-06
3638.68	1.46982e-05
3647.24	3.01844e-05
3655.79	5.02796e-05
3664.35	6.72267e-05
3672.91	7.88377e-05
3681.47	6.35647e-05
3690.02	3.76616e-05
3698.58	1.50647e-05
3707.14	7.0044e-06
3715.7	4.86515e-06
3724.25	4.09202e-06
3732.81	4.08983e-06
3741.37	3.9477e-06
3749.93	3.69322e-06
3758.49	3.48996e-06
3767.04	3.40933e-06
3775.6	2.88896e-06
3784.16	2.4768e-06
3792.72	4.39852e-06
3801.27	5.43298e-06
3809.83	4.04541e-06
3818.39	4.27297e-06
3826.95	3.64253e-06
3835.5	4.94204e-06
3844.06	3.76851e-06
3852.62	5.16631e-06
3861.18	4.84982e-06
3869.73	5.14326e-06
3878.29	4.56211e-06
3886.85	3.71009e-06
3895.41	3.71546e-06
3903.96	3.32155e-06
3912.52	3.11453e-06
3921.08	1.82957e-06
3929.64	2.84361e-06
3938.2	2.81668e-06
3946.75	2.29011e-06
3955.31	2.92748e-06
3963.87	2.25837e-06
3972.43	2.20675e-06
