Infrared Spectrum: 1-Butanol
Formula: C H3 C H2 C H2 C H2 O H
CAS: 71-36-3
State: gas
Melting point: -89.53 C
Boiling point: 117.25 C
Class: IUPAC A
Instrument: IFS66V (Bruker)
Instrument parameters: KBr Beam splitter; MCT Detector; Multipass cell
Sampling: 1 L/min Flow
Resolution: 0.1250
Temperature: 23 C
Pressure: 101.3 kPa
Origin: NIST, Anayltical Chemistry Division, 301-975-3108
cm-1	(micromol/mol)-1m-1 (base 10)
574.988	-2.31168e-06
583.546	-1.72015e-06
592.103	7.07931e-06
600.661	5.67106e-06
609.219	7.81292e-06
617.776	1.38513e-06
626.334	4.22664e-06
634.891	4.96689e-06
643.449	1.22635e-07
652.007	3.50945e-06
660.564	4.48899e-06
669.122	3.39903e-06
677.68	2.26496e-06
686.237	5.08902e-06
694.795	2.69986e-06
703.352	1.78628e-06
711.91	4.42428e-06
720.468	5.66896e-06
729.025	7.30179e-06
737.583	9.80675e-06
746.141	7.7336e-06
754.698	8.5398e-06
763.256	6.3583e-06
771.813	3.85141e-06
780.371	5.2431e-06
788.929	4.20327e-06
797.486	7.52771e-06
806.044	7.58578e-06
814.602	1.00848e-05
823.159	1.16655e-05
831.717	1.71276e-05
840.274	2.42668e-05
848.832	2.52152e-05
857.39	2.32261e-05
865.947	1.42453e-05
874.505	1.1551e-05
883.063	1.01712e-05
891.62	1.20218e-05
900.178	1.29677e-05
908.735	1.56906e-05
917.293	1.43895e-05
925.851	2.02621e-05
934.408	3.41214e-05
942.966	4.79893e-05
951.524	5.53912e-05
960.081	5.24172e-05
968.639	4.31185e-05
977.196	4.04138e-05
985.754	4.6091e-05
994.312	5.64105e-05
1002.87	6.19446e-05
1011.43	7.85065e-05
1019.98	0.000105635
1028.54	0.000136224
1037.1	0.000190234
1045.66	0.000202441
1054.22	0.000214899
1062.77	0.000203487
1071.33	0.000219657
1079.89	0.000191603
1088.45	0.000124763
1097	8.05211e-05
1105.56	5.42239e-05
1114.12	3.94403e-05
1122.68	3.06129e-05
1131.23	2.36987e-05
1139.79	1.91399e-05
1148.35	1.76723e-05
1156.91	1.68446e-05
1165.46	1.90947e-05
1174.02	2.20898e-05
1182.58	2.66962e-05
1191.14	3.56957e-05
1199.69	4.2312e-05
1208.25	4.86993e-05
1216.81	4.92459e-05
1225.37	4.37481e-05
1233.93	3.74917e-05
1242.48	3.28369e-05
1251.04	3.28395e-05
1259.6	3.47571e-05
1268.16	3.6972e-05
1276.71	3.8731e-05
1285.27	3.6668e-05
1293.83	3.3585e-05
1302.39	2.77814e-05
1310.94	2.60039e-05
1319.5	2.41417e-05
1328.06	2.68449e-05
1336.62	3.27147e-05
1345.17	3.45637e-05
1353.73	3.44951e-05
1362.29	3.48717e-05
1370.85	4.96009e-05
1379.4	7.48394e-05
1387.96	8.70876e-05
1396.52	7.55308e-05
1405.08	5.05153e-05
1413.64	3.05867e-05
1422.19	2.39565e-05
1430.75	2.63146e-05
1439.31	3.24719e-05
1447.87	4.60411e-05
1456.42	5.61751e-05
1464.98	6.76865e-05
1473.54	6.23463e-05
1482.1	4.95678e-05
1490.65	3.36575e-05
1499.21	1.78326e-05
1507.77	9.22989e-06
1516.33	5.89599e-06
1524.88	4.4345e-06
1533.44	3.94911e-06
1542	5.02572e-06
1550.56	3.18751e-06
1559.11	3.15224e-06
1567.67	2.93203e-06
1576.23	6.77077e-06
1584.79	2.28832e-06
1593.35	1.7506e-06
1601.9	2.11547e-06
1610.46	2.12413e-06
1619.02	1.89311e-06
1627.58	1.96587e-06
1636.13	1.77425e-06
1644.69	1.63945e-06
1653.25	6.8827e-06
1661.81	1.26545e-06
1670.36	1.31859e-06
1678.92	2.13132e-06
1687.48	1.28979e-06
1696.04	5.23905e-06
1704.59	1.95255e-06
1713.15	1.84431e-06
1721.71	1.68041e-06
1730.27	1.18247e-06
1738.83	1.57454e-06
1747.38	1.78423e-06
1755.94	1.52689e-06
1764.5	1.16061e-06
1773.06	1.29984e-06
1781.61	1.66203e-06
1790.17	1.18273e-06
1798.73	1.63376e-06
1807.29	1.4836e-06
1815.84	1.07142e-06
1824.4	8.86296e-07
1832.96	1.30091e-06
1841.52	1.27815e-06
1850.07	1.20214e-06
1858.63	1.49677e-06
1867.19	1.30054e-06
1875.75	1.55574e-06
1884.3	1.49107e-06
1892.86	1.69349e-06
1901.42	1.1994e-06
1909.98	1.55219e-06
1918.54	1.36731e-06
1927.09	2.04424e-06
1935.65	1.6196e-06
1944.21	1.72737e-06
1952.77	1.02957e-06
1961.32	1.34416e-06
1969.88	1.85212e-06
1978.44	1.81536e-06
1987	1.50434e-06
1995.55	1.45873e-06
2004.11	1.85697e-06
2012.67	2.24027e-06
2021.23	2.63428e-06
2029.78	3.18883e-06
2038.34	3.17005e-06
2046.9	2.61748e-06
2055.46	2.46779e-06
2064.01	1.53876e-06
2072.57	1.30488e-06
2081.13	1.63521e-06
2089.69	1.01993e-06
2098.25	1.42843e-06
2106.8	1.77744e-06
2115.36	1.097e-06
2123.92	1.12996e-06
2132.48	4.25101e-07
2141.03	9.27841e-07
2149.59	1.25172e-06
2158.15	9.76944e-07
2166.71	1.70012e-06
2175.26	1.68416e-06
2183.82	2.37571e-06
2192.38	1.6765e-06
2200.94	1.84191e-06
2209.49	1.85877e-06
2218.05	1.50701e-06
2226.61	1.32899e-06
2235.17	9.23735e-07
2243.72	1.32941e-06
2252.28	1.36535e-06
2260.84	2.19178e-06
2269.4	1.84685e-06
2277.96	1.74638e-06
2286.51	2.27083e-06
2295.07	1.96986e-06
2303.63	2.28223e-06
2312.19	2.18528e-06
2320.74	3.17534e-06
2329.3	2.49785e-06
2337.86	2.6969e-06
2346.42	2.55879e-06
2354.97	2.04064e-06
2363.53	2.79343e-06
2372.09	2.87498e-06
2380.65	2.25598e-06
2389.2	3.3895e-06
2397.76	2.52396e-06
2406.32	3.41438e-06
2414.88	3.34821e-06
2423.44	3.59585e-06
2431.99	3.60919e-06
2440.55	3.2963e-06
2449.11	2.50515e-06
2457.67	2.41585e-06
2466.22	1.7492e-06
2474.78	1.63606e-06
2483.34	2.41752e-06
2491.9	1.41969e-06
2500.45	2.19184e-06
2509.01	2.34027e-06
2517.57	2.20761e-06
2526.13	1.33607e-06
2534.68	2.41672e-06
2543.24	2.34513e-06
2551.8	2.66775e-06
2560.36	2.73651e-06
2568.91	2.69408e-06
2577.47	2.9038e-06
2586.03	2.82428e-06
2594.59	3.22988e-06
2603.15	3.07333e-06
2611.7	4.1847e-06
2620.26	4.74368e-06
2628.82	4.7988e-06
2637.38	5.18768e-06
2645.93	5.06994e-06
2654.49	6.54795e-06
2663.05	7.40194e-06
2671.61	7.39438e-06
2680.16	7.82672e-06
2688.72	7.91644e-06
2697.28	9.45622e-06
2705.84	8.84785e-06
2714.39	1.02408e-05
2722.95	1.13596e-05
2731.51	1.32766e-05
2740.07	1.57303e-05
2748.62	1.72317e-05
2757.18	1.72521e-05
2765.74	1.79493e-05
2774.3	1.9179e-05
2782.86	1.98042e-05
2791.41	2.22891e-05
2799.97	2.26013e-05
2808.53	2.50071e-05
2817.09	2.68353e-05
2825.64	3.27846e-05
2834.2	4.48217e-05
2842.76	6.77957e-05
2851.32	0.000104881
2859.87	0.000151083
2868.43	0.000216194
2876.99	0.000307803
2885.55	0.000334365
2894.1	0.000331722
2902.66	0.000276327
2911.22	0.000286161
2919.78	0.000322444
2928.34	0.000377177
2936.89	0.000442844
2945.45	0.000457529
2954.01	0.000455118
2962.57	0.000477376
2971.12	0.000472506
2979.68	0.000391092
2988.24	0.000199195
2996.8	7.9511e-05
3005.35	3.26829e-05
3013.91	1.58892e-05
3022.47	1.08018e-05
3031.03	1.01139e-05
3039.58	8.61852e-06
3048.14	8.75708e-06
3056.7	8.45935e-06
3065.26	7.28339e-06
3073.81	6.35226e-06
3082.37	6.52119e-06
3090.93	4.97456e-06
3099.49	3.34873e-06
3108.05	4.66049e-06
3116.6	3.93584e-06
3125.16	3.50083e-06
3133.72	3.90801e-06
3142.28	4.4184e-06
3150.83	3.04325e-06
3159.39	3.71595e-06
3167.95	2.83231e-06
3176.51	3.77681e-06
3185.06	4.66071e-06
3193.62	4.36342e-06
3202.18	4.71593e-06
3210.74	4.34473e-06
3219.29	3.83788e-06
3227.85	3.76041e-06
3236.41	1.51355e-06
3244.97	1.14654e-06
3253.52	2.14306e-06
3262.08	4.10158e-07
3270.64	1.01963e-06
3279.2	1.09828e-06
3287.76	1.15927e-06
3296.31	2.32174e-06
3304.87	5.61301e-07
3313.43	1.61871e-06
3321.99	2.71939e-06
3330.54	1.78975e-06
3339.1	1.86196e-06
3347.66	8.83924e-08
3356.22	1.59947e-06
3364.77	2.14796e-06
3373.33	2.12284e-06
3381.89	1.18749e-06
3390.45	1.76048e-06
3399	2.40191e-07
3407.56	2.12239e-06
3416.12	1.85686e-06
3424.68	2.18077e-06
3433.23	8.9904e-07
3441.79	3.24193e-06
3450.35	3.12489e-06
3458.91	2.91842e-06
3467.47	2.40687e-06
3476.02	2.21802e-06
3484.58	4.21496e-06
3493.14	3.30112e-06
3501.7	2.74322e-06
3510.25	4.96951e-06
3518.81	3.31874e-06
3527.37	2.39179e-06
3535.93	2.18749e-06
3544.48	3.59136e-06
3553.04	1.3719e-06
3561.6	1.69216e-06
3570.16	2.70148e-06
3578.71	2.18691e-06
3587.27	1.82712e-06
3595.83	1.06805e-06
3604.39	3.22958e-06
3612.95	3.08971e-06
3621.5	4.6892e-06
3630.06	8.3358e-06
3638.62	1.4448e-05
3647.18	3.03954e-05
3655.73	5.05666e-05
3664.29	6.70925e-05
3672.85	7.88839e-05
3681.41	6.33768e-05
3689.96	3.75203e-05
3698.52	1.56453e-05
3707.08	6.93992e-06
3715.64	5.00062e-06
3724.19	3.89325e-06
3732.75	4.29323e-06
3741.31	3.40361e-06
3749.87	4.18853e-06
3758.42	3.57818e-06
3766.98	3.38895e-06
3775.54	2.66862e-06
3784.1	2.64458e-06
3792.66	3.01778e-06
3801.21	5.20616e-06
3809.77	4.35359e-06
3818.33	4.17894e-06
3826.89	3.58299e-06
3835.44	5.37645e-06
3844	4.10414e-06
3852.56	4.79338e-06
3861.12	4.88785e-06
3869.67	5.98042e-06
3878.23	4.30788e-06
3886.79	3.12602e-06
3895.35	3.38357e-06
3903.9	3.13888e-06
3912.46	2.33552e-06
3921.02	1.65673e-06
3929.58	2.91518e-06
3938.13	3.23085e-06
3946.69	1.33841e-06
3955.25	2.56378e-06
3963.81	2.49783e-06
3972.37	2.01058e-06
