Infrared Spectrum: 1-Butanol
Formula: C H3 C H2 C H2 C H2 O H
CAS: 71-36-3
State: gas
Melting point: -89.53 C
Boiling point: 117.25 C
Class: IUPAC A
Instrument: IFS66V (Bruker)
Instrument parameters: KBr Beam splitter; MCT Detector; Multipass cell
Sampling: 1 L/min Flow
Resolution: 0.9640
Temperature: 23 C
Pressure: 101.3 kPa
Origin: NIST, Anayltical Chemistry Division, 301-975-3108
cm-1	(micromol/mol)-1m-1 (base 10)
575.169	1.98408e-06
583.847	3.66184e-06
592.525	5.29663e-06
601.203	3.95167e-06
609.882	3.2499e-06
618.56	4.05595e-06
627.238	5.37085e-06
635.916	3.76767e-06
644.594	3.46595e-06
653.272	3.16272e-06
661.951	4.08965e-06
670.629	3.50544e-06
679.307	2.86636e-06
687.985	4.01197e-06
696.663	3.73214e-06
705.341	3.26801e-06
714.019	3.84555e-06
722.698	5.09674e-06
731.376	7.9557e-06
740.054	1.07852e-05
748.732	9.218e-06
757.41	7.19312e-06
766.088	5.18415e-06
774.767	4.44312e-06
783.445	5.10834e-06
792.123	5.65072e-06
800.801	6.26788e-06
809.479	7.93669e-06
818.157	8.84939e-06
826.835	1.30482e-05
835.514	2.04475e-05
844.192	2.37863e-05
852.87	2.53607e-05
861.548	1.85754e-05
870.226	1.23366e-05
878.904	1.03745e-05
887.583	1.02944e-05
896.261	1.29817e-05
904.939	1.41143e-05
913.617	1.42223e-05
922.295	1.7682e-05
930.973	2.78894e-05
939.651	4.30948e-05
948.33	5.2981e-05
957.008	5.42983e-05
965.686	4.67637e-05
974.364	4.00123e-05
983.042	4.5507e-05
991.72	5.03548e-05
1000.4	6.08931e-05
1009.08	7.27158e-05
1017.75	9.74309e-05
1026.43	0.000128638
1035.11	0.0001766
1043.79	0.000201695
1052.47	0.000208048
1061.15	0.000204552
1069.82	0.000221117
1078.5	0.000198966
1087.18	0.000134628
1095.86	8.55204e-05
1104.54	5.69485e-05
1113.21	4.09729e-05
1121.89	3.09853e-05
1130.57	2.39337e-05
1139.25	1.92701e-05
1147.93	1.71899e-05
1156.61	1.70944e-05
1165.28	1.85759e-05
1173.96	2.21922e-05
1182.64	2.74556e-05
1191.32	3.52053e-05
1200	4.22806e-05
1208.67	4.87549e-05
1217.35	4.87914e-05
1226.03	4.35385e-05
1234.71	3.62458e-05
1243.39	3.26223e-05
1252.07	3.26039e-05
1260.74	3.49111e-05
1269.42	3.71039e-05
1278.1	3.8578e-05
1286.78	3.65375e-05
1295.46	3.24445e-05
1304.13	2.72533e-05
1312.81	2.51165e-05
1321.49	2.47864e-05
1330.17	2.85394e-05
1338.85	3.31797e-05
1347.52	3.42168e-05
1356.2	3.43121e-05
1364.88	3.79039e-05
1373.56	5.87873e-05
1382.24	7.81914e-05
1390.92	9.15001e-05
1399.59	6.77446e-05
1408.27	4.09665e-05
1416.95	2.7267e-05
1425.63	2.42096e-05
1434.31	2.78773e-05
1442.98	3.76169e-05
1451.66	4.95579e-05
1460.34	5.99696e-05
1469.02	6.14098e-05
1477.7	5.73874e-05
1486.38	4.13231e-05
1495.05	2.4459e-05
1503.73	1.24164e-05
1512.41	7.01974e-06
1521.09	5.85023e-06
1529.77	3.58803e-06
1538.44	4.06418e-06
1547.12	3.26398e-06
1555.8	2.91096e-06
1564.48	2.76103e-06
1573.16	2.63738e-06
1581.83	2.30308e-06
1590.51	2.27529e-06
1599.19	2.14607e-06
1607.87	2.13879e-06
1616.55	3.69097e-06
1625.23	1.93919e-06
1633.9	1.43825e-06
1642.58	1.86165e-06
1651.26	1.85478e-06
1659.94	1.74814e-06
1668.62	1.85038e-06
1677.29	1.60738e-06
1685.97	1.63355e-06
1694.65	1.76076e-06
1703.33	1.60426e-06
1712.01	1.52137e-06
1720.69	1.4071e-06
1729.36	1.38918e-06
1738.04	1.47338e-06
1746.72	1.66705e-06
1755.4	1.45715e-06
1764.08	1.32722e-06
1772.75	2.35462e-06
1781.43	1.34185e-06
1790.11	1.6026e-06
1798.79	1.5802e-06
1807.47	1.50946e-06
1816.15	1.15523e-06
1824.82	1.3172e-06
1833.5	1.08825e-06
1842.18	1.22427e-06
1850.86	1.25767e-06
1859.54	1.44283e-06
1868.21	1.65742e-06
1876.89	1.33543e-06
1885.57	1.20621e-06
1894.25	1.40372e-06
1902.93	1.49109e-06
1911.6	1.52403e-06
1920.28	1.53466e-06
1928.96	1.65312e-06
1937.64	1.30111e-06
1946.32	1.31246e-06
1955	1.49503e-06
1963.67	1.27803e-06
1972.35	1.62006e-06
1981.03	1.76479e-06
1989.71	1.74574e-06
1998.39	1.57553e-06
2007.06	1.89989e-06
2015.74	2.25327e-06
2024.42	3.01052e-06
2033.1	3.48588e-06
2041.78	3.43478e-06
2050.46	2.71128e-06
2059.13	2.178e-06
2067.81	1.70393e-06
2076.49	1.55568e-06
2085.17	1.7579e-06
2093.85	1.6208e-06
2102.52	1.43401e-06
2111.2	1.16395e-06
2119.88	9.77101e-07
2128.56	8.38471e-07
2137.24	8.78893e-07
2145.91	1.00811e-06
2154.59	1.15336e-06
2163.27	1.28626e-06
2171.95	1.54563e-06
2180.63	1.6256e-06
2189.31	1.75464e-06
2197.98	1.77131e-06
2206.66	1.74611e-06
2215.34	1.73562e-06
2224.02	1.45482e-06
2232.7	1.60874e-06
2241.37	1.67569e-06
2250.05	1.40848e-06
2258.73	1.61596e-06
2267.41	1.57135e-06
2276.09	2.17746e-06
2284.77	2.20068e-06
2293.44	2.07843e-06
2302.12	2.15245e-06
2310.8	2.39454e-06
2319.48	2.73285e-06
2328.16	2.91372e-06
2336.83	2.59193e-06
2345.51	2.88676e-06
2354.19	2.65593e-06
2362.87	3.024e-06
2371.55	2.61912e-06
2380.23	2.73144e-06
2388.9	2.85785e-06
2397.58	2.81891e-06
2406.26	3.39145e-06
2414.94	3.52553e-06
2423.62	3.49894e-06
2432.29	3.31778e-06
2440.97	3.05106e-06
2449.65	2.61538e-06
2458.33	2.10234e-06
2467.01	2.21651e-06
2475.68	2.12223e-06
2484.36	1.73372e-06
2493.04	2.17409e-06
2501.72	1.62501e-06
2510.4	2.01366e-06
2519.08	1.92106e-06
2527.75	1.95949e-06
2536.43	2.18067e-06
2545.11	2.31875e-06
2553.79	2.32728e-06
2562.47	2.39869e-06
2571.14	2.76785e-06
2579.82	2.88698e-06
2588.5	3.47813e-06
2597.18	3.75107e-06
2605.86	3.85235e-06
2614.54	4.19772e-06
2623.21	4.38003e-06
2631.89	4.67674e-06
2640.57	5.09584e-06
2649.25	5.91232e-06
2657.93	6.28243e-06
2666.6	7.25737e-06
2675.28	7.61327e-06
2683.96	8.39119e-06
2692.64	8.50107e-06
2701.32	8.99618e-06
2709.99	9.32376e-06
2718.67	1.04236e-05
2727.35	1.21286e-05
2736.03	1.4537e-05
2744.71	1.66063e-05
2753.39	1.76803e-05
2762.06	1.79039e-05
2770.74	1.87311e-05
2779.42	2.0067e-05
2788.1	2.19392e-05
2796.78	2.29112e-05
2805.45	2.36275e-05
2814.13	2.51012e-05
2822.81	2.98717e-05
2831.49	4.00566e-05
2840.17	6.0145e-05
2848.85	9.38724e-05
2857.52	0.000136934
2866.2	0.000196337
2874.88	0.00028083
2883.56	0.000330138
2892.24	0.000336272
2900.91	0.000282202
2909.59	0.000279244
2918.27	0.00031504
2926.95	0.000369206
2935.63	0.000432874
2944.31	0.000464439
2952.98	0.000452054
2961.66	0.000471709
2970.34	0.000487315
2979.02	0.000400942
2987.7	0.000210215
2996.37	8.31856e-05
3005.05	3.36523e-05
3013.73	1.62372e-05
3022.41	1.1291e-05
3031.09	9.92656e-06
3039.76	8.99105e-06
3048.44	9.00392e-06
3057.12	8.09811e-06
3065.8	7.28892e-06
3074.48	6.05762e-06
3083.16	5.07511e-06
3091.83	4.74298e-06
3100.51	4.80682e-06
3109.19	4.28246e-06
3117.87	4.10933e-06
3126.55	4.01084e-06
3135.22	4.15823e-06
3143.9	3.81357e-06
3152.58	3.87042e-06
3161.26	4.04431e-06
3169.94	4.16259e-06
3178.62	3.62034e-06
3187.29	4.19628e-06
3195.97	4.44272e-06
3204.65	4.44406e-06
3213.33	4.07019e-06
3222.01	2.85602e-06
3230.68	2.30102e-06
3239.36	1.49601e-06
3248.04	1.61632e-06
3256.72	1.68021e-06
3265.4	1.56763e-06
3274.07	1.10471e-06
3282.75	9.96551e-07
3291.43	9.59428e-07
3300.11	1.43989e-06
3308.79	1.45082e-06
3317.47	1.92916e-06
3326.14	1.46929e-06
3334.82	1.57743e-06
3343.5	1.23196e-06
3352.18	1.26077e-06
3360.86	1.36879e-06
3369.53	1.45418e-06
3378.21	1.39498e-06
3386.89	1.3063e-06
3395.57	1.52588e-06
3404.25	1.6809e-06
3412.93	1.89418e-06
3421.6	2.48751e-06
3430.28	2.94998e-06
3438.96	2.59976e-06
3447.64	2.58175e-06
3456.32	2.33458e-06
3464.99	2.98032e-06
3473.67	3.43716e-06
3482.35	3.45788e-06
3491.03	2.83988e-06
3499.71	2.5802e-06
3508.39	2.35303e-06
3517.06	2.39477e-06
3525.74	1.74693e-06
3534.42	2.49981e-06
3543.1	2.29023e-06
3551.78	2.08847e-06
3560.45	2.00482e-06
3569.13	2.11829e-06
3577.81	2.17998e-06
3586.49	2.17476e-06
3595.17	2.39467e-06
3603.84	2.63087e-06
3612.52	3.73561e-06
3621.2	5.0553e-06
3629.88	8.50041e-06
3638.56	1.44918e-05
3647.24	3.0088e-05
3655.91	4.99239e-05
3664.59	6.8159e-05
3673.27	7.80639e-05
3681.95	6.31443e-05
3690.63	3.53107e-05
3699.3	1.40181e-05
3707.98	6.70645e-06
3716.66	4.59723e-06
3725.34	4.03242e-06
3734.02	3.4992e-06
3742.7	3.58683e-06
3751.37	3.338e-06
3760.05	3.46718e-06
3768.73	3.07892e-06
3777.41	3.18694e-06
3786.09	3.14146e-06
3794.76	3.24187e-06
3803.44	3.53442e-06
3812.12	3.58098e-06
3820.8	4.63318e-06
3829.48	4.10595e-06
3838.16	5.6573e-06
3846.83	4.85003e-06
3855.51	5.25526e-06
3864.19	5.42912e-06
3872.87	4.97358e-06
3881.55	4.32431e-06
3890.22	3.5518e-06
3898.9	3.32748e-06
3907.58	3.0514e-06
3916.26	2.3575e-06
3924.94	2.39497e-06
3933.61	2.3975e-06
3942.29	2.51028e-06
3950.97	1.84143e-06
3959.65	2.06787e-06
3968.33	2.29034e-06
