Infrared Spectrum: 1-Butanol
Formula: C H3 C H2 C H2 C H2 O H
CAS: 71-36-3
State: gas
Melting point: -89.53 C
Boiling point: 117.25 C
Class: IUPAC A
Instrument: IFS66V (Bruker)
Instrument parameters: KBr Beam splitter; MCT Detector; Multipass cell
Sampling: 1 L/min Flow
Resolution: 1.9290
Temperature: 23 C
Pressure: 101.3 kPa
Origin: NIST, Anayltical Chemistry Division, 301-975-3108
cm-1	(micromol/mol)-1m-1 (base 10)
574.687	1.27779e-06
583.365	4.34246e-06
592.043	5.50644e-06
600.721	4.45929e-06
609.4	3.83407e-06
618.078	3.49089e-06
626.756	4.80677e-06
635.434	4.13251e-06
644.112	2.4842e-06
652.79	3.39043e-06
661.469	4.18e-06
670.147	3.79925e-06
678.825	3.85347e-06
687.503	3.49837e-06
696.181	4.19078e-06
704.859	3.50043e-06
713.537	3.53894e-06
722.216	4.47342e-06
730.894	7.51991e-06
739.572	1.01005e-05
748.25	9.52779e-06
756.928	7.40497e-06
765.606	5.03781e-06
774.285	4.37193e-06
782.963	4.69457e-06
791.641	5.09933e-06
800.319	6.45447e-06
808.997	7.72563e-06
817.675	8.49873e-06
826.353	1.29338e-05
835.032	1.94823e-05
843.71	2.36046e-05
852.388	2.55984e-05
861.066	1.89756e-05
869.744	1.23678e-05
878.422	1.01307e-05
887.101	1.01841e-05
895.779	1.26974e-05
904.457	1.40678e-05
913.135	1.44419e-05
921.813	1.74986e-05
930.491	2.71018e-05
939.169	4.20308e-05
947.848	5.26657e-05
956.526	5.47319e-05
965.204	4.73046e-05
973.882	4.00981e-05
982.56	4.51177e-05
991.238	5.03473e-05
999.917	6.10812e-05
1008.59	7.22674e-05
1017.27	9.58768e-05
1025.95	0.000127538
1034.63	0.000172849
1043.31	0.000202684
1051.99	0.000206567
1060.66	0.000204885
1069.34	0.00022135
1078.02	0.000200119
1086.7	0.000138398
1095.38	8.72739e-05
1104.05	5.79879e-05
1112.73	4.15655e-05
1121.41	3.15309e-05
1130.09	2.41768e-05
1138.77	1.95019e-05
1147.45	1.72117e-05
1156.12	1.69703e-05
1164.8	1.83793e-05
1173.48	2.18371e-05
1182.16	2.72748e-05
1190.84	3.45988e-05
1199.51	4.19341e-05
1208.19	4.83719e-05
1216.87	4.89085e-05
1225.55	4.37486e-05
1234.23	3.66571e-05
1242.9	3.27277e-05
1251.58	3.23708e-05
1260.26	3.4701e-05
1268.94	3.69859e-05
1277.62	3.88665e-05
1286.3	3.65878e-05
1294.97	3.26514e-05
1303.65	2.76235e-05
1312.33	2.50836e-05
1321.01	2.47512e-05
1329.69	2.8295e-05
1338.36	3.31674e-05
1347.04	3.41559e-05
1355.72	3.38679e-05
1364.4	3.74397e-05
1373.08	5.70384e-05
1381.76	7.7393e-05
1390.43	9.1519e-05
1399.11	6.91556e-05
1407.79	4.22493e-05
1416.47	2.7634e-05
1425.15	2.41796e-05
1433.82	2.77452e-05
1442.5	3.66235e-05
1451.18	4.89267e-05
1459.86	5.90193e-05
1468.54	6.21739e-05
1477.22	5.77745e-05
1485.89	4.22879e-05
1494.57	2.51773e-05
1503.25	1.28032e-05
1511.93	7.16459e-06
1520.61	5.5333e-06
1529.28	3.8851e-06
1537.96	3.42544e-06
1546.64	3.25169e-06
1555.32	2.79127e-06
1564	2.75255e-06
1572.67	2.44106e-06
1581.35	2.35857e-06
1590.03	2.37955e-06
1598.71	2.11604e-06
1607.39	2.25052e-06
1616.07	2.91581e-06
1624.74	1.78693e-06
1633.42	1.49698e-06
1642.1	1.73923e-06
1650.78	1.61252e-06
1659.46	1.79688e-06
1668.13	1.62546e-06
1676.81	1.53037e-06
1685.49	2.4677e-06
1694.17	1.34874e-06
1702.85	1.68203e-06
1711.53	1.50204e-06
1720.2	1.30536e-06
1728.88	1.45577e-06
1737.56	1.64177e-06
1746.24	1.40377e-06
1754.92	1.24805e-06
1763.59	1.25363e-06
1772.27	2.04874e-06
1780.95	1.50297e-06
1789.63	1.33602e-06
1798.31	1.47886e-06
1806.98	1.45299e-06
1815.66	1.21787e-06
1824.34	1.19699e-06
1833.02	1.0911e-06
1841.7	1.2348e-06
1850.38	1.28876e-06
1859.05	1.33025e-06
1867.73	1.66401e-06
1876.41	1.37215e-06
1885.09	1.22326e-06
1893.77	1.47943e-06
1902.44	1.44041e-06
1911.12	1.62086e-06
1919.8	1.53961e-06
1928.48	1.57848e-06
1937.16	1.18336e-06
1945.84	1.36386e-06
1954.51	1.4789e-06
1963.19	1.39628e-06
1971.87	1.71592e-06
1980.55	1.86997e-06
1989.23	1.76557e-06
1997.9	1.53574e-06
2006.58	1.96082e-06
2015.26	2.20748e-06
2023.94	3.06549e-06
2032.62	3.39204e-06
2041.3	3.45171e-06
2049.97	2.79153e-06
2058.65	2.13649e-06
2067.33	1.79005e-06
2076.01	1.61555e-06
2084.69	1.81814e-06
2093.36	1.59746e-06
2102.04	1.51249e-06
2110.72	1.34812e-06
2119.4	8.59269e-07
2128.08	7.89346e-07
2136.75	7.30686e-07
2145.43	1.04204e-06
2154.11	9.89826e-07
2162.79	1.2919e-06
2171.47	1.56639e-06
2180.15	1.55953e-06
2188.82	1.69449e-06
2197.5	1.74859e-06
2206.18	1.7891e-06
2214.86	1.69472e-06
2223.54	1.40896e-06
2232.21	1.4925e-06
2240.89	1.69799e-06
2249.57	1.47892e-06
2258.25	1.62521e-06
2266.93	1.63991e-06
2275.61	2.19142e-06
2284.28	2.13442e-06
2292.96	2.13774e-06
2301.64	2.22408e-06
2310.32	2.55048e-06
2319	2.60928e-06
2327.67	2.76017e-06
2336.35	3.03135e-06
2345.03	3.00175e-06
2353.71	2.45079e-06
2362.39	2.91582e-06
2371.06	2.58703e-06
2379.74	2.79033e-06
2388.42	2.87385e-06
2397.1	2.84578e-06
2405.78	3.39418e-06
2414.46	3.53297e-06
2423.13	3.4987e-06
2431.81	3.1087e-06
2440.49	2.95917e-06
2449.17	2.51634e-06
2457.85	2.14987e-06
2466.52	2.1845e-06
2475.2	2.15759e-06
2483.88	1.70628e-06
2492.56	1.9122e-06
2501.24	1.90317e-06
2509.92	2.13181e-06
2518.59	1.78966e-06
2527.27	2.01374e-06
2535.95	1.9189e-06
2544.63	2.30746e-06
2553.31	2.21595e-06
2561.98	2.28534e-06
2570.66	2.76077e-06
2579.34	2.96835e-06
2588.02	3.33332e-06
2596.7	3.71736e-06
2605.38	3.85319e-06
2614.05	4.35892e-06
2622.73	4.28902e-06
2631.41	4.72987e-06
2640.09	4.87125e-06
2648.77	5.61973e-06
2657.44	6.05212e-06
2666.12	6.87582e-06
2674.8	7.48011e-06
2683.48	8.41634e-06
2692.16	8.59614e-06
2700.83	8.84937e-06
2709.51	9.29813e-06
2718.19	1.00349e-05
2726.87	1.21287e-05
2735.55	1.4314e-05
2744.23	1.66225e-05
2752.9	1.78138e-05
2761.58	1.78071e-05
2770.26	1.86909e-05
2778.94	1.98069e-05
2787.62	2.20321e-05
2796.29	2.2679e-05
2804.97	2.35893e-05
2813.65	2.49071e-05
2822.33	2.94227e-05
2831.01	3.94085e-05
2839.69	5.85596e-05
2848.36	9.13518e-05
2857.04	0.000133815
2865.72	0.000192483
2874.4	0.000274861
2883.08	0.000331355
2891.75	0.000336028
2900.43	0.000284871
2909.11	0.00027778
2917.79	0.000312767
2926.47	0.000365135
2935.14	0.000429332
2943.82	0.000464961
2952.5	0.000451506
2961.18	0.000469179
2969.86	0.000496867
2978.54	0.000406254
2987.21	0.000220717
2995.89	8.72608e-05
3004.57	3.50265e-05
3013.25	1.68198e-05
3021.93	1.18384e-05
3030.6	1.00375e-05
3039.28	8.85383e-06
3047.96	8.99085e-06
3056.64	8.44348e-06
3065.32	7.54144e-06
3074	6.09806e-06
3082.67	5.40634e-06
3091.35	4.89376e-06
3100.03	4.57177e-06
3108.71	4.58688e-06
3117.39	4.37538e-06
3126.06	3.98788e-06
3134.74	4.28634e-06
3143.42	3.53636e-06
3152.1	3.92459e-06
3160.78	3.70098e-06
3169.46	4.17961e-06
3178.13	3.5519e-06
3186.81	3.93791e-06
3195.49	4.51637e-06
3204.17	4.1508e-06
3212.85	3.92834e-06
3221.52	3.359e-06
3230.2	2.13415e-06
3238.88	1.22498e-06
3247.56	1.99909e-06
3256.24	1.6071e-06
3264.91	1.49704e-06
3273.59	1.01312e-06
3282.27	7.45931e-07
3290.95	1.26576e-06
3299.63	1.30419e-06
3308.31	1.72033e-06
3316.98	1.37518e-06
3325.66	1.70018e-06
3334.34	1.64083e-06
3343.02	1.17836e-06
3351.7	1.0044e-06
3360.37	1.50667e-06
3369.05	1.12746e-06
3377.73	1.3209e-06
3386.41	1.15295e-06
3395.09	1.56706e-06
3403.77	1.42024e-06
3412.44	1.86123e-06
3421.12	2.73647e-06
3429.8	2.2738e-06
3438.48	2.7504e-06
3447.16	2.30932e-06
3455.83	2.05057e-06
3464.51	2.79839e-06
3473.19	2.8095e-06
3481.87	3.41322e-06
3490.55	2.96741e-06
3499.22	2.30081e-06
3507.9	2.07626e-06
3516.58	2.49888e-06
3525.26	2.14934e-06
3533.94	2.89661e-06
3542.62	2.22043e-06
3551.29	2.03595e-06
3559.97	2.6135e-06
3568.65	2.01776e-06
3577.33	1.61152e-06
3586.01	2.05193e-06
3594.68	2.37097e-06
3603.36	2.95112e-06
3612.04	3.89891e-06
3620.72	4.63762e-06
3629.4	8.32973e-06
3638.08	1.41596e-05
3646.75	2.87031e-05
3655.43	4.85322e-05
3664.11	6.67188e-05
3672.79	7.91786e-05
3681.47	6.3106e-05
3690.14	3.7261e-05
3698.82	1.46221e-05
3707.5	6.63994e-06
3716.18	4.94166e-06
3724.86	4.09322e-06
3733.54	3.32534e-06
3742.21	3.91708e-06
3750.89	2.43673e-06
3759.57	3.70509e-06
3768.25	3.06047e-06
3776.93	3.19169e-06
3785.6	3.44612e-06
3794.28	3.17211e-06
3802.96	3.42598e-06
3811.64	3.55052e-06
3820.32	3.9932e-06
3828.99	3.79383e-06
3837.67	5.67552e-06
3846.35	4.58922e-06
3855.03	5.33922e-06
3863.71	5.03843e-06
3872.39	5.0366e-06
3881.06	4.48907e-06
3889.74	3.84769e-06
3898.42	2.88263e-06
3907.1	2.78129e-06
3915.78	2.67742e-06
3924.45	2.40639e-06
3933.13	2.55037e-06
3941.81	1.89155e-06
3950.49	2.00125e-06
3959.17	2.51213e-06
3967.85	2.1985e-06
