Infrared Spectrum: 1-Butanol
Formula: C H3 C H2 C H2 C H2 O H
CAS: 71-36-3
State: gas
Melting point: -89.53 C
Boiling point: 117.25 C
Class: IUPAC A
Instrument: IFS66V (Bruker)
Instrument parameters: KBr Beam splitter; MCT Detector; Multipass cell
Sampling: 1 L/min Flow
Resolution: 0.4820
Temperature: 23 C
Pressure: 101.3 kPa
Origin: NIST, Anayltical Chemistry Division, 301-975-3108
cm-1	(micromol/mol)-1m-1 (base 10)
574.928	1.20252e-06
583.606	4.26541e-06
592.284	6.09554e-06
600.962	4.68905e-06
609.641	3.46533e-06
618.319	4.1276e-06
626.997	4.63426e-06
635.675	3.8417e-06
644.353	3.04143e-06
653.031	2.08708e-06
661.71	3.48476e-06
670.388	3.2495e-06
679.066	3.36165e-06
687.744	3.37083e-06
696.422	4.09778e-06
705.1	3.13102e-06
713.778	3.86073e-06
722.457	4.93843e-06
731.135	7.5882e-06
739.813	1.03501e-05
748.491	9.617e-06
757.169	7.58671e-06
765.847	4.81521e-06
774.526	4.64846e-06
783.204	5.19048e-06
791.882	5.6652e-06
800.56	6.09451e-06
809.238	8.26093e-06
817.916	8.72001e-06
826.594	1.30944e-05
835.273	2.0085e-05
843.951	2.35848e-05
852.629	2.55272e-05
861.307	1.87006e-05
869.985	1.25858e-05
878.663	1.03269e-05
887.342	1.02797e-05
896.02	1.32621e-05
904.698	1.43618e-05
913.376	1.45155e-05
922.054	1.7416e-05
930.732	2.77188e-05
939.41	4.25819e-05
948.089	5.26191e-05
956.767	5.44268e-05
965.445	4.6972e-05
974.123	4.01836e-05
982.801	4.5215e-05
991.479	5.10853e-05
1000.16	6.10518e-05
1008.84	7.28033e-05
1017.51	9.67825e-05
1026.19	0.000128047
1034.87	0.000174264
1043.55	0.000201643
1052.23	0.000206898
1060.9	0.000204748
1069.58	0.000220621
1078.26	0.000199484
1086.94	0.00013662
1095.62	8.6799e-05
1104.3	5.76538e-05
1112.97	4.14983e-05
1121.65	3.12519e-05
1130.33	2.4109e-05
1139.01	1.92686e-05
1147.69	1.71452e-05
1156.36	1.73011e-05
1165.04	1.83623e-05
1173.72	2.21493e-05
1182.4	2.72485e-05
1191.08	3.51735e-05
1199.76	4.22386e-05
1208.43	4.8682e-05
1217.11	4.87148e-05
1225.79	4.36088e-05
1234.47	3.64961e-05
1243.15	3.27018e-05
1251.82	3.25316e-05
1260.5	3.47369e-05
1269.18	3.70866e-05
1277.86	3.86884e-05
1286.54	3.64548e-05
1295.21	3.26294e-05
1303.89	2.7622e-05
1312.57	2.52235e-05
1321.25	2.49219e-05
1329.93	2.864e-05
1338.61	3.31851e-05
1347.28	3.41252e-05
1355.96	3.40083e-05
1364.64	3.76595e-05
1373.32	5.78072e-05
1382	7.7396e-05
1390.67	9.12328e-05
1399.35	6.83463e-05
1408.03	4.1863e-05
1416.71	2.74126e-05
1425.39	2.42187e-05
1434.07	2.79204e-05
1442.74	3.7197e-05
1451.42	4.89968e-05
1460.1	5.94924e-05
1468.78	6.18063e-05
1477.46	5.74447e-05
1486.13	4.1817e-05
1494.81	2.48914e-05
1503.49	1.25885e-05
1512.17	7.58746e-06
1520.85	5.20978e-06
1529.52	3.70026e-06
1538.2	3.68537e-06
1546.88	3.29942e-06
1555.56	2.86414e-06
1564.24	2.68629e-06
1572.92	2.55093e-06
1581.59	2.40088e-06
1590.27	2.24783e-06
1598.95	2.09241e-06
1607.63	2.18058e-06
1616.31	2.9955e-06
1624.98	1.75823e-06
1633.66	1.49518e-06
1642.34	1.92859e-06
1651.02	1.83121e-06
1659.7	1.67219e-06
1668.38	1.75218e-06
1677.05	1.76041e-06
1685.73	1.66694e-06
1694.41	1.71088e-06
1703.09	1.73141e-06
1711.77	1.64615e-06
1720.44	1.44726e-06
1729.12	1.35463e-06
1737.8	1.632e-06
1746.48	1.50551e-06
1755.16	1.27487e-06
1763.84	1.2216e-06
1772.51	2.40576e-06
1781.19	1.2592e-06
1789.87	1.76336e-06
1798.55	1.45799e-06
1807.23	1.38365e-06
1815.9	1.10151e-06
1824.58	1.2172e-06
1833.26	1.24155e-06
1841.94	1.06911e-06
1850.62	1.3911e-06
1859.29	1.51225e-06
1867.97	1.763e-06
1876.65	1.32979e-06
1885.33	1.27097e-06
1894.01	1.76447e-06
1902.69	1.47221e-06
1911.36	1.62172e-06
1920.04	1.73003e-06
1928.72	1.64657e-06
1937.4	1.2224e-06
1946.08	1.33923e-06
1954.75	1.56854e-06
1963.43	1.25735e-06
1972.11	1.69247e-06
1980.79	1.79859e-06
1989.47	1.76381e-06
1998.15	1.55942e-06
2006.82	2.02034e-06
2015.5	2.2996e-06
2024.18	3.17021e-06
2032.86	3.26569e-06
2041.54	3.40662e-06
2050.21	2.75658e-06
2058.89	2.13824e-06
2067.57	1.83327e-06
2076.25	1.42337e-06
2084.93	1.56942e-06
2093.6	1.57279e-06
2102.28	1.5013e-06
2110.96	1.24805e-06
2119.64	1.03849e-06
2128.32	8.52969e-07
2137	7.7236e-07
2145.67	1.2095e-06
2154.35	1.06988e-06
2163.03	1.38805e-06
2171.71	1.69414e-06
2180.39	1.55261e-06
2189.06	1.87355e-06
2197.74	1.68362e-06
2206.42	1.71217e-06
2215.1	1.6533e-06
2223.78	1.41618e-06
2232.46	1.61542e-06
2241.13	1.74275e-06
2249.81	1.55364e-06
2258.49	1.59139e-06
2267.17	1.54593e-06
2275.85	2.35659e-06
2284.52	2.21476e-06
2293.2	2.07167e-06
2301.88	2.15226e-06
2310.56	2.45644e-06
2319.24	2.77496e-06
2327.92	2.52244e-06
2336.59	2.63249e-06
2345.27	2.74629e-06
2353.95	2.26231e-06
2362.63	3.41648e-06
2371.31	2.70724e-06
2379.98	2.67219e-06
2388.66	2.85056e-06
2397.34	2.78262e-06
2406.02	3.40196e-06
2414.7	3.59315e-06
2423.37	3.53968e-06
2432.05	3.30029e-06
2440.73	2.92703e-06
2449.41	2.58941e-06
2458.09	2.18987e-06
2466.77	2.41254e-06
2475.44	2.15971e-06
2484.12	1.85538e-06
2492.8	1.89417e-06
2501.48	1.62848e-06
2510.16	2.08827e-06
2518.83	1.82357e-06
2527.51	1.98747e-06
2536.19	2.00113e-06
2544.87	2.24885e-06
2553.55	2.41429e-06
2562.23	2.46011e-06
2570.9	2.6958e-06
2579.58	2.86115e-06
2588.26	3.52781e-06
2596.94	3.57265e-06
2605.62	3.90308e-06
2614.29	4.08292e-06
2622.97	4.24789e-06
2631.65	4.95367e-06
2640.33	4.79787e-06
2649.01	5.66743e-06
2657.68	6.25845e-06
2666.36	7.07794e-06
2675.04	7.6988e-06
2683.72	8.58163e-06
2692.4	8.67689e-06
2701.08	8.84055e-06
2709.75	9.3463e-06
2718.43	1.0316e-05
2727.11	1.19707e-05
2735.79	1.45326e-05
2744.47	1.66625e-05
2753.14	1.76725e-05
2761.82	1.79828e-05
2770.5	1.85679e-05
2779.18	2.0189e-05
2787.86	2.19062e-05
2796.54	2.2726e-05
2805.21	2.38143e-05
2813.89	2.51794e-05
2822.57	2.97747e-05
2831.25	3.99693e-05
2839.93	5.94679e-05
2848.6	9.31455e-05
2857.28	0.000135548
2865.96	0.000194063
2874.64	0.000277384
2883.32	0.000330582
2892	0.000335951
2900.67	0.000283544
2909.35	0.00027862
2918.03	0.000313831
2926.71	0.000366567
2935.39	0.000430436
2944.06	0.000464578
2952.74	0.000451435
2961.42	0.000469795
2970.1	0.0004904
2978.78	0.000401919
2987.45	0.000215911
2996.13	8.59826e-05
3004.81	3.47458e-05
3013.49	1.66083e-05
3022.17	1.18419e-05
3030.85	1.03136e-05
3039.52	8.74439e-06
3048.2	9.11923e-06
3056.88	8.29654e-06
3065.56	7.60164e-06
3074.24	6.0554e-06
3082.91	5.28793e-06
3091.59	4.97235e-06
3100.27	4.7367e-06
3108.95	4.28513e-06
3117.63	4.19127e-06
3126.31	4.09101e-06
3134.98	4.46783e-06
3143.66	3.67969e-06
3152.34	4.10321e-06
3161.02	3.95551e-06
3169.7	4.0895e-06
3178.37	3.51291e-06
3187.05	4.45925e-06
3195.73	4.57468e-06
3204.41	4.52643e-06
3213.09	4.01946e-06
3221.77	3.19789e-06
3230.44	1.87394e-06
3239.12	1.69341e-06
3247.8	1.98818e-06
3256.48	2.1713e-06
3265.16	1.9768e-06
3273.83	1.02097e-06
3282.51	5.60211e-07
3291.19	6.00425e-07
3299.87	1.37219e-06
3308.55	1.42877e-06
3317.22	1.27576e-06
3325.9	1.90939e-06
3334.58	1.3137e-06
3343.26	1.05804e-06
3351.94	1.06143e-06
3360.62	1.54991e-06
3369.29	1.09345e-06
3377.97	1.24382e-06
3386.65	1.29274e-06
3395.33	1.38624e-06
3404.01	1.62217e-06
3412.68	1.83385e-06
3421.36	3.09582e-06
3430.04	2.93102e-06
3438.72	2.3917e-06
3447.4	2.49269e-06
3456.08	1.86353e-06
3464.75	3.08007e-06
3473.43	3.00869e-06
3482.11	3.28131e-06
3490.79	2.86305e-06
3499.47	2.6156e-06
3508.14	2.4893e-06
3516.82	2.30544e-06
3525.5	1.52539e-06
3534.18	2.90216e-06
3542.86	2.52648e-06
3551.53	1.89522e-06
3560.21	2.27764e-06
3568.89	2.09357e-06
3577.57	1.72753e-06
3586.25	2.34633e-06
3594.93	2.2937e-06
3603.6	2.87492e-06
3612.28	3.73826e-06
3620.96	5.40861e-06
3629.64	8.90815e-06
3638.32	1.44351e-05
3646.99	2.96241e-05
3655.67	4.90489e-05
3664.35	6.72012e-05
3673.03	7.82082e-05
3681.71	6.26945e-05
3690.39	3.68061e-05
3699.06	1.43558e-05
3707.74	6.64164e-06
3716.42	4.80124e-06
3725.1	4.03918e-06
3733.78	3.68544e-06
3742.45	3.5606e-06
3751.13	3.19176e-06
3759.81	4.0429e-06
3768.49	3.25673e-06
3777.17	3.44072e-06
3785.85	3.30061e-06
3794.52	2.9451e-06
3803.2	3.58449e-06
3811.88	3.68965e-06
3820.56	4.40021e-06
3829.24	4.20834e-06
3837.91	6.79305e-06
3846.59	4.71306e-06
3855.27	4.99951e-06
3863.95	5.33537e-06
3872.63	5.28359e-06
3881.3	4.27918e-06
3889.98	3.77349e-06
3898.66	3.22265e-06
3907.34	3.06908e-06
3916.02	2.24445e-06
3924.7	2.4271e-06
3933.37	2.31577e-06
3942.05	2.08782e-06
3950.73	1.5363e-06
3959.41	2.27805e-06
3968.09	2.17505e-06
