Infrared Spectrum: 1-Butanol
Formula: C H3 C H2 C H2 C H2 O H
CAS: 71-36-3
State: gas
Melting point: -89.53 C
Boiling point: 117.25 C
Class: IUPAC A
Instrument: IFS66V (Bruker)
Instrument parameters: KBr Beam splitter; MCT Detector; Multipass cell
Sampling: 1 L/min Flow
Resolution: 0.4820
Temperature: 23 C
Pressure: 101.3 kPa
Origin: NIST, Anayltical Chemistry Division, 301-975-3108
cm-1	(micromol/mol)-1m-1 (base 10)
574.928	1.12846e-06
583.606	4.33192e-06
592.284	6.15686e-06
600.962	4.68022e-06
609.641	3.36691e-06
618.319	3.99501e-06
626.997	4.95057e-06
635.675	3.78648e-06
644.353	3.02385e-06
653.031	2.37854e-06
661.71	3.56242e-06
670.388	3.24983e-06
679.066	3.32902e-06
687.744	3.59034e-06
696.422	4.04345e-06
705.1	3.23125e-06
713.778	3.92506e-06
722.457	4.87826e-06
731.135	7.55706e-06
739.813	1.0428e-05
748.491	9.63795e-06
757.169	7.50084e-06
765.847	4.83751e-06
774.526	4.57794e-06
783.204	5.12219e-06
791.882	5.47723e-06
800.56	6.03293e-06
809.238	8.1361e-06
817.916	8.61108e-06
826.594	1.30617e-05
835.273	2.00298e-05
843.951	2.3666e-05
852.629	2.55699e-05
861.307	1.87009e-05
869.985	1.24906e-05
878.663	1.02576e-05
887.342	1.02722e-05
896.02	1.31352e-05
904.698	1.42555e-05
913.376	1.44139e-05
922.054	1.73769e-05
930.732	2.76073e-05
939.41	4.25979e-05
948.089	5.2666e-05
956.767	5.44895e-05
965.445	4.69785e-05
974.123	4.00847e-05
982.801	4.52383e-05
991.479	5.08479e-05
1000.16	6.10071e-05
1008.84	7.25894e-05
1017.51	9.66685e-05
1026.19	0.000128094
1034.87	0.000174502
1043.55	0.000202069
1052.23	0.000207118
1060.9	0.000204849
1069.58	0.000221268
1078.26	0.000200005
1086.94	0.000136668
1095.62	8.65825e-05
1104.3	5.74788e-05
1112.97	4.13464e-05
1121.65	3.11998e-05
1130.33	2.40296e-05
1139.01	1.92175e-05
1147.69	1.70663e-05
1156.36	1.72598e-05
1165.04	1.83075e-05
1173.72	2.2052e-05
1182.4	2.72954e-05
1191.08	3.50883e-05
1199.76	4.22429e-05
1208.43	4.87579e-05
1217.11	4.88188e-05
1225.79	4.36252e-05
1234.47	3.64591e-05
1243.15	3.26861e-05
1251.82	3.25415e-05
1260.5	3.47695e-05
1269.18	3.70837e-05
1277.86	3.87071e-05
1286.54	3.64707e-05
1295.21	3.25807e-05
1303.89	2.75375e-05
1312.57	2.5171e-05
1321.25	2.48437e-05
1329.93	2.85582e-05
1338.61	3.31489e-05
1347.28	3.40621e-05
1355.96	3.40166e-05
1364.64	3.76427e-05
1373.32	5.78527e-05
1382	7.75511e-05
1390.67	9.16076e-05
1399.35	6.85719e-05
1408.03	4.17438e-05
1416.71	2.73238e-05
1425.39	2.42e-05
1434.07	2.78452e-05
1442.74	3.71758e-05
1451.42	4.91462e-05
1460.1	5.95648e-05
1468.78	6.19132e-05
1477.46	5.76705e-05
1486.13	4.184e-05
1494.81	2.48585e-05
1503.49	1.25343e-05
1512.17	7.42114e-06
1520.85	5.3664e-06
1529.52	3.6368e-06
1538.2	3.59673e-06
1546.88	3.26534e-06
1555.56	2.8476e-06
1564.24	2.69784e-06
1572.92	2.56654e-06
1581.59	2.39435e-06
1590.27	2.26689e-06
1598.95	2.07473e-06
1607.63	2.16364e-06
1616.31	3.1798e-06
1624.98	1.81143e-06
1633.66	1.43863e-06
1642.34	1.90338e-06
1651.02	1.79253e-06
1659.7	1.69193e-06
1668.38	1.76994e-06
1677.05	1.71193e-06
1685.73	1.5882e-06
1694.41	1.6903e-06
1703.09	1.72843e-06
1711.77	1.60694e-06
1720.44	1.42173e-06
1729.12	1.34498e-06
1737.8	1.57473e-06
1746.48	1.5108e-06
1755.16	1.30261e-06
1763.84	1.21269e-06
1772.51	2.4406e-06
1781.19	1.27812e-06
1789.87	1.68364e-06
1798.55	1.47952e-06
1807.23	1.37986e-06
1815.9	1.11674e-06
1824.58	1.19596e-06
1833.26	1.19115e-06
1841.94	1.06867e-06
1850.62	1.34435e-06
1859.29	1.5023e-06
1867.97	1.76488e-06
1876.65	1.36452e-06
1885.33	1.24901e-06
1894.01	1.70891e-06
1902.69	1.45383e-06
1911.36	1.61347e-06
1920.04	1.65642e-06
1928.72	1.65868e-06
1937.4	1.17478e-06
1946.08	1.31054e-06
1954.75	1.52792e-06
1963.43	1.2825e-06
1972.11	1.69681e-06
1980.79	1.80502e-06
1989.47	1.76351e-06
1998.15	1.56586e-06
2006.82	2.0097e-06
2015.5	2.28381e-06
2024.18	3.13868e-06
2032.86	3.31075e-06
2041.54	3.40471e-06
2050.21	2.77481e-06
2058.89	2.14665e-06
2067.57	1.81854e-06
2076.25	1.43896e-06
2084.93	1.64722e-06
2093.6	1.55061e-06
2102.28	1.46584e-06
2110.96	1.21812e-06
2119.64	9.9714e-07
2128.32	8.35916e-07
2137	7.40608e-07
2145.67	1.16627e-06
2154.35	1.04513e-06
2163.03	1.34954e-06
2171.71	1.64185e-06
2180.39	1.5453e-06
2189.06	1.83352e-06
2197.74	1.71891e-06
2206.42	1.74232e-06
2215.1	1.66732e-06
2223.78	1.38072e-06
2232.46	1.58393e-06
2241.13	1.72592e-06
2249.81	1.51418e-06
2258.49	1.58689e-06
2267.17	1.53891e-06
2275.85	2.32769e-06
2284.52	2.19155e-06
2293.2	2.06682e-06
2301.88	2.14452e-06
2310.56	2.47194e-06
2319.24	2.78151e-06
2327.92	2.48281e-06
2336.59	2.58831e-06
2345.27	2.81866e-06
2353.95	2.26744e-06
2362.63	3.33721e-06
2371.31	2.64402e-06
2379.98	2.72659e-06
2388.66	2.76902e-06
2397.34	2.80479e-06
2406.02	3.40867e-06
2414.7	3.58942e-06
2423.37	3.53585e-06
2432.05	3.3349e-06
2440.73	2.91723e-06
2449.41	2.589e-06
2458.09	2.15513e-06
2466.77	2.35408e-06
2475.44	2.17439e-06
2484.12	1.81172e-06
2492.8	1.9212e-06
2501.48	1.63626e-06
2510.16	2.11211e-06
2518.83	1.8034e-06
2527.51	1.97651e-06
2536.19	1.98946e-06
2544.87	2.2177e-06
2553.55	2.35835e-06
2562.23	2.37251e-06
2570.9	2.6854e-06
2579.58	2.85211e-06
2588.26	3.42877e-06
2596.94	3.57188e-06
2605.62	3.88969e-06
2614.29	4.13524e-06
2622.97	4.2476e-06
2631.65	4.855e-06
2640.33	4.81673e-06
2649.01	5.70806e-06
2657.68	6.2316e-06
2666.36	7.05424e-06
2675.04	7.67526e-06
2683.72	8.52334e-06
2692.4	8.61074e-06
2701.08	8.81749e-06
2709.75	9.2462e-06
2718.43	1.02982e-05
2727.11	1.19871e-05
2735.79	1.45213e-05
2744.47	1.66535e-05
2753.14	1.76689e-05
2761.82	1.79402e-05
2770.5	1.85547e-05
2779.18	2.01185e-05
2787.86	2.18927e-05
2796.54	2.26334e-05
2805.21	2.36629e-05
2813.89	2.50112e-05
2822.57	2.95705e-05
2831.25	3.96727e-05
2839.93	5.92382e-05
2848.6	9.29462e-05
2857.28	0.000135437
2865.96	0.0001941
2874.64	0.000277687
2883.32	0.000331002
2892	0.000336671
2900.67	0.000283338
2909.35	0.000278411
2918.03	0.000313899
2926.71	0.000366962
2935.39	0.000430996
2944.06	0.00046525
2952.74	0.000451852
2961.42	0.000470223
2970.1	0.000491769
2978.78	0.000403262
2987.45	0.000215606
2996.13	8.5271e-05
3004.81	3.42345e-05
3013.49	1.62916e-05
3022.17	1.15831e-05
3030.85	1.00578e-05
3039.52	8.60584e-06
3048.2	9.02062e-06
3056.88	8.23994e-06
3065.56	7.50581e-06
3074.24	6.03248e-06
3082.91	5.15848e-06
3091.59	4.89246e-06
3100.27	4.66635e-06
3108.95	4.26828e-06
3117.63	4.18055e-06
3126.31	4.07489e-06
3134.98	4.32459e-06
3143.66	3.70148e-06
3152.34	3.88301e-06
3161.02	3.89461e-06
3169.7	4.11118e-06
3178.37	3.4219e-06
3187.05	4.35301e-06
3195.73	4.49541e-06
3204.41	4.54484e-06
3213.09	4.11917e-06
3221.77	3.16094e-06
3230.44	1.92713e-06
3239.12	1.55676e-06
3247.8	1.91743e-06
3256.48	2.02275e-06
3265.16	1.88393e-06
3273.83	9.96418e-07
3282.51	5.62828e-07
3291.19	6.54764e-07
3299.87	1.39647e-06
3308.55	1.43491e-06
3317.22	1.33201e-06
3325.9	1.82908e-06
3334.58	1.37292e-06
3343.26	1.0601e-06
3351.94	1.0424e-06
3360.62	1.43442e-06
3369.29	1.0917e-06
3377.97	1.31418e-06
3386.65	1.21279e-06
3395.33	1.34762e-06
3404.01	1.70369e-06
3412.68	1.89302e-06
3421.36	3.04161e-06
3430.04	2.83054e-06
3438.72	2.44297e-06
3447.4	2.50461e-06
3456.08	1.94138e-06
3464.75	3.03131e-06
3473.43	2.99793e-06
3482.11	3.32462e-06
3490.79	2.91855e-06
3499.47	2.63815e-06
3508.14	2.45047e-06
3516.82	2.32386e-06
3525.5	1.62255e-06
3534.18	2.67646e-06
3542.86	2.37597e-06
3551.53	1.85316e-06
3560.21	2.18435e-06
3568.89	1.97056e-06
3577.57	1.71188e-06
3586.25	2.32133e-06
3594.93	2.29534e-06
3603.6	2.79375e-06
3612.28	3.75602e-06
3620.96	5.27343e-06
3629.64	8.75165e-06
3638.32	1.43254e-05
3646.99	2.95327e-05
3655.67	4.92653e-05
3664.35	6.74183e-05
3673.03	7.86345e-05
3681.71	6.28188e-05
3690.39	3.66748e-05
3699.06	1.42491e-05
3707.74	6.57961e-06
3716.42	4.84212e-06
3725.1	4.05432e-06
3733.78	3.55042e-06
3742.45	3.51204e-06
3751.13	3.09752e-06
3759.81	3.98106e-06
3768.49	3.19782e-06
3777.17	3.31819e-06
3785.85	3.23025e-06
3794.52	2.95942e-06
3803.2	3.55304e-06
3811.88	3.62151e-06
3820.56	4.40604e-06
3829.24	4.20465e-06
3837.91	6.64205e-06
3846.59	4.68352e-06
3855.27	4.98366e-06
3863.95	5.40028e-06
3872.63	5.12015e-06
3881.3	4.25912e-06
3889.98	3.73265e-06
3898.66	3.17432e-06
3907.34	3.0786e-06
3916.02	2.36525e-06
3924.7	2.40731e-06
3933.37	2.28504e-06
3942.05	2.10165e-06
3950.73	1.55318e-06
3959.41	2.24505e-06
3968.09	2.20194e-06
