Infrared Spectrum: 1-Butanol
Formula: C H3 C H2 C H2 C H2 O H
CAS: 71-36-3
State: gas
Melting point: -89.53 C
Boiling point: 117.25 C
Class: IUPAC A
Instrument: IFS66V (Bruker)
Instrument parameters: KBr Beam splitter; MCT Detector; Multipass cell
Sampling: 1 L/min Flow
Resolution: 0.2410
Temperature: 23 C
Pressure: 101.3 kPa
Origin: NIST, Anayltical Chemistry Division, 301-975-3108
cm-1	(micromol/mol)-1m-1 (base 10)
575.048	-1.32823e-06
583.606	3.44395e-06
592.163	5.5875e-06
600.721	6.79843e-06
609.279	4.34884e-06
617.836	2.17735e-06
626.394	4.84257e-06
634.951	4.77568e-06
643.509	1.50206e-06
652.067	4.84037e-06
660.624	4.49382e-06
669.182	2.42199e-06
677.74	2.2446e-06
686.297	5.04223e-06
694.855	2.86616e-06
703.412	2.03861e-06
711.97	4.74134e-06
720.528	5.15648e-06
729.085	6.96639e-06
737.643	9.98166e-06
746.201	8.47432e-06
754.758	8.73597e-06
763.316	6.10641e-06
771.873	4.19067e-06
780.431	4.60039e-06
788.989	4.82123e-06
797.546	6.13857e-06
806.104	8.35472e-06
814.662	9.53819e-06
823.219	1.11033e-05
831.777	1.62665e-05
840.334	2.45487e-05
848.892	2.53557e-05
857.45	2.26273e-05
866.007	1.44379e-05
874.565	1.06002e-05
883.123	9.88589e-06
891.68	1.17849e-05
900.238	1.33246e-05
908.795	1.54826e-05
917.353	1.43467e-05
925.911	2.05009e-05
934.468	3.393e-05
943.026	4.84177e-05
951.584	5.52224e-05
960.141	5.27085e-05
968.699	4.32737e-05
977.256	4.04851e-05
985.814	4.65396e-05
994.372	5.63491e-05
1002.93	6.1817e-05
1011.49	7.85356e-05
1020.04	0.000106127
1028.6	0.000136307
1037.16	0.000190005
1045.72	0.000202887
1054.28	0.000214473
1062.83	0.000203615
1071.39	0.000219879
1079.95	0.000191543
1088.51	0.000124091
1097.06	8.08535e-05
1105.62	5.38546e-05
1114.18	3.91887e-05
1122.74	3.05055e-05
1131.29	2.37036e-05
1139.85	1.91954e-05
1148.41	1.77399e-05
1156.97	1.67445e-05
1165.52	1.91371e-05
1174.08	2.21734e-05
1182.64	2.73675e-05
1191.2	3.53744e-05
1199.75	4.22544e-05
1208.31	4.86927e-05
1216.87	4.90554e-05
1225.43	4.38754e-05
1233.99	3.66547e-05
1242.54	3.29401e-05
1251.1	3.2279e-05
1259.66	3.48944e-05
1268.22	3.70857e-05
1276.77	3.87696e-05
1285.33	3.69136e-05
1293.89	3.31485e-05
1302.45	2.79011e-05
1311	2.54557e-05
1319.56	2.44117e-05
1328.12	2.67361e-05
1336.68	3.2587e-05
1345.23	3.42134e-05
1353.79	3.43981e-05
1362.35	3.53263e-05
1370.91	5.00498e-05
1379.46	7.5028e-05
1388.02	8.72576e-05
1396.58	7.50928e-05
1405.14	5.02567e-05
1413.7	3.06181e-05
1422.25	2.40205e-05
1430.81	2.61867e-05
1439.37	3.25529e-05
1447.93	4.58428e-05
1456.48	5.64803e-05
1465.04	6.7192e-05
1473.6	6.11571e-05
1482.16	4.92871e-05
1490.71	3.38549e-05
1499.27	1.76183e-05
1507.83	9.22187e-06
1516.39	5.66015e-06
1524.94	4.30755e-06
1533.5	4.07043e-06
1542.06	5.11831e-06
1550.62	2.88222e-06
1559.18	3.1498e-06
1567.73	2.84409e-06
1576.29	5.42927e-06
1584.85	2.52127e-06
1593.41	1.86456e-06
1601.96	2.06036e-06
1610.52	2.16532e-06
1619.08	1.95999e-06
1627.64	2.18607e-06
1636.19	1.67938e-06
1644.75	1.4402e-06
1653.31	6.52331e-06
1661.87	1.54512e-06
1670.42	1.64736e-06
1678.98	2.01444e-06
1687.54	1.50797e-06
1696.1	4.34579e-06
1704.65	1.98642e-06
1713.21	1.85684e-06
1721.77	1.56665e-06
1730.33	1.09249e-06
1738.89	1.5161e-06
1747.44	1.55115e-06
1756	1.56406e-06
1764.56	1.50517e-06
1773.12	1.54266e-06
1781.67	1.4483e-06
1790.23	1.30597e-06
1798.79	1.66523e-06
1807.35	1.37226e-06
1815.9	1.02494e-06
1824.46	8.84261e-07
1833.02	1.21983e-06
1841.58	1.20175e-06
1850.13	1.24041e-06
1858.69	1.30545e-06
1867.25	1.44824e-06
1875.81	1.37953e-06
1884.36	1.34038e-06
1892.92	1.52678e-06
1901.48	1.16666e-06
1910.04	1.4864e-06
1918.6	1.81216e-06
1927.15	1.81528e-06
1935.71	1.66035e-06
1944.27	1.48321e-06
1952.83	1.11593e-06
1961.38	1.50746e-06
1969.94	1.74389e-06
1978.5	1.86224e-06
1987.06	1.54945e-06
1995.61	1.58635e-06
2004.17	1.96695e-06
2012.73	2.2196e-06
2021.29	2.7554e-06
2029.84	3.16437e-06
2038.4	3.34411e-06
2046.96	2.9774e-06
2055.52	2.33957e-06
2064.08	1.66877e-06
2072.63	1.37426e-06
2081.19	1.51318e-06
2089.75	1.24337e-06
2098.31	1.37209e-06
2106.86	1.21914e-06
2115.42	1.2364e-06
2123.98	1.09056e-06
2132.54	6.41022e-07
2141.09	7.4889e-07
2149.65	8.86778e-07
2158.21	1.27673e-06
2166.77	1.54599e-06
2175.32	1.52618e-06
2183.88	2.005e-06
2192.44	1.83949e-06
2201	1.91825e-06
2209.55	1.75453e-06
2218.11	1.42073e-06
2226.67	1.39066e-06
2235.23	1.35361e-06
2243.79	1.33417e-06
2252.34	1.48317e-06
2260.9	1.81143e-06
2269.46	1.81906e-06
2278.02	2.10651e-06
2286.57	2.36016e-06
2295.13	2.32107e-06
2303.69	2.35201e-06
2312.25	2.29441e-06
2320.8	3.15795e-06
2329.36	2.49588e-06
2337.92	3.04159e-06
2346.48	2.25728e-06
2355.03	2.17074e-06
2363.59	2.39543e-06
2372.15	2.68314e-06
2380.71	2.64792e-06
2389.26	3.24306e-06
2397.82	2.76936e-06
2406.38	3.50976e-06
2414.94	3.44253e-06
2423.5	3.51724e-06
2432.05	3.35249e-06
2440.61	3.14473e-06
2449.17	2.26421e-06
2457.73	2.25255e-06
2466.28	1.76482e-06
2474.84	1.71242e-06
2483.4	2.07684e-06
2491.96	1.71242e-06
2500.51	2.14982e-06
2509.07	2.19047e-06
2517.63	2.17617e-06
2526.19	1.64597e-06
2534.74	2.26412e-06
2543.3	2.26259e-06
2551.86	2.52284e-06
2560.42	2.44597e-06
2568.98	2.74938e-06
2577.53	3.07185e-06
2586.09	2.70755e-06
2594.65	3.18474e-06
2603.21	3.4408e-06
2611.76	4.25225e-06
2620.32	4.40978e-06
2628.88	4.97063e-06
2637.44	4.73382e-06
2645.99	5.27026e-06
2654.55	6.48743e-06
2663.11	7.17935e-06
2671.67	7.58193e-06
2680.22	7.97003e-06
2688.78	8.02042e-06
2697.34	9.16318e-06
2705.9	9.16148e-06
2714.45	1.02634e-05
2723.01	1.15062e-05
2731.57	1.30574e-05
2740.13	1.52851e-05
2748.69	1.733e-05
2757.24	1.73438e-05
2765.8	1.82321e-05
2774.36	1.90635e-05
2782.92	2.02498e-05
2791.47	2.24307e-05
2800.03	2.27323e-05
2808.59	2.49228e-05
2817.15	2.65703e-05
2825.7	3.2457e-05
2834.26	4.55755e-05
2842.82	6.84113e-05
2851.38	0.00010503
2859.93	0.000152004
2868.49	0.000215487
2877.05	0.000308769
2885.61	0.00033588
2894.16	0.000331241
2902.72	0.000276316
2911.28	0.000286058
2919.84	0.000322924
2928.4	0.00037793
2936.95	0.000443817
2945.51	0.000458451
2954.07	0.000455438
2962.63	0.000477823
2971.18	0.000471248
2979.74	0.000390371
2988.3	0.000197512
2996.86	7.88997e-05
3005.41	3.22867e-05
3013.97	1.60954e-05
3022.53	1.08726e-05
3031.09	9.30346e-06
3039.64	8.72963e-06
3048.2	8.8176e-06
3056.76	8.42571e-06
3065.32	7.70561e-06
3073.88	5.70367e-06
3082.43	5.60862e-06
3090.99	5.08962e-06
3099.55	3.99952e-06
3108.11	4.5598e-06
3116.66	4.32997e-06
3125.22	3.66133e-06
3133.78	3.69488e-06
3142.34	3.84075e-06
3150.89	3.23795e-06
3159.45	3.62174e-06
3168.01	3.41058e-06
3176.57	4.12171e-06
3185.12	4.13854e-06
3193.68	4.18242e-06
3202.24	4.34387e-06
3210.8	3.95189e-06
3219.35	2.87287e-06
3227.91	2.91913e-06
3236.47	1.7389e-06
3245.03	1.27537e-06
3253.59	2.23378e-06
3262.14	1.28502e-06
3270.7	1.26076e-06
3279.26	1.05184e-06
3287.82	1.09307e-06
3296.37	1.70468e-06
3304.93	4.74971e-07
3313.49	2.08302e-06
3322.05	2.22056e-06
3330.6	1.70171e-06
3339.16	2.06227e-06
3347.72	8.9346e-07
3356.28	9.16478e-07
3364.83	2.69629e-06
3373.39	2.01581e-06
3381.95	1.70904e-06
3390.51	1.63786e-06
3399.06	1.79515e-06
3407.62	1.74995e-06
3416.18	1.89482e-06
3424.74	1.74204e-06
3433.3	1.3157e-06
3441.85	3.62716e-06
3450.41	2.29025e-06
3458.97	3.00243e-06
3467.53	2.62346e-06
3476.08	2.75931e-06
3484.64	3.48269e-06
3493.2	3.53751e-06
3501.76	2.50184e-06
3510.31	3.70873e-06
3518.87	2.7359e-06
3527.43	2.61738e-06
3535.99	2.06163e-06
3544.54	3.11671e-06
3553.1	2.02029e-06
3561.66	1.82699e-06
3570.22	2.4578e-06
3578.78	1.99949e-06
3587.33	1.54634e-06
3595.89	1.71442e-06
3604.45	3.52276e-06
3613.01	3.45763e-06
3621.56	4.66854e-06
3630.12	9.08693e-06
3638.68	1.46918e-05
3647.24	3.01865e-05
3655.79	5.02575e-05
3664.35	6.72253e-05
3672.91	7.88274e-05
3681.47	6.35618e-05
3690.02	3.76568e-05
3698.58	1.50513e-05
3707.14	6.99676e-06
3715.7	4.86202e-06
3724.25	4.09085e-06
3732.81	4.08801e-06
3741.37	3.93018e-06
3749.93	3.69122e-06
3758.49	3.48819e-06
3767.04	3.39728e-06
3775.6	2.89891e-06
3784.16	2.48491e-06
3792.72	4.39612e-06
3801.27	5.42528e-06
3809.83	4.03254e-06
3818.39	4.27014e-06
3826.95	3.64541e-06
3835.5	4.93174e-06
3844.06	3.78017e-06
3852.62	5.1772e-06
3861.18	4.86068e-06
3869.73	5.14999e-06
3878.29	4.57054e-06
3886.85	3.7167e-06
3895.41	3.7098e-06
3903.96	3.34139e-06
3912.52	3.10683e-06
3921.08	1.83044e-06
3929.64	2.83498e-06
3938.2	2.82022e-06
3946.75	2.29038e-06
3955.31	2.92026e-06
3963.87	2.25393e-06
3972.43	2.20703e-06
