Infrared Spectrum: 1-Butanol
Formula: C H3 C H2 C H2 C H2 O H
CAS: 71-36-3
State: gas
Melting point: -89.53 C
Boiling point: 117.25 C
Class: IUPAC A
Instrument: IFS66V (Bruker)
Instrument parameters: KBr Beam splitter; MCT Detector; Multipass cell
Sampling: 1 L/min Flow
Resolution: 1.9290
Temperature: 23 C
Pressure: 101.3 kPa
Origin: NIST, Anayltical Chemistry Division, 301-975-3108
cm-1	(micromol/mol)-1m-1 (base 10)
574.687	2.82794e-06
583.365	3.75145e-06
592.043	4.63491e-06
600.721	4.10301e-06
609.4	3.77505e-06
618.078	3.87226e-06
626.756	4.65444e-06
635.434	4.05635e-06
644.112	3.24947e-06
652.79	3.64673e-06
661.469	3.98266e-06
670.147	3.56286e-06
678.825	3.48532e-06
687.503	3.7928e-06
696.181	3.69485e-06
704.859	3.4835e-06
713.537	3.89964e-06
722.216	5.19034e-06
730.894	7.64193e-06
739.572	1.03506e-05
748.25	9.26013e-06
756.928	7.26192e-06
765.606	5.33174e-06
774.285	4.24044e-06
782.963	4.71417e-06
791.641	5.5541e-06
800.319	6.60047e-06
808.997	7.55399e-06
817.675	8.70264e-06
826.353	1.27153e-05
835.032	1.96241e-05
843.71	2.39687e-05
852.388	2.5514e-05
861.066	1.89889e-05
869.744	1.25561e-05
878.422	9.92459e-06
887.101	1.01086e-05
895.779	1.27148e-05
904.457	1.40433e-05
913.135	1.4432e-05
921.813	1.73612e-05
930.491	2.72451e-05
939.169	4.20567e-05
947.848	5.28455e-05
956.526	5.46814e-05
965.204	4.73497e-05
973.882	3.99966e-05
982.56	4.51055e-05
991.238	4.96209e-05
999.917	6.09112e-05
1008.59	7.20216e-05
1017.27	9.60346e-05
1025.95	0.000127307
1034.63	0.000173134
1043.31	0.000202741
1051.99	0.000206965
1060.66	0.000205034
1069.34	0.0002206
1078.02	0.00019982
1086.7	0.000138237
1095.38	8.73736e-05
1104.05	5.81072e-05
1112.73	4.16553e-05
1121.41	3.15042e-05
1130.09	2.43624e-05
1138.77	1.95112e-05
1147.45	1.72089e-05
1156.12	1.6995e-05
1164.8	1.84739e-05
1173.48	2.18763e-05
1182.16	2.70726e-05
1190.84	3.45833e-05
1199.51	4.19832e-05
1208.19	4.82716e-05
1216.87	4.89361e-05
1225.55	4.38319e-05
1234.23	3.65491e-05
1242.9	3.2718e-05
1251.58	3.25845e-05
1260.26	3.48112e-05
1268.94	3.70615e-05
1277.62	3.87181e-05
1286.3	3.66394e-05
1294.97	3.26325e-05
1303.65	2.75808e-05
1312.33	2.52016e-05
1321.01	2.4784e-05
1329.69	2.81461e-05
1338.36	3.31927e-05
1347.04	3.41764e-05
1355.72	3.40133e-05
1364.4	3.73451e-05
1373.08	5.70945e-05
1381.76	7.75625e-05
1390.43	9.12354e-05
1399.11	6.90587e-05
1407.79	4.21924e-05
1416.47	2.76796e-05
1425.15	2.41379e-05
1433.82	2.77856e-05
1442.5	3.67215e-05
1451.18	4.89785e-05
1459.86	5.92292e-05
1468.54	6.20364e-05
1477.22	5.76915e-05
1485.89	4.2258e-05
1494.57	2.53551e-05
1503.25	1.27398e-05
1511.93	7.03375e-06
1520.61	5.35762e-06
1529.28	3.79615e-06
1537.96	3.75337e-06
1546.64	3.20107e-06
1555.32	3.09419e-06
1564	2.75034e-06
1572.67	2.56305e-06
1581.35	2.35094e-06
1590.03	2.29101e-06
1598.71	2.14149e-06
1607.39	2.13141e-06
1616.07	2.77269e-06
1624.74	1.95414e-06
1633.42	1.67025e-06
1642.1	1.76919e-06
1650.78	1.88603e-06
1659.46	1.68867e-06
1668.13	1.7602e-06
1676.81	1.73333e-06
1685.49	2.5228e-06
1694.17	1.73158e-06
1702.85	1.64517e-06
1711.53	1.57763e-06
1720.2	1.4074e-06
1728.88	1.4363e-06
1737.56	1.51653e-06
1746.24	1.46512e-06
1754.92	1.39856e-06
1763.59	1.34093e-06
1772.27	1.88564e-06
1780.95	1.4281e-06
1789.63	1.43079e-06
1798.31	1.56193e-06
1806.98	1.47098e-06
1815.66	1.24925e-06
1824.34	1.28385e-06
1833.02	1.14493e-06
1841.7	1.19255e-06
1850.38	1.2427e-06
1859.05	1.36584e-06
1867.73	1.59991e-06
1876.41	1.40448e-06
1885.09	1.19789e-06
1893.77	1.39507e-06
1902.44	1.42831e-06
1911.12	1.59989e-06
1919.8	1.61918e-06
1928.48	1.66445e-06
1937.16	1.36224e-06
1945.84	1.36416e-06
1954.51	1.46651e-06
1963.19	1.42969e-06
1971.87	1.67575e-06
1980.55	1.80334e-06
1989.23	1.73313e-06
1997.9	1.61676e-06
2006.58	1.86731e-06
2015.26	2.24234e-06
2023.94	2.98171e-06
2032.62	3.35644e-06
2041.3	3.44343e-06
2049.97	2.83178e-06
2058.65	2.11684e-06
2067.33	1.79291e-06
2076.01	1.65807e-06
2084.69	1.65966e-06
2093.36	1.60552e-06
2102.04	1.53021e-06
2110.72	1.27887e-06
2119.4	1.00158e-06
2128.08	9.23438e-07
2136.75	8.53135e-07
2145.43	9.81748e-07
2154.11	1.08355e-06
2162.79	1.27548e-06
2171.47	1.56945e-06
2180.15	1.61366e-06
2188.82	1.76842e-06
2197.5	1.69081e-06
2206.18	1.72369e-06
2214.86	1.66438e-06
2223.54	1.49982e-06
2232.21	1.53141e-06
2240.89	1.61369e-06
2249.57	1.48705e-06
2258.25	1.68781e-06
2266.93	1.70262e-06
2275.61	2.16883e-06
2284.28	2.12408e-06
2292.96	2.12568e-06
2301.64	2.23597e-06
2310.32	2.54336e-06
2319	2.61872e-06
2327.67	2.9151e-06
2336.35	2.95988e-06
2345.03	2.85195e-06
2353.71	2.48285e-06
2362.39	2.83661e-06
2371.06	2.67178e-06
2379.74	2.72425e-06
2388.42	2.92759e-06
2397.1	2.90203e-06
2405.78	3.38077e-06
2414.46	3.49481e-06
2423.13	3.49709e-06
2431.81	3.11545e-06
2440.49	2.90439e-06
2449.17	2.47247e-06
2457.85	2.16906e-06
2466.52	2.19182e-06
2475.2	2.01566e-06
2483.88	1.82978e-06
2492.56	2.01808e-06
2501.24	1.86676e-06
2509.92	2.00039e-06
2518.59	1.8297e-06
2527.27	2.03087e-06
2535.95	2.10283e-06
2544.63	2.27494e-06
2553.31	2.34724e-06
2561.98	2.32905e-06
2570.66	2.75046e-06
2579.34	2.95413e-06
2588.02	3.39017e-06
2596.7	3.67768e-06
2605.38	3.79491e-06
2614.05	4.25813e-06
2622.73	4.38914e-06
2631.41	4.76585e-06
2640.09	5.03045e-06
2648.77	5.62811e-06
2657.44	6.08347e-06
2666.12	7.01346e-06
2674.8	7.57168e-06
2683.48	8.25935e-06
2692.16	8.58686e-06
2700.83	8.91531e-06
2709.51	9.43822e-06
2718.19	1.02697e-05
2726.87	1.19577e-05
2735.55	1.43169e-05
2744.23	1.6449e-05
2752.9	1.77993e-05
2761.58	1.78924e-05
2770.26	1.86592e-05
2778.94	1.99302e-05
2787.62	2.19032e-05
2796.29	2.27919e-05
2804.97	2.34566e-05
2813.65	2.50242e-05
2822.33	2.93874e-05
2831.01	3.9397e-05
2839.69	5.8482e-05
2848.36	9.14654e-05
2857.04	0.000134185
2865.72	0.000192694
2874.4	0.000274936
2883.08	0.000331663
2891.75	0.000335538
2900.43	0.000285117
2909.11	0.000277802
2917.79	0.000312661
2926.47	0.000365451
2935.14	0.000428991
2943.82	0.000464375
2952.5	0.0004517
2961.18	0.00046982
2969.86	0.000498009
2978.54	0.000405288
2987.21	0.000221236
2995.89	8.77057e-05
3004.57	3.52408e-05
3013.25	1.69255e-05
3021.93	1.17197e-05
3030.6	9.98753e-06
3039.28	9.23488e-06
3047.96	9.05333e-06
3056.64	8.3024e-06
3065.32	7.49165e-06
3074	5.95407e-06
3082.67	5.38492e-06
3091.35	4.72184e-06
3100.03	4.61929e-06
3108.71	4.36504e-06
3117.39	4.19338e-06
3126.06	3.86076e-06
3134.74	4.07114e-06
3143.42	3.82357e-06
3152.1	3.8863e-06
3160.78	3.90823e-06
3169.46	4.07316e-06
3178.13	3.82294e-06
3186.81	4.23576e-06
3195.49	4.46978e-06
3204.17	4.17077e-06
3212.85	3.78285e-06
3221.52	3.16309e-06
3230.2	2.21792e-06
3238.88	1.5385e-06
3247.56	1.86629e-06
3256.24	1.53242e-06
3264.91	1.43353e-06
3273.59	1.18874e-06
3282.27	8.97469e-07
3290.95	1.15291e-06
3299.63	1.47441e-06
3308.31	1.59081e-06
3316.98	1.75169e-06
3325.66	1.54432e-06
3334.34	1.49363e-06
3343.02	1.23944e-06
3351.7	1.23699e-06
3360.37	1.40338e-06
3369.05	1.36583e-06
3377.73	1.29798e-06
3386.41	1.35617e-06
3395.09	1.49924e-06
3403.77	1.436e-06
3412.44	1.7393e-06
3421.12	2.53207e-06
3429.8	2.57781e-06
3438.48	2.37642e-06
3447.16	2.36693e-06
3455.83	2.40422e-06
3464.51	2.96667e-06
3473.19	3.07018e-06
3481.87	3.2472e-06
3490.55	2.92099e-06
3499.22	2.48568e-06
3507.9	2.14801e-06
3516.58	2.32253e-06
3525.26	2.14146e-06
3533.94	2.63368e-06
3542.62	2.18604e-06
3551.29	2.1943e-06
3559.97	2.25672e-06
3568.65	2.37343e-06
3577.33	2.05591e-06
3586.01	2.13526e-06
3594.68	2.50379e-06
3603.36	2.8565e-06
3612.04	3.73781e-06
3620.72	4.92509e-06
3629.4	8.19291e-06
3638.08	1.4177e-05
3646.75	2.85816e-05
3655.43	4.80824e-05
3664.11	6.69398e-05
3672.79	7.86211e-05
3681.47	6.39839e-05
3690.14	3.75833e-05
3698.82	1.45425e-05
3707.5	6.82337e-06
3716.18	4.67734e-06
3724.86	4.0894e-06
3733.54	3.73032e-06
3742.21	3.65816e-06
3750.89	3.44665e-06
3759.57	3.41615e-06
3768.25	3.05168e-06
3776.93	3.05906e-06
3785.6	3.34843e-06
3794.28	3.29205e-06
3802.96	3.87498e-06
3811.64	3.41722e-06
3820.32	3.99674e-06
3828.99	3.81401e-06
3837.67	5.11224e-06
3846.35	4.54863e-06
3855.03	5.6808e-06
3863.71	5.02535e-06
3872.39	5.02565e-06
3881.06	4.50044e-06
3889.74	3.83088e-06
3898.42	3.14875e-06
3907.1	2.81009e-06
3915.78	2.60825e-06
3924.45	2.56664e-06
3933.13	2.53367e-06
3941.81	2.31929e-06
3950.49	2.00702e-06
3959.17	2.38282e-06
3967.85	2.25666e-06
