Infrared Spectrum: 1-Butanol
Formula: C H3 C H2 C H2 C H2 O H
CAS: 71-36-3
State: gas
Melting point: -89.53 C
Boiling point: 117.25 C
Class: IUPAC A
Instrument: IFS66V (Bruker)
Instrument parameters: KBr Beam splitter; MCT Detector; Multipass cell
Sampling: 1 L/min Flow
Resolution: 1.9290
Temperature: 23 C
Pressure: 101.3 kPa
Origin: NIST, Anayltical Chemistry Division, 301-975-3108
cm-1	(micromol/mol)-1m-1 (base 10)
574.687	2.86477e-06
583.365	3.81618e-06
592.043	4.59227e-06
600.721	4.10077e-06
609.4	3.72474e-06
618.078	3.90809e-06
626.756	4.56001e-06
635.434	4.08515e-06
644.112	3.26469e-06
652.79	3.65303e-06
661.469	3.98945e-06
670.147	3.61941e-06
678.825	3.53025e-06
687.503	3.788e-06
696.181	3.69495e-06
704.859	3.5453e-06
713.537	3.95185e-06
722.216	5.24452e-06
730.894	7.63033e-06
739.572	1.02102e-05
748.25	9.23632e-06
756.928	7.28591e-06
765.606	5.39534e-06
774.285	4.36117e-06
782.963	4.75916e-06
791.641	5.60354e-06
800.319	6.66678e-06
808.997	7.65208e-06
817.675	8.83788e-06
826.353	1.28168e-05
835.032	1.95378e-05
843.71	2.38179e-05
852.388	2.52362e-05
861.066	1.89786e-05
869.744	1.2724e-05
878.422	1.01395e-05
887.101	1.03006e-05
895.779	1.28385e-05
904.457	1.41775e-05
913.135	1.46918e-05
921.813	1.76788e-05
930.491	2.74432e-05
939.169	4.19373e-05
947.848	5.25501e-05
956.526	5.43955e-05
965.204	4.74085e-05
973.882	4.04271e-05
982.56	4.53216e-05
991.238	5.0075e-05
999.917	6.11986e-05
1008.59	7.24598e-05
1017.27	9.62877e-05
1025.95	0.000127263
1034.63	0.000172108
1043.31	0.00020121
1051.99	0.000205845
1060.66	0.000204344
1069.34	0.000218362
1078.02	0.000197737
1086.7	0.000137948
1095.38	8.7895e-05
1104.05	5.87301e-05
1112.73	4.21741e-05
1121.41	3.19565e-05
1130.09	2.47708e-05
1138.77	1.98932e-05
1147.45	1.75734e-05
1156.12	1.73199e-05
1164.8	1.87591e-05
1173.48	2.21215e-05
1182.16	2.72453e-05
1190.84	3.46157e-05
1199.51	4.18905e-05
1208.19	4.80211e-05
1216.87	4.86636e-05
1225.55	4.37115e-05
1234.23	3.66463e-05
1242.9	3.2878e-05
1251.58	3.26956e-05
1260.26	3.48461e-05
1268.94	3.70344e-05
1277.62	3.86003e-05
1286.3	3.65819e-05
1294.97	3.26443e-05
1303.65	2.77284e-05
1312.33	2.53704e-05
1321.01	2.49926e-05
1329.69	2.82868e-05
1338.36	3.31767e-05
1347.04	3.4228e-05
1355.72	3.42137e-05
1364.4	3.7737e-05
1373.08	5.69806e-05
1381.76	7.70318e-05
1390.43	8.98622e-05
1399.11	6.86197e-05
1407.79	4.24803e-05
1416.47	2.81506e-05
1425.15	2.45633e-05
1433.82	2.8094e-05
1442.5	3.68564e-05
1451.18	4.88104e-05
1459.86	5.88685e-05
1468.54	6.15815e-05
1477.22	5.71086e-05
1485.89	4.20733e-05
1494.57	2.54741e-05
1503.25	1.30651e-05
1511.93	7.3164e-06
1520.61	5.52513e-06
1529.28	3.94602e-06
1537.96	3.84377e-06
1546.64	3.29323e-06
1555.32	3.21117e-06
1564	2.83439e-06
1572.67	2.66407e-06
1581.35	2.42647e-06
1590.03	2.33601e-06
1598.71	2.1848e-06
1607.39	2.18553e-06
1616.07	2.7505e-06
1624.74	1.98966e-06
1633.42	1.71903e-06
1642.1	1.81174e-06
1650.78	1.93283e-06
1659.46	1.74276e-06
1668.13	1.79221e-06
1676.81	1.74652e-06
1685.49	2.4874e-06
1694.17	1.74182e-06
1702.85	1.71649e-06
1711.53	1.60775e-06
1720.2	1.47052e-06
1728.88	1.47195e-06
1737.56	1.56628e-06
1746.24	1.50327e-06
1754.92	1.42209e-06
1763.59	1.36554e-06
1772.27	1.86411e-06
1780.95	1.44492e-06
1789.63	1.46283e-06
1798.31	1.56541e-06
1806.98	1.47696e-06
1815.66	1.2734e-06
1824.34	1.29326e-06
1833.02	1.17723e-06
1841.7	1.22278e-06
1850.38	1.2639e-06
1859.05	1.37526e-06
1867.73	1.59421e-06
1876.41	1.41596e-06
1885.09	1.2241e-06
1893.77	1.4041e-06
1902.44	1.44989e-06
1911.12	1.6135e-06
1919.8	1.63987e-06
1928.48	1.67397e-06
1937.16	1.37587e-06
1945.84	1.38883e-06
1954.51	1.47627e-06
1963.19	1.45107e-06
1971.87	1.68845e-06
1980.55	1.80935e-06
1989.23	1.75561e-06
1997.9	1.64639e-06
2006.58	1.89087e-06
2015.26	2.26541e-06
2023.94	2.98279e-06
2032.62	3.34126e-06
2041.3	3.42379e-06
2049.97	2.82748e-06
2058.65	2.13975e-06
2067.33	1.81265e-06
2076.01	1.67504e-06
2084.69	1.67263e-06
2093.36	1.61585e-06
2102.04	1.54395e-06
2110.72	1.29748e-06
2119.4	1.02918e-06
2128.08	9.42582e-07
2136.75	8.8076e-07
2145.43	1.00856e-06
2154.11	1.10088e-06
2162.79	1.28402e-06
2171.47	1.57336e-06
2180.15	1.63671e-06
2188.82	1.77661e-06
2197.5	1.70857e-06
2206.18	1.73058e-06
2214.86	1.67369e-06
2223.54	1.51838e-06
2232.21	1.54821e-06
2240.89	1.6208e-06
2249.57	1.51481e-06
2258.25	1.70158e-06
2266.93	1.73281e-06
2275.61	2.17287e-06
2284.28	2.14734e-06
2292.96	2.15163e-06
2301.64	2.26194e-06
2310.32	2.5565e-06
2319	2.62479e-06
2327.67	2.93432e-06
2336.35	2.96599e-06
2345.03	2.85749e-06
2353.71	2.51298e-06
2362.39	2.85757e-06
2371.06	2.69984e-06
2379.74	2.74822e-06
2388.42	2.94098e-06
2397.1	2.93847e-06
2405.78	3.38673e-06
2414.46	3.51226e-06
2423.13	3.50976e-06
2431.81	3.13095e-06
2440.49	2.9232e-06
2449.17	2.51447e-06
2457.85	2.20916e-06
2466.52	2.2137e-06
2475.2	2.05404e-06
2483.88	1.87312e-06
2492.56	2.03931e-06
2501.24	1.9115e-06
2509.92	2.04921e-06
2518.59	1.88779e-06
2527.27	2.08959e-06
2535.95	2.14986e-06
2544.63	2.31914e-06
2553.31	2.39364e-06
2561.98	2.38814e-06
2570.66	2.80096e-06
2579.34	3.00133e-06
2588.02	3.42006e-06
2596.7	3.72956e-06
2605.38	3.86679e-06
2614.05	4.31633e-06
2622.73	4.44912e-06
2631.41	4.83426e-06
2640.09	5.10203e-06
2648.77	5.70354e-06
2657.44	6.1764e-06
2666.12	7.09195e-06
2674.8	7.66436e-06
2683.48	8.33627e-06
2692.16	8.67873e-06
2700.83	9.03648e-06
2709.51	9.57243e-06
2718.19	1.04372e-05
2726.87	1.2103e-05
2735.55	1.44319e-05
2744.23	1.65749e-05
2752.9	1.79062e-05
2761.58	1.8071e-05
2770.26	1.88805e-05
2778.94	2.01924e-05
2787.62	2.21605e-05
2796.29	2.3129e-05
2804.97	2.39061e-05
2813.65	2.56253e-05
2822.33	3.01477e-05
2831.01	4.02933e-05
2839.69	5.94779e-05
2848.36	9.22305e-05
2857.04	0.000134765
2865.72	0.000192824
2874.4	0.000273596
2883.08	0.00032943
2891.75	0.00033308
2900.43	0.000285567
2909.11	0.000278585
2917.79	0.000312731
2926.47	0.000364576
2935.14	0.00042671
2943.82	0.00046116
2952.5	0.000449975
2961.18	0.000467571
2969.86	0.000492177
2978.54	0.000400985
2987.21	0.000222091
2995.89	9.04184e-05
3004.57	3.75155e-05
3013.25	1.85115e-05
3021.93	1.28071e-05
3030.6	1.07947e-05
3039.28	9.8414e-06
3047.96	9.53735e-06
3056.64	8.68363e-06
3065.32	7.81423e-06
3074	6.24608e-06
3082.67	5.63232e-06
3091.35	4.97687e-06
3100.03	4.80494e-06
3108.71	4.53648e-06
3117.39	4.3324e-06
3126.06	4.04547e-06
3134.74	4.19497e-06
3143.42	3.9552e-06
3152.1	4.00561e-06
3160.78	4.00922e-06
3169.46	4.14793e-06
3178.13	3.91247e-06
3186.81	4.31513e-06
3195.49	4.53006e-06
3204.17	4.23274e-06
3212.85	3.83584e-06
3221.52	3.2121e-06
3230.2	2.31836e-06
3238.88	1.64412e-06
3247.56	1.92028e-06
3256.24	1.59071e-06
3264.91	1.50074e-06
3273.59	1.25162e-06
3282.27	9.80254e-07
3290.95	1.23412e-06
3299.63	1.50335e-06
3308.31	1.61344e-06
3316.98	1.7703e-06
3325.66	1.57737e-06
3334.34	1.52728e-06
3343.02	1.27096e-06
3351.7	1.2612e-06
3360.37	1.43132e-06
3369.05	1.38334e-06
3377.73	1.34875e-06
3386.41	1.39322e-06
3395.09	1.53243e-06
3403.77	1.49498e-06
3412.44	1.80746e-06
3421.12	2.5235e-06
3429.8	2.56972e-06
3438.48	2.42995e-06
3447.16	2.42361e-06
3455.83	2.447e-06
3464.51	2.98219e-06
3473.19	3.07712e-06
3481.87	3.26581e-06
3490.55	2.9438e-06
3499.22	2.5293e-06
3507.9	2.20016e-06
3516.58	2.36078e-06
3525.26	2.19092e-06
3533.94	2.6502e-06
3542.62	2.21245e-06
3551.29	2.24725e-06
3559.97	2.30775e-06
3568.65	2.39843e-06
3577.33	2.11449e-06
3586.01	2.2172e-06
3594.68	2.56815e-06
3603.36	2.95651e-06
3612.04	3.86204e-06
3620.72	5.08674e-06
3629.4	8.39978e-06
3638.08	1.44409e-05
3646.75	2.86499e-05
3655.43	4.767e-05
3664.11	6.62267e-05
3672.79	7.74023e-05
3681.47	6.3298e-05
3690.14	3.75525e-05
3698.82	1.49647e-05
3707.5	7.14019e-06
3716.18	4.91291e-06
3724.86	4.1942e-06
3733.54	3.81657e-06
3742.21	3.75011e-06
3750.89	3.44411e-06
3759.57	3.47099e-06
3768.25	3.09925e-06
3776.93	3.12303e-06
3785.6	3.36678e-06
3794.28	3.33131e-06
3802.96	3.83876e-06
3811.64	3.46054e-06
3820.32	4.00164e-06
3828.99	3.86709e-06
3837.67	5.10369e-06
3846.35	4.57462e-06
3855.03	5.63656e-06
3863.71	4.99972e-06
3872.39	5.03009e-06
3881.06	4.51203e-06
3889.74	3.82679e-06
3898.42	3.18559e-06
3907.1	2.83069e-06
3915.78	2.62924e-06
3924.45	2.57092e-06
3933.13	2.53247e-06
3941.81	2.32067e-06
3950.49	2.05498e-06
3959.17	2.39314e-06
3967.85	2.28399e-06
