Infrared Spectrum: 1-Butanol
Formula: C H3 C H2 C H2 C H2 O H
CAS: 71-36-3
State: gas
Melting point: -89.53 C
Boiling point: 117.25 C
Class: IUPAC A
Instrument: IFS66V (Bruker)
Instrument parameters: KBr Beam splitter; MCT Detector; Multipass cell
Sampling: 1 L/min Flow
Resolution: 0.1250
Temperature: 23 C
Pressure: 101.3 kPa
Origin: NIST, Anayltical Chemistry Division, 301-975-3108
cm-1	(micromol/mol)-1m-1 (base 10)
3975.02	4.70484e-06
3966.46	4.51379e-08
3957.9	5.18883e-06
3949.34	1.81494e-06
3940.79	4.09886e-06
3932.23	6.66177e-07
3923.67	1.41495e-06
3915.11	2.47992e-06
3906.56	1.22696e-06
3898	1.76794e-06
3889.44	4.49885e-06
3880.88	4.46585e-06
3872.33	3.97887e-06
3863.77	4.47485e-06
3855.21	5.32982e-06
3846.65	5.73281e-06
3838.09	3.58288e-06
3829.54	4.17686e-06
3820.98	4.38285e-06
3812.42	3.93987e-06
3803.86	3.61788e-06
3795.31	3.98987e-06
3786.75	4.25986e-06
3778.19	2.44092e-06
3769.63	3.41689e-06
3761.08	3.42489e-06
3752.52	6.26179e-06
3743.96	4.90084e-06
3735.4	4.64685e-06
3726.85	3.47688e-06
3718.29	3.85187e-06
3709.73	6.59878e-06
3701.17	1.22696e-05
3692.62	2.70291e-05
3684.06	6.16779e-05
3675.5	7.40975e-05
3666.94	7.41475e-05
3658.38	5.13783e-05
3649.83	3.59088e-05
3641.27	1.71294e-05
3632.71	7.37175e-06
3624.15	5.31382e-06
3615.6	2.39692e-06
3607.04	5.07183e-06
3598.48	2.72891e-06
3589.92	1.00397e-06
3581.37	4.53885e-06
3572.81	2.32892e-06
3564.25	1.85394e-06
3555.69	3.0519e-06
3547.14	4.27886e-06
3538.58	3.85587e-06
3530.02	2.20493e-06
3521.46	3.16389e-06
3512.91	5.45281e-07
3504.35	3.0269e-06
3495.79	1.80294e-06
3487.23	3.48188e-06
3478.67	2.8909e-06
3470.12	5.8618e-07
3461.56	3.85687e-06
3453	3.24489e-06
3444.44	2.19093e-06
3435.89	2.80591e-06
3427.33	1.62595e-06
3418.77	2.07293e-06
3410.21	3.24389e-06
3401.66	-8.9697e-07
3393.1	4.67384e-07
3384.54	1.24696e-06
3375.98	2.7659e-07
3367.43	-4.65384e-07
3358.87	2.38692e-06
3350.31	1.14996e-06
3341.75	2.31392e-06
3333.2	1.15296e-06
3324.64	5.68781e-07
3316.08	-8.53671e-07
3307.52	3.54588e-06
3298.96	1.61495e-06
3290.41	1.10296e-06
3281.85	6.47078e-07
3273.29	1.24996e-06
3264.73	2.71891e-06
3256.18	7.49375e-07
3247.62	7.63674e-07
3239.06	3.44988e-07
3230.5	3.1229e-06
3221.95	4.76584e-06
3213.39	4.65485e-06
3204.83	5.05983e-06
3196.27	4.10686e-06
3187.72	3.53688e-06
3179.16	5.56481e-06
3170.6	3.29889e-06
3162.04	3.56588e-06
3153.48	4.53985e-06
3144.93	2.39492e-06
3136.37	4.30886e-06
3127.81	2.8929e-06
3119.25	6.63278e-06
3110.7	3.0379e-06
3102.14	4.00487e-06
3093.58	4.39985e-06
3085.02	5.9898e-06
3076.47	5.9278e-06
3067.91	6.29879e-06
3059.35	7.43775e-06
3050.79	8.32772e-06
3042.24	9.30869e-06
3033.68	8.8927e-06
3025.12	1.04297e-05
3016.56	1.17596e-05
3008.01	2.59291e-05
2999.45	6.12679e-05
2990.89	0.000148795
2982.33	0.000342589
2973.77	0.000447785
2965.22	0.000492984
2956.66	0.000457885
2948.1	0.000452185
2939.54	0.000459485
2930.99	0.000399187
2922.43	0.000338589
2913.87	0.00029349
2905.31	0.000273391
2896.76	0.00031319
2888.2	0.000329189
2879.64	0.000333289
2871.08	0.000237392
2862.53	0.000167394
2853.97	0.000117096
2845.41	7.83673e-05
2836.85	5.01883e-05
2828.3	3.50888e-05
2819.74	2.73091e-05
2811.18	2.43492e-05
2802.62	2.33092e-05
2794.06	2.18993e-05
2785.51	2.14193e-05
2776.95	1.95993e-05
2768.39	1.80794e-05
2759.83	1.80294e-05
2751.28	1.83294e-05
2742.72	1.67894e-05
2734.16	1.34995e-05
2725.6	1.27096e-05
2717.05	1.06696e-05
2708.49	1.02097e-05
2699.93	8.35272e-06
2691.37	7.98774e-06
2682.82	7.16476e-06
2674.26	7.25176e-06
2665.7	6.98977e-06
2657.14	6.69478e-06
2648.59	6.64278e-06
2640.03	4.29486e-06
2631.47	5.02483e-06
2622.91	3.41589e-06
2614.35	3.1189e-06
2605.8	4.75284e-06
2597.24	3.36189e-06
2588.68	3.22889e-06
2580.12	2.8599e-06
2571.57	3.86887e-06
2563.01	2.47192e-06
2554.45	1.55295e-06
2545.89	1.27996e-06
2537.34	4.62284e-07
2528.78	2.57091e-06
2520.22	1.73094e-06
2511.66	1.81094e-06
2503.11	1.62294e-06
2494.55	2.46392e-06
2485.99	2.50092e-06
2477.43	1.30396e-06
2468.87	1.96193e-06
2460.32	1.67494e-06
2451.76	2.05393e-06
2443.2	2.9249e-06
2434.64	3.55688e-06
2426.09	2.8549e-06
2417.53	3.99487e-06
2408.97	4.30086e-06
2400.41	2.9429e-06
2391.86	2.47492e-06
2383.3	2.40092e-06
2374.74	4.10086e-06
2366.18	3.51888e-06
2357.63	2.66691e-06
2349.07	2.9949e-06
2340.51	3.0059e-06
2331.95	3.0799e-06
2323.4	3.46688e-06
2314.84	2.59391e-06
2306.28	2.54991e-06
2297.72	2.72691e-06
2289.16	2.06193e-06
2280.61	2.56591e-06
2272.05	2.06793e-06
2263.49	1.40995e-06
2254.93	1.63095e-06
2246.38	1.75894e-06
2237.82	5.56181e-07
2229.26	2.15993e-06
2220.7	8.7887e-07
2212.15	1.61295e-06
2203.59	1.30896e-06
2195.03	7.50375e-07
2186.47	2.19293e-06
2177.92	2.38892e-06
2169.36	1.55395e-06
2160.8	1.31496e-06
2152.24	1.35495e-06
2143.69	1.38995e-06
2135.13	1.84194e-06
2126.57	1.03696e-06
2118.01	2.10993e-06
2109.45	1.36895e-06
2100.9	1.68394e-06
2092.34	1.78694e-06
2083.78	5.17082e-07
2075.22	1.20496e-06
2066.67	2.08893e-06
2058.11	1.70694e-06
2049.55	2.62191e-06
2040.99	2.8889e-06
2032.44	3.44088e-06
2023.88	3.38789e-06
2015.32	2.52092e-06
2006.76	2.20893e-06
1998.21	1.76394e-06
1989.65	1.42395e-06
1981.09	2.21293e-06
1972.53	1.44695e-06
1963.97	9.52868e-07
1955.42	2.07293e-06
1946.86	1.37595e-06
1938.3	1.63394e-06
1929.74	1.65194e-06
1921.19	9.81766e-07
1912.63	1.64695e-06
1904.07	1.92994e-06
1895.51	1.08696e-06
1886.96	1.30596e-06
1878.4	9.91067e-07
1869.84	1.26496e-06
1861.28	1.13096e-06
1852.73	1.28696e-06
1844.17	4.02586e-06
1835.61	1.26996e-06
1827.05	1.47395e-06
1818.5	6.97577e-07
1809.94	1.55795e-06
1801.38	2.46792e-06
1792.82	2.63991e-06
1784.26	8.19172e-07
1775.71	1.53995e-06
1767.15	9.97866e-07
1758.59	1.59995e-06
1750.03	1.80194e-06
1741.48	1.61495e-06
1732.92	1.33696e-06
1724.36	1.87794e-06
1715.8	2.44292e-06
1707.25	1.83094e-06
1698.69	1.53095e-06
1690.13	2.31092e-06
1681.57	2.44992e-06
1673.02	2.39592e-06
1664.46	6.26979e-07
1655.9	2.33592e-06
1647.34	2.44992e-06
1638.79	1.34895e-06
1630.23	1.96493e-06
1621.67	2.24992e-06
1613.11	2.61091e-06
1604.55	2.17993e-06
1596	1.26696e-06
1587.44	2.25392e-06
1578.88	2.9539e-06
1570.32	2.18493e-06
1561.77	2.62391e-06
1553.21	2.9149e-06
1544.65	3.19189e-06
1536.09	3.0309e-06
1527.54	3.52088e-06
1518.98	4.93784e-06
1510.42	7.08876e-06
1501.86	1.43195e-05
1493.31	2.78891e-05
1484.75	4.52685e-05
1476.19	5.9188e-05
1467.63	6.39178e-05
1459.08	5.8508e-05
1450.52	4.82884e-05
1441.96	3.55488e-05
1433.4	2.68791e-05
1424.84	2.40392e-05
1416.29	2.77391e-05
1407.73	4.18186e-05
1399.17	6.99677e-05
1390.61	9.16369e-05
1382.06	7.70974e-05
1373.5	5.8228e-05
1364.94	3.87187e-05
1356.38	3.55288e-05
1347.83	3.37189e-05
1339.27	3.48288e-05
1330.71	2.8989e-05
1322.15	2.54991e-05
1313.6	2.49692e-05
1305.04	2.77591e-05
1296.48	3.17689e-05
1287.92	3.51888e-05
1279.36	3.77687e-05
1270.81	3.70488e-05
1262.25	3.50688e-05
1253.69	3.27689e-05
1245.13	3.16689e-05
1236.58	3.46988e-05
1228.02	4.26686e-05
1219.46	4.74684e-05
1210.9	5.04683e-05
1202.35	4.39185e-05
1193.79	3.76287e-05
1185.23	2.8589e-05
1176.67	2.38192e-05
1168.12	1.97093e-05
1159.56	1.78194e-05
1151	1.71994e-05
1142.44	1.84494e-05
1133.89	2.21793e-05
1125.33	2.79691e-05
1116.77	3.77387e-05
1108.21	4.68384e-05
1099.65	7.11176e-05
1091.1	0.000107896
1082.54	0.000171194
1073.98	0.000210593
1065.42	0.000211793
1056.87	0.000212293
1048.31	0.000201493
1039.75	0.000202193
1031.19	0.000148595
1022.64	0.000119496
1014.08	8.57772e-05
1005.52	6.49578e-05
996.963	6.0658e-05
988.406	4.49685e-05
979.848	4.49485e-05
971.29	4.03787e-05
962.733	4.90884e-05
954.175	5.65881e-05
945.618	5.29982e-05
937.06	3.67388e-05
928.502	2.31992e-05
919.945	1.64495e-05
911.387	1.47495e-05
902.829	1.39395e-05
894.272	1.45095e-05
885.714	9.61168e-06
877.157	9.28269e-06
868.599	1.31196e-05
860.041	1.84994e-05
851.484	2.52492e-05
842.926	2.46692e-05
834.368	1.57395e-05
825.811	1.39995e-05
817.253	8.59271e-06
808.696	5.61881e-06
800.138	6.30079e-06
791.58	6.09579e-06
783.023	4.91984e-06
774.465	5.05683e-06
765.907	3.87087e-06
757.35	8.21873e-06
748.792	9.56668e-06
740.235	8.69071e-06
731.677	7.82374e-06
723.119	6.57478e-06
714.562	3.54888e-06
706.004	3.95887e-06
697.446	1.90194e-06
688.889	2.26592e-06
680.331	2.43192e-06
671.774	3.52688e-06
663.216	2.00993e-06
654.658	3.33189e-06
646.101	4.85084e-06
637.543	4.68184e-06
628.985	5.53982e-06
620.428	4.62085e-06
611.87	1.44795e-06
603.313	6.0788e-06
594.755	4.00287e-06
586.197	1.04297e-05
577.64	7.53675e-06
