Infrared Spectrum: 1-Butanol
Formula: C H3 C H2 C H2 C H2 O H
CAS: 71-36-3
State: gas
Melting point: -89.53 C
Boiling point: 117.25 C
Class: IUPAC A
Instrument: IFS66V (Bruker)
Instrument parameters: KBr Beam splitter; MCT Detector; Multipass cell
Sampling: 1 L/min Flow
Resolution: 1.9290
Temperature: 23 C
Pressure: 101.3 kPa
Origin: NIST, Anayltical Chemistry Division, 301-975-3108
cm-1	(micromol/mol)-1m-1 (base 10)
574.687	3.14354e-06
583.365	3.64318e-06
592.043	4.4277e-06
600.721	4.04073e-06
609.4	3.75344e-06
618.078	3.92649e-06
626.756	4.5858e-06
635.434	4.01757e-06
644.112	3.42275e-06
652.79	3.72972e-06
661.469	3.96984e-06
670.147	3.50432e-06
678.825	3.39533e-06
687.503	3.76615e-06
696.181	3.59727e-06
704.859	3.46642e-06
713.537	4.00375e-06
722.216	5.30667e-06
730.894	7.65872e-06
739.572	1.03277e-05
748.25	9.19046e-06
756.928	7.26458e-06
765.606	5.36972e-06
774.285	4.21804e-06
782.963	4.69026e-06
791.641	5.63725e-06
800.319	6.62377e-06
808.997	7.50081e-06
817.675	8.77414e-06
826.353	1.26361e-05
835.032	1.96789e-05
843.71	2.40371e-05
852.388	2.54491e-05
861.066	1.8995e-05
869.744	1.25779e-05
878.422	9.9033e-06
887.101	1.01014e-05
895.779	1.27271e-05
904.457	1.40708e-05
913.135	1.44234e-05
921.813	1.73499e-05
930.491	2.72815e-05
939.169	4.2044e-05
947.848	5.28899e-05
956.526	5.4684e-05
965.204	4.73551e-05
973.882	3.99813e-05
982.56	4.5099e-05
991.238	4.94831e-05
999.917	6.088e-05
1008.59	7.19831e-05
1017.27	9.60952e-05
1025.95	0.00012729
1034.63	0.000173205
1043.31	0.000202762
1051.99	0.00020711
1060.66	0.00020515
1069.34	0.000220249
1078.02	0.000199654
1086.7	0.000138209
1095.38	8.74227e-05
1104.05	5.81299e-05
1112.73	4.16659e-05
1121.41	3.15135e-05
1130.09	2.43895e-05
1138.77	1.95232e-05
1147.45	1.721e-05
1156.12	1.69847e-05
1164.8	1.8504e-05
1173.48	2.18751e-05
1182.16	2.70336e-05
1190.84	3.45595e-05
1199.51	4.20127e-05
1208.19	4.82315e-05
1216.87	4.89334e-05
1225.55	4.38356e-05
1234.23	3.65382e-05
1242.9	3.2713e-05
1251.58	3.26228e-05
1260.26	3.48196e-05
1268.94	3.70956e-05
1277.62	3.8685e-05
1286.3	3.66604e-05
1294.97	3.26291e-05
1303.65	2.7585e-05
1312.33	2.52243e-05
1321.01	2.47989e-05
1329.69	2.81412e-05
1338.36	3.31935e-05
1347.04	3.41941e-05
1355.72	3.4035e-05
1364.4	3.73533e-05
1373.08	5.71125e-05
1381.76	7.76975e-05
1390.43	9.10172e-05
1399.11	6.90064e-05
1407.79	4.22103e-05
1416.47	2.76921e-05
1425.15	2.41566e-05
1433.82	2.77882e-05
1442.5	3.67488e-05
1451.18	4.89961e-05
1459.86	5.92606e-05
1468.54	6.19872e-05
1477.22	5.76004e-05
1485.89	4.22608e-05
1494.57	2.5413e-05
1503.25	1.27761e-05
1511.93	7.01903e-06
1520.61	5.29257e-06
1529.28	3.79527e-06
1537.96	3.83135e-06
1546.64	3.20955e-06
1555.32	3.1449e-06
1564	2.74698e-06
1572.67	2.56907e-06
1581.35	2.34568e-06
1590.03	2.27483e-06
1598.71	2.14975e-06
1607.39	2.09915e-06
1616.07	2.69347e-06
1624.74	1.99241e-06
1633.42	1.75979e-06
1642.1	1.77476e-06
1650.78	2.01647e-06
1659.46	1.66461e-06
1668.13	1.77239e-06
1676.81	1.78779e-06
1685.49	2.49639e-06
1694.17	1.86366e-06
1702.85	1.6847e-06
1711.53	1.59306e-06
1720.2	1.43725e-06
1728.88	1.44197e-06
1737.56	1.50774e-06
1746.24	1.48013e-06
1754.92	1.44149e-06
1763.59	1.37395e-06
1772.27	1.82086e-06
1780.95	1.42118e-06
1789.63	1.45054e-06
1798.31	1.57987e-06
1806.98	1.46261e-06
1815.66	1.25814e-06
1824.34	1.2977e-06
1833.02	1.1496e-06
1841.7	1.19949e-06
1850.38	1.23102e-06
1859.05	1.37413e-06
1867.73	1.58602e-06
1876.41	1.4059e-06
1885.09	1.20218e-06
1893.77	1.36059e-06
1902.44	1.42683e-06
1911.12	1.60837e-06
1919.8	1.64771e-06
1928.48	1.67928e-06
1937.16	1.40726e-06
1945.84	1.37175e-06
1954.51	1.45589e-06
1963.19	1.43968e-06
1971.87	1.67324e-06
1980.55	1.78187e-06
1989.23	1.72369e-06
1997.9	1.63668e-06
2006.58	1.85159e-06
2015.26	2.25547e-06
2023.94	2.96067e-06
2032.62	3.36049e-06
2041.3	3.44403e-06
2049.97	2.83122e-06
2058.65	2.1179e-06
2067.33	1.79348e-06
2076.01	1.66966e-06
2084.69	1.62774e-06
2093.36	1.61822e-06
2102.04	1.53517e-06
2110.72	1.26903e-06
2119.4	1.02126e-06
2128.08	9.38009e-07
2136.75	8.74934e-07
2145.43	9.70699e-07
2154.11	1.09459e-06
2162.79	1.27011e-06
2171.47	1.56486e-06
2180.15	1.61973e-06
2188.82	1.77581e-06
2197.5	1.6795e-06
2206.18	1.71162e-06
2214.86	1.65746e-06
2223.54	1.51505e-06
2232.21	1.52926e-06
2240.89	1.59657e-06
2249.57	1.50206e-06
2258.25	1.69705e-06
2266.93	1.7281e-06
2275.61	2.15039e-06
2284.28	2.11993e-06
2292.96	2.13948e-06
2301.64	2.23772e-06
2310.32	2.53771e-06
2319	2.63059e-06
2327.67	2.93216e-06
2336.35	2.95458e-06
2345.03	2.8077e-06
2353.71	2.49392e-06
2362.39	2.82842e-06
2371.06	2.69075e-06
2379.74	2.70639e-06
2388.42	2.92645e-06
2397.1	2.92647e-06
2405.78	3.38289e-06
2414.46	3.49117e-06
2423.13	3.48812e-06
2431.81	3.1201e-06
2440.49	2.89042e-06
2449.17	2.46595e-06
2457.85	2.18082e-06
2466.52	2.19024e-06
2475.2	1.98188e-06
2483.88	1.85865e-06
2492.56	2.02968e-06
2501.24	1.86857e-06
2509.92	1.97957e-06
2518.59	1.85955e-06
2527.27	2.03782e-06
2535.95	2.14073e-06
2544.63	2.27092e-06
2553.31	2.36985e-06
2561.98	2.34978e-06
2570.66	2.73691e-06
2579.34	2.97234e-06
2588.02	3.39371e-06
2596.7	3.67491e-06
2605.38	3.78927e-06
2614.05	4.24295e-06
2622.73	4.41157e-06
2631.41	4.76829e-06
2640.09	5.06935e-06
2648.77	5.61201e-06
2657.44	6.09978e-06
2666.12	7.02456e-06
2674.8	7.5948e-06
2683.48	8.2227e-06
2692.16	8.58647e-06
2700.83	8.90177e-06
2709.51	9.47328e-06
2718.19	1.0326e-05
2726.87	1.19301e-05
2735.55	1.43253e-05
2744.23	1.64195e-05
2752.9	1.7823e-05
2761.58	1.78985e-05
2770.26	1.86522e-05
2778.94	1.99476e-05
2787.62	2.18594e-05
2796.29	2.27974e-05
2804.97	2.34174e-05
2813.65	2.50441e-05
2822.33	2.93971e-05
2831.01	3.94182e-05
2839.69	5.85039e-05
2848.36	9.14904e-05
2857.04	0.000134283
2865.72	0.000192751
2874.4	0.000275017
2883.08	0.000331776
2891.75	0.000335182
2900.43	0.000285321
2909.11	0.000277882
2917.79	0.00031262
2926.47	0.00036551
2935.14	0.000428908
2943.82	0.000464021
2952.5	0.000451829
2961.18	0.000470042
2969.86	0.000498355
2978.54	0.000404877
2987.21	0.00022147
2995.89	8.79358e-05
3004.57	3.53389e-05
3013.25	1.69778e-05
3021.93	1.16827e-05
3030.6	9.94741e-06
3039.28	9.30878e-06
3047.96	9.06066e-06
3056.64	8.28805e-06
3065.32	7.4488e-06
3074	5.9366e-06
3082.67	5.36937e-06
3091.35	4.69112e-06
3100.03	4.62386e-06
3108.71	4.32516e-06
3117.39	4.15407e-06
3126.06	3.84381e-06
3134.74	4.03348e-06
3143.42	3.88864e-06
3152.1	3.90105e-06
3160.78	3.93429e-06
3169.46	4.05012e-06
3178.13	3.88465e-06
3186.81	4.26318e-06
3195.49	4.45487e-06
3204.17	4.18531e-06
3212.85	3.77069e-06
3221.52	3.11022e-06
3230.2	2.24025e-06
3238.88	1.6312e-06
3247.56	1.81135e-06
3256.24	1.50666e-06
3264.91	1.40675e-06
3273.59	1.22121e-06
3282.27	9.67949e-07
3290.95	1.12026e-06
3299.63	1.46867e-06
3308.31	1.55175e-06
3316.98	1.77336e-06
3325.66	1.52325e-06
3334.34	1.45311e-06
3343.02	1.25194e-06
3351.7	1.28054e-06
3360.37	1.39758e-06
3369.05	1.39785e-06
3377.73	1.30184e-06
3386.41	1.37836e-06
3395.09	1.52068e-06
3403.77	1.45262e-06
3412.44	1.75279e-06
3421.12	2.46464e-06
3429.8	2.61154e-06
3438.48	2.31406e-06
3447.16	2.37471e-06
3455.83	2.46683e-06
3464.51	3.01075e-06
3473.19	3.11443e-06
3481.87	3.2023e-06
3490.55	2.925e-06
3499.22	2.51976e-06
3507.9	2.19523e-06
3516.58	2.2957e-06
3525.26	2.17499e-06
3533.94	2.56431e-06
3542.62	2.18231e-06
3551.29	2.22699e-06
3559.97	2.20684e-06
3568.65	2.39512e-06
3577.33	2.11205e-06
3586.01	2.17092e-06
3594.68	2.52267e-06
3603.36	2.83372e-06
3612.04	3.67867e-06
3620.72	4.97519e-06
3629.4	8.13634e-06
3638.08	1.4236e-05
3646.75	2.86006e-05
3655.43	4.78543e-05
3664.11	6.69779e-05
3672.79	7.85069e-05
3681.47	6.4339e-05
3690.14	3.76825e-05
3698.82	1.45352e-05
3707.5	6.89358e-06
3716.18	4.61095e-06
3724.86	4.10221e-06
3733.54	3.8016e-06
3742.21	3.66238e-06
3750.89	3.65233e-06
3759.57	3.34052e-06
3768.25	3.06301e-06
3776.93	3.07699e-06
3785.6	3.32846e-06
3794.28	3.3281e-06
3802.96	3.9267e-06
3811.64	3.4005e-06
3820.32	4.00374e-06
3828.99	3.84151e-06
3837.67	5.00128e-06
3846.35	4.5489e-06
3855.03	5.69019e-06
3863.71	5.03947e-06
3872.39	5.06003e-06
3881.06	4.48498e-06
3889.74	3.85652e-06
3898.42	3.19776e-06
3907.1	2.82631e-06
3915.78	2.61077e-06
3924.45	2.6103e-06
3933.13	2.52069e-06
3941.81	2.38205e-06
3950.49	2.01617e-06
3959.17	2.35044e-06
3967.85	2.27923e-06
