Infrared Spectrum: 1-Butanol
Formula: C H3 C H2 C H2 C H2 O H
CAS: 71-36-3
State: gas
Melting point: -89.53 C
Boiling point: 117.25 C
Class: IUPAC A
Instrument: IFS66V (Bruker)
Instrument parameters: KBr Beam splitter; MCT Detector; Multipass cell
Sampling: 1 L/min Flow
Resolution: 0.4820
Temperature: 23 C
Pressure: 101.3 kPa
Origin: NIST, Anayltical Chemistry Division, 301-975-3108
cm-1	(micromol/mol)-1m-1 (base 10)
574.928	9.84603e-07
583.606	4.37539e-06
592.284	6.19935e-06
600.962	4.72948e-06
609.641	3.41871e-06
618.319	4.12547e-06
626.997	4.72663e-06
635.675	3.82702e-06
644.353	3.01293e-06
653.031	1.97731e-06
661.71	3.44347e-06
670.388	3.18166e-06
679.066	3.34551e-06
687.744	3.42999e-06
696.422	4.13634e-06
705.1	3.11311e-06
713.778	3.85776e-06
722.457	4.82707e-06
731.135	7.53482e-06
739.813	1.03699e-05
748.491	9.70063e-06
757.169	7.59488e-06
765.847	4.73712e-06
774.526	4.67941e-06
783.204	5.24167e-06
791.882	5.56993e-06
800.56	5.97028e-06
809.238	8.31042e-06
817.916	8.65995e-06
826.594	1.31185e-05
835.273	2.0101e-05
843.951	2.35787e-05
852.629	2.56049e-05
861.307	1.87046e-05
869.985	1.25362e-05
878.663	1.03374e-05
887.342	1.02534e-05
896.02	1.32595e-05
904.698	1.43293e-05
913.376	1.4453e-05
922.054	1.73093e-05
930.732	2.76447e-05
939.41	4.26218e-05
948.089	5.2638e-05
956.767	5.45018e-05
965.445	4.69494e-05
974.123	4.00871e-05
982.801	4.51648e-05
991.479	5.10847e-05
1000.16	6.09885e-05
1008.84	7.26829e-05
1017.51	9.66899e-05
1026.19	0.000128072
1034.87	0.000174478
1043.55	0.000201982
1052.23	0.000207114
1060.9	0.000204874
1069.58	0.000221301
1078.26	0.000200154
1086.94	0.000136736
1095.62	8.66544e-05
1104.3	5.75017e-05
1112.97	4.13722e-05
1121.65	3.11437e-05
1130.33	2.39918e-05
1139.01	1.91561e-05
1147.69	1.70323e-05
1156.36	1.72627e-05
1165.04	1.82597e-05
1173.72	2.20953e-05
1182.4	2.72385e-05
1191.08	3.51857e-05
1199.76	4.22883e-05
1208.43	4.88025e-05
1217.11	4.87766e-05
1225.79	4.36281e-05
1234.47	3.64693e-05
1243.15	3.26716e-05
1251.82	3.24965e-05
1260.5	3.47294e-05
1269.18	3.70865e-05
1277.86	3.87159e-05
1286.54	3.64596e-05
1295.21	3.26256e-05
1303.89	2.75831e-05
1312.57	2.51646e-05
1321.25	2.48601e-05
1329.93	2.86251e-05
1338.61	3.31721e-05
1347.28	3.40796e-05
1355.96	3.39662e-05
1364.64	3.75769e-05
1373.32	5.78286e-05
1382	7.74699e-05
1390.67	9.16377e-05
1399.35	6.85043e-05
1408.03	4.18021e-05
1416.71	2.72666e-05
1425.39	2.41334e-05
1434.07	2.78419e-05
1442.74	3.71747e-05
1451.42	4.90504e-05
1460.1	5.95749e-05
1468.78	6.19439e-05
1477.46	5.76498e-05
1486.13	4.1854e-05
1494.81	2.48482e-05
1503.49	1.2509e-05
1512.17	7.56065e-06
1520.85	5.202e-06
1529.52	3.6409e-06
1538.2	3.59596e-06
1546.88	3.27797e-06
1555.56	2.80462e-06
1564.24	2.65466e-06
1572.92	2.5332e-06
1581.59	2.40511e-06
1590.27	2.24982e-06
1598.95	2.07267e-06
1607.63	2.17809e-06
1616.31	3.08501e-06
1624.98	1.7494e-06
1633.66	1.42969e-06
1642.34	1.9274e-06
1651.02	1.78581e-06
1659.7	1.66986e-06
1668.38	1.75552e-06
1677.05	1.75073e-06
1685.73	1.57402e-06
1694.41	1.69287e-06
1703.09	1.72551e-06
1711.77	1.63389e-06
1720.44	1.43356e-06
1729.12	1.33483e-06
1737.8	1.62565e-06
1746.48	1.50058e-06
1755.16	1.25248e-06
1763.84	1.19965e-06
1772.51	2.48932e-06
1781.19	1.23483e-06
1789.87	1.77504e-06
1798.55	1.44716e-06
1807.23	1.36016e-06
1815.9	1.07477e-06
1824.58	1.18668e-06
1833.26	1.23069e-06
1841.94	1.04092e-06
1850.62	1.39302e-06
1859.29	1.52512e-06
1867.97	1.7852e-06
1876.65	1.34012e-06
1885.33	1.26642e-06
1894.01	1.80359e-06
1902.69	1.46899e-06
1911.36	1.62253e-06
1920.04	1.71619e-06
1928.72	1.64948e-06
1937.4	1.18015e-06
1946.08	1.32307e-06
1954.75	1.56576e-06
1963.43	1.23896e-06
1972.11	1.70038e-06
1980.79	1.80441e-06
1989.47	1.76353e-06
1998.15	1.54766e-06
2006.82	2.043e-06
2015.5	2.29843e-06
2024.18	3.18821e-06
2032.86	3.26717e-06
2041.54	3.39486e-06
2050.21	2.75643e-06
2058.89	2.13606e-06
2067.57	1.82962e-06
2076.25	1.39506e-06
2084.93	1.57587e-06
2093.6	1.55606e-06
2102.28	1.49026e-06
2110.96	1.24336e-06
2119.64	1.03382e-06
2128.32	8.37808e-07
2137	7.38814e-07
2145.67	1.22672e-06
2154.35	1.04953e-06
2163.03	1.38811e-06
2171.71	1.69639e-06
2180.39	1.52892e-06
2189.06	1.87913e-06
2197.74	1.68416e-06
2206.42	1.72711e-06
2215.1	1.65757e-06
2223.78	1.39433e-06
2232.46	1.60584e-06
2241.13	1.76168e-06
2249.81	1.54674e-06
2258.49	1.57104e-06
2267.17	1.50859e-06
2275.85	2.37911e-06
2284.52	2.20864e-06
2293.2	2.04968e-06
2301.88	2.1412e-06
2310.56	2.44966e-06
2319.24	2.78235e-06
2327.92	2.45469e-06
2336.59	2.57441e-06
2345.27	2.75634e-06
2353.95	2.23398e-06
2362.63	3.48556e-06
2371.31	2.68092e-06
2379.98	2.68499e-06
2388.66	2.81271e-06
2397.34	2.76298e-06
2406.02	3.40104e-06
2414.7	3.60585e-06
2423.37	3.54115e-06
2432.05	3.33945e-06
2440.73	2.92282e-06
2449.41	2.59605e-06
2458.09	2.17035e-06
2466.77	2.42029e-06
2475.44	2.18786e-06
2484.12	1.83973e-06
2492.8	1.87993e-06
2501.48	1.58707e-06
2510.16	2.10662e-06
2518.83	1.8049e-06
2527.51	1.96941e-06
2536.19	1.97052e-06
2544.87	2.22737e-06
2553.55	2.3957e-06
2562.23	2.43352e-06
2570.9	2.67943e-06
2579.58	2.84063e-06
2588.26	3.49438e-06
2596.94	3.54521e-06
2605.62	3.89593e-06
2614.29	4.06863e-06
2622.97	4.2235e-06
2631.65	4.92988e-06
2640.33	4.74116e-06
2649.01	5.67867e-06
2657.68	6.25065e-06
2666.36	7.05371e-06
2675.04	7.69752e-06
2683.72	8.58187e-06
2692.4	8.64848e-06
2701.08	8.79271e-06
2709.75	9.26181e-06
2718.43	1.02779e-05
2727.11	1.19327e-05
2735.79	1.45208e-05
2744.47	1.66575e-05
2753.14	1.76292e-05
2761.82	1.79528e-05
2770.5	1.8489e-05
2779.18	2.01462e-05
2787.86	2.18456e-05
2796.54	2.26244e-05
2805.21	2.37321e-05
2813.89	2.5019e-05
2822.57	2.95889e-05
2831.25	3.97101e-05
2839.93	5.92266e-05
2848.6	9.30268e-05
2857.28	0.000135376
2865.96	0.000193974
2874.64	0.000277715
2883.32	0.000331094
2892	0.000336765
2900.67	0.000283313
2909.35	0.000278408
2918.03	0.000313848
2926.71	0.000366808
2935.39	0.000431036
2944.06	0.000465534
2952.74	0.000451822
2961.42	0.000470241
2970.1	0.000491523
2978.78	0.000403107
2987.45	0.000215601
2996.13	8.52464e-05
3004.81	3.41666e-05
3013.49	1.61586e-05
3022.17	1.15626e-05
3030.85	1.01076e-05
3039.52	8.52536e-06
3048.2	9.01934e-06
3056.88	8.22358e-06
3065.56	7.53588e-06
3074.24	6.01275e-06
3082.91	5.18986e-06
3091.59	4.93181e-06
3100.27	4.68787e-06
3108.95	4.25055e-06
3117.63	4.16538e-06
3126.31	4.07179e-06
3134.98	4.449e-06
3143.66	3.63536e-06
3152.34	4.03304e-06
3161.02	3.90232e-06
3169.7	4.06083e-06
3178.37	3.42468e-06
3187.05	4.45565e-06
3195.73	4.5461e-06
3204.41	4.559e-06
3213.09	4.06174e-06
3221.77	3.19927e-06
3230.44	1.80662e-06
3239.12	1.64303e-06
3247.8	1.9801e-06
3256.48	2.22035e-06
3265.16	2.00233e-06
3273.83	9.5576e-07
3282.51	4.68687e-07
3291.19	5.32662e-07
3299.87	1.35888e-06
3308.55	1.41046e-06
3317.22	1.22375e-06
3325.9	1.93179e-06
3334.58	1.30558e-06
3343.26	1.02958e-06
3351.94	1.02358e-06
3360.62	1.53341e-06
3369.29	1.02597e-06
3377.97	1.24351e-06
3386.65	1.24414e-06
3395.33	1.34737e-06
3404.01	1.67688e-06
3412.68	1.86608e-06
3421.36	3.18106e-06
3430.04	2.92699e-06
3438.72	2.38943e-06
3447.4	2.49151e-06
3456.08	1.79774e-06
3464.75	3.04738e-06
3473.43	2.98175e-06
3482.11	3.30993e-06
3490.79	2.84902e-06
3499.47	2.61552e-06
3508.14	2.47693e-06
3516.82	2.29133e-06
3525.5	1.46362e-06
3534.18	2.87665e-06
3542.86	2.54089e-06
3551.53	1.82478e-06
3560.21	2.23442e-06
3568.89	2.01168e-06
3577.57	1.63452e-06
3586.25	2.3577e-06
3594.93	2.24621e-06
3603.6	2.84098e-06
3612.28	3.72974e-06
3620.96	5.39701e-06
3629.64	8.91581e-06
3638.32	1.4336e-05
3646.99	2.96473e-05
3655.67	4.92804e-05
3664.35	6.73673e-05
3673.03	7.85919e-05
3681.71	6.26936e-05
3690.39	3.68173e-05
3699.06	1.42718e-05
3707.74	6.53719e-06
3716.42	4.79861e-06
3725.1	4.01749e-06
3733.78	3.63944e-06
3742.45	3.53943e-06
3751.13	3.11628e-06
3759.81	4.10406e-06
3768.49	3.2357e-06
3777.17	3.42477e-06
3785.85	3.26946e-06
3794.52	2.89893e-06
3803.2	3.53284e-06
3811.88	3.69068e-06
3820.56	4.44659e-06
3829.24	4.24166e-06
3837.91	6.98128e-06
3846.59	4.7129e-06
3855.27	4.92533e-06
3863.95	5.37655e-06
3872.63	5.28934e-06
3881.3	4.24695e-06
3889.98	3.73212e-06
3898.66	3.20293e-06
3907.34	3.08895e-06
3916.02	2.22908e-06
3924.7	2.40117e-06
3933.37	2.25387e-06
3942.05	2.05455e-06
3950.73	1.46536e-06
3959.41	2.26837e-06
3968.09	2.18287e-06
