Infrared Spectrum: 1-Butanol
Formula: C H3 C H2 C H2 C H2 O H
CAS: 71-36-3
State: gas
Melting point: -89.53 C
Boiling point: 117.25 C
Class: IUPAC A
Instrument: IFS66V (Bruker)
Instrument parameters: KBr Beam splitter; MCT Detector; Multipass cell
Sampling: 1 L/min Flow
Resolution: 1.9290
Temperature: 23 C
Pressure: 101.3 kPa
Origin: NIST, Anayltical Chemistry Division, 301-975-3108
cm-1	(micromol/mol)-1m-1 (base 10)
574.687	2.82552e-06
583.365	3.75051e-06
592.043	4.64192e-06
600.721	4.10219e-06
609.4	3.77833e-06
618.078	3.87432e-06
626.756	4.66154e-06
635.434	4.06031e-06
644.112	3.24524e-06
652.79	3.64078e-06
661.469	3.97812e-06
670.147	3.56502e-06
678.825	3.48894e-06
687.503	3.80716e-06
696.181	3.69567e-06
704.859	3.48609e-06
713.537	3.89339e-06
722.216	5.19368e-06
730.894	7.64304e-06
739.572	1.03631e-05
748.25	9.26299e-06
756.928	7.25706e-06
765.606	5.33507e-06
774.285	4.23965e-06
782.963	4.71959e-06
791.641	5.55444e-06
800.319	6.6009e-06
808.997	7.55803e-06
817.675	8.69646e-06
826.353	1.27214e-05
835.032	1.96193e-05
843.71	2.39687e-05
852.388	2.55226e-05
861.066	1.89882e-05
869.744	1.25586e-05
878.422	9.92125e-06
887.101	1.01076e-05
895.779	1.27129e-05
904.457	1.40379e-05
913.135	1.4433e-05
921.813	1.73589e-05
930.491	2.72435e-05
939.169	4.20598e-05
947.848	5.28433e-05
956.526	5.46793e-05
965.204	4.735e-05
973.882	3.99964e-05
982.56	4.51059e-05
991.238	4.96214e-05
999.917	6.0911e-05
1008.59	7.20206e-05
1017.27	9.60289e-05
1025.95	0.000127302
1034.63	0.00017313
1043.31	0.000202739
1051.99	0.000206953
1060.66	0.000205019
1069.34	0.000220637
1078.02	0.000199839
1086.7	0.000138237
1095.38	8.73681e-05
1104.05	5.81074e-05
1112.73	4.16564e-05
1121.41	3.15018e-05
1130.09	2.43637e-05
1138.77	1.95096e-05
1147.45	1.72083e-05
1156.12	1.69975e-05
1164.8	1.84718e-05
1173.48	2.18777e-05
1182.16	2.70729e-05
1190.84	3.45869e-05
1199.51	4.19798e-05
1208.19	4.82752e-05
1216.87	4.89375e-05
1225.55	4.38341e-05
1234.23	3.65476e-05
1242.9	3.27183e-05
1251.58	3.2585e-05
1260.26	3.48134e-05
1268.94	3.7058e-05
1277.62	3.87189e-05
1286.3	3.66372e-05
1294.97	3.26328e-05
1303.65	2.75788e-05
1312.33	2.52014e-05
1321.01	2.47825e-05
1329.69	2.8142e-05
1338.36	3.31932e-05
1347.04	3.4174e-05
1355.72	3.40142e-05
1364.4	3.73408e-05
1373.08	5.70933e-05
1381.76	7.75441e-05
1390.43	9.12641e-05
1399.11	6.90648e-05
1407.79	4.21874e-05
1416.47	2.76787e-05
1425.15	2.41332e-05
1433.82	2.77864e-05
1442.5	3.67201e-05
1451.18	4.89772e-05
1459.86	5.92301e-05
1468.54	6.20409e-05
1477.22	5.77051e-05
1485.89	4.22565e-05
1494.57	2.5351e-05
1503.25	1.27314e-05
1511.93	7.03195e-06
1520.61	5.36303e-06
1529.28	3.79374e-06
1537.96	3.75055e-06
1546.64	3.19831e-06
1555.32	3.09461e-06
1564	2.75158e-06
1572.67	2.56612e-06
1581.35	2.35125e-06
1590.03	2.29101e-06
1598.71	2.14097e-06
1607.39	2.13297e-06
1616.07	2.78192e-06
1624.74	1.95299e-06
1633.42	1.66029e-06
1642.1	1.76961e-06
1650.78	1.87179e-06
1659.46	1.68937e-06
1668.13	1.76236e-06
1676.81	1.73073e-06
1685.49	2.52928e-06
1694.17	1.72126e-06
1702.85	1.6365e-06
1711.53	1.57749e-06
1720.2	1.40508e-06
1728.88	1.4346e-06
1737.56	1.51395e-06
1746.24	1.46417e-06
1754.92	1.39634e-06
1763.59	1.33789e-06
1772.27	1.89194e-06
1780.95	1.42691e-06
1789.63	1.43032e-06
1798.31	1.56161e-06
1806.98	1.47315e-06
1815.66	1.24869e-06
1824.34	1.28431e-06
1833.02	1.14577e-06
1841.7	1.18981e-06
1850.38	1.24332e-06
1859.05	1.36562e-06
1867.73	1.60021e-06
1876.41	1.40525e-06
1885.09	1.1963e-06
1893.77	1.39856e-06
1902.44	1.42795e-06
1911.12	1.5977e-06
1919.8	1.61681e-06
1928.48	1.66465e-06
1937.16	1.36033e-06
1945.84	1.36285e-06
1954.51	1.4681e-06
1963.19	1.42904e-06
1971.87	1.67482e-06
1980.55	1.80503e-06
1989.23	1.73358e-06
1997.9	1.61586e-06
2006.58	1.86713e-06
2015.26	2.24113e-06
2023.94	2.98251e-06
2032.62	3.3546e-06
2041.3	3.44305e-06
2049.97	2.8333e-06
2058.65	2.11596e-06
2067.33	1.79288e-06
2076.01	1.65743e-06
2084.69	1.66017e-06
2093.36	1.60349e-06
2102.04	1.52986e-06
2110.72	1.27834e-06
2119.4	1.00285e-06
2128.08	9.2532e-07
2136.75	8.53317e-07
2145.43	9.81619e-07
2154.11	1.08465e-06
2162.79	1.27605e-06
2171.47	1.57037e-06
2180.15	1.61443e-06
2188.82	1.76953e-06
2197.5	1.69099e-06
2206.18	1.72371e-06
2214.86	1.66459e-06
2223.54	1.50021e-06
2232.21	1.53295e-06
2240.89	1.61399e-06
2249.57	1.48463e-06
2258.25	1.68835e-06
2266.93	1.70019e-06
2275.61	2.17128e-06
2284.28	2.1244e-06
2292.96	2.12274e-06
2301.64	2.23618e-06
2310.32	2.54404e-06
2319	2.6173e-06
2327.67	2.91697e-06
2336.35	2.95857e-06
2345.03	2.85475e-06
2353.71	2.48201e-06
2362.39	2.83541e-06
2371.06	2.67122e-06
2379.74	2.72519e-06
2388.42	2.92956e-06
2397.1	2.89945e-06
2405.78	3.38007e-06
2414.46	3.49418e-06
2423.13	3.49854e-06
2431.81	3.11485e-06
2440.49	2.90509e-06
2449.17	2.47216e-06
2457.85	2.16778e-06
2466.52	2.19234e-06
2475.2	2.0169e-06
2483.88	1.8286e-06
2492.56	2.01974e-06
2501.24	1.86537e-06
2509.92	1.99961e-06
2518.59	1.82585e-06
2527.27	2.03004e-06
2535.95	2.10221e-06
2544.63	2.27455e-06
2553.31	2.34765e-06
2561.98	2.32686e-06
2570.66	2.75244e-06
2579.34	2.95052e-06
2588.02	3.39174e-06
2596.7	3.67673e-06
2605.38	3.79394e-06
2614.05	4.25742e-06
2622.73	4.38874e-06
2631.41	4.76668e-06
2640.09	5.02879e-06
2648.77	5.63121e-06
2657.44	6.08174e-06
2666.12	7.01608e-06
2674.8	7.5706e-06
2683.48	8.26072e-06
2692.16	8.58666e-06
2700.83	8.91998e-06
2709.51	9.43678e-06
2718.19	1.02674e-05
2726.87	1.19571e-05
2735.55	1.43157e-05
2744.23	1.64483e-05
2752.9	1.77946e-05
2761.58	1.78943e-05
2770.26	1.86594e-05
2778.94	1.9931e-05
2787.62	2.19067e-05
2796.29	2.27944e-05
2804.97	2.34591e-05
2813.65	2.50245e-05
2822.33	2.93845e-05
2831.01	3.9393e-05
2839.69	5.84756e-05
2848.36	9.14649e-05
2857.04	0.00013418
2865.72	0.00019269
2874.4	0.000274924
2883.08	0.000331653
2891.75	0.000335583
2900.43	0.00028509
2909.11	0.000277789
2917.79	0.000312665
2926.47	0.000365451
2935.14	0.000428994
2943.82	0.000464418
2952.5	0.000451685
2961.18	0.000469801
2969.86	0.000497984
2978.54	0.000405329
2987.21	0.000221212
2995.89	8.76804e-05
3004.57	3.52306e-05
3013.25	1.692e-05
3021.93	1.17224e-05
3030.6	9.99277e-06
3039.28	9.23451e-06
3047.96	9.05374e-06
3056.64	8.30066e-06
3065.32	7.49726e-06
3074	5.95261e-06
3082.67	5.38686e-06
3091.35	4.72129e-06
3100.03	4.62024e-06
3108.71	4.36468e-06
3117.39	4.19461e-06
3126.06	3.85913e-06
3134.74	4.07088e-06
3143.42	3.82166e-06
3152.1	3.88236e-06
3160.78	3.91037e-06
3169.46	4.0741e-06
3178.13	3.82127e-06
3186.81	4.24043e-06
3195.49	4.47094e-06
3204.17	4.16861e-06
3212.85	3.78035e-06
3221.52	3.16613e-06
3230.2	2.21629e-06
3238.88	1.5326e-06
3247.56	1.87161e-06
3256.24	1.53448e-06
3264.91	1.43614e-06
3273.59	1.18887e-06
3282.27	8.90162e-07
3290.95	1.15479e-06
3299.63	1.48108e-06
3308.31	1.59357e-06
3316.98	1.76013e-06
3325.66	1.54289e-06
3334.34	1.49597e-06
3343.02	1.23959e-06
3351.7	1.23718e-06
3360.37	1.40092e-06
3369.05	1.36846e-06
3377.73	1.29645e-06
3386.41	1.35909e-06
3395.09	1.49305e-06
3403.77	1.43337e-06
3412.44	1.73266e-06
3421.12	2.53717e-06
3429.8	2.58197e-06
3438.48	2.37516e-06
3447.16	2.36754e-06
3455.83	2.40488e-06
3464.51	2.96424e-06
3473.19	3.07093e-06
3481.87	3.24936e-06
3490.55	2.91905e-06
3499.22	2.48564e-06
3507.9	2.14214e-06
3516.58	2.32152e-06
3525.26	2.13541e-06
3533.94	2.63732e-06
3542.62	2.18562e-06
3551.29	2.19345e-06
3559.97	2.25388e-06
3568.65	2.38158e-06
3577.33	2.06087e-06
3586.01	2.13143e-06
3594.68	2.50494e-06
3603.36	2.85738e-06
3612.04	3.74273e-06
3620.72	4.92593e-06
3629.4	8.19824e-06
3638.08	1.41674e-05
3646.75	2.85736e-05
3655.43	4.81084e-05
3664.11	6.69401e-05
3672.79	7.86227e-05
3681.47	6.39493e-05
3690.14	3.75766e-05
3698.82	1.4541e-05
3707.5	6.81729e-06
3716.18	4.68026e-06
3724.86	4.08725e-06
3733.54	3.73078e-06
3742.21	3.64834e-06
3750.89	3.44438e-06
3759.57	3.41967e-06
3768.25	3.04956e-06
3776.93	3.0513e-06
3785.6	3.34895e-06
3794.28	3.28932e-06
3802.96	3.88132e-06
3811.64	3.41575e-06
3820.32	3.99597e-06
3828.99	3.80968e-06
3837.67	5.11295e-06
3846.35	4.54741e-06
3855.03	5.6901e-06
3863.71	5.02278e-06
3872.39	5.01868e-06
3881.06	4.50372e-06
3889.74	3.82621e-06
3898.42	3.14854e-06
3907.1	2.80846e-06
3915.78	2.60558e-06
3924.45	2.56414e-06
3933.13	2.53532e-06
3941.81	2.32241e-06
3950.49	2.00554e-06
3959.17	2.38424e-06
3967.85	2.25462e-06
