Infrared Spectrum: 1-Butanol
Formula: C H3 C H2 C H2 C H2 O H
CAS: 71-36-3
State: gas
Melting point: -89.53 C
Boiling point: 117.25 C
Class: IUPAC A
Instrument: IFS66V (Bruker)
Instrument parameters: KBr Beam splitter; MCT Detector; Multipass cell
Sampling: 1 L/min Flow
Resolution: 0.1250
Temperature: 23 C
Pressure: 101.3 kPa
Origin: NIST, Anayltical Chemistry Division, 301-975-3108
cm-1	(micromol/mol)-1m-1 (base 10)
574.988	-1.62421e-06
583.546	-1.403e-06
592.103	6.77714e-06
600.661	5.58106e-06
609.219	7.50172e-06
617.776	1.58898e-06
626.334	4.21276e-06
634.891	5.05524e-06
643.449	3.49806e-07
652.007	3.50403e-06
660.564	4.41613e-06
669.122	3.51207e-06
677.68	2.41551e-06
686.237	4.99535e-06
694.795	2.77099e-06
703.352	1.95812e-06
711.91	4.3895e-06
720.468	5.62214e-06
729.025	7.33624e-06
737.583	9.75485e-06
746.141	7.83362e-06
754.698	8.43981e-06
763.256	6.26747e-06
771.813	3.94086e-06
780.371	5.18888e-06
788.929	4.33886e-06
797.486	7.35768e-06
806.044	7.56595e-06
814.602	9.95423e-06
823.159	1.14939e-05
831.717	1.71071e-05
840.274	2.41765e-05
848.832	2.51805e-05
857.39	2.31434e-05
865.947	1.43299e-05
874.505	1.14705e-05
883.063	1.01108e-05
891.62	1.19864e-05
900.178	1.2996e-05
908.735	1.56029e-05
917.293	1.4473e-05
925.851	2.03734e-05
934.408	3.4082e-05
942.966	4.80078e-05
951.524	5.53718e-05
960.081	5.24558e-05
968.639	4.31527e-05
977.196	4.0491e-05
985.754	4.61037e-05
994.312	5.63963e-05
1002.87	6.19628e-05
1011.43	7.85656e-05
1019.98	0.000105733
1028.54	0.000136247
1037.1	0.000190216
1045.66	0.000202182
1054.22	0.000214688
1062.77	0.000203541
1071.33	0.000219426
1079.89	0.000191493
1088.45	0.000124781
1097	8.06367e-05
1105.56	5.4305e-05
1114.12	3.94938e-05
1122.68	3.06466e-05
1131.23	2.36886e-05
1139.79	1.91551e-05
1148.35	1.76343e-05
1156.91	1.68963e-05
1165.46	1.9072e-05
1174.02	2.21102e-05
1182.58	2.67787e-05
1191.14	3.56205e-05
1199.69	4.23135e-05
1208.25	4.86293e-05
1216.81	4.91764e-05
1225.37	4.37196e-05
1233.93	3.74396e-05
1242.48	3.28127e-05
1251.04	3.28256e-05
1259.6	3.47392e-05
1268.16	3.69322e-05
1276.71	3.87506e-05
1285.27	3.66963e-05
1293.83	3.3536e-05
1302.39	2.78599e-05
1310.94	2.59601e-05
1319.5	2.42186e-05
1328.06	2.68782e-05
1336.62	3.27298e-05
1345.17	3.45521e-05
1353.73	3.45205e-05
1362.29	3.49572e-05
1370.85	4.96542e-05
1379.4	7.47915e-05
1387.96	8.70232e-05
1396.52	7.55382e-05
1405.08	5.0529e-05
1413.64	3.06072e-05
1422.19	2.40102e-05
1430.75	2.63118e-05
1439.31	3.25205e-05
1447.87	4.59669e-05
1456.42	5.60781e-05
1464.98	6.75032e-05
1473.54	6.21206e-05
1482.1	4.95627e-05
1490.65	3.3646e-05
1499.21	1.78548e-05
1507.77	9.28771e-06
1516.33	5.9244e-06
1524.88	4.42501e-06
1533.44	3.98017e-06
1542	4.95028e-06
1550.56	3.20161e-06
1559.11	3.19767e-06
1567.67	2.94631e-06
1576.23	6.48203e-06
1584.79	2.2719e-06
1593.35	1.80925e-06
1601.9	2.07895e-06
1610.46	2.11227e-06
1619.02	1.87935e-06
1627.58	1.96059e-06
1636.13	1.83839e-06
1644.69	1.68802e-06
1653.25	6.54021e-06
1661.81	1.28168e-06
1670.36	1.32145e-06
1678.92	2.08821e-06
1687.48	1.33953e-06
1696.04	5.04601e-06
1704.59	1.95508e-06
1713.15	1.83668e-06
1721.71	1.68767e-06
1730.27	1.22618e-06
1738.83	1.54568e-06
1747.38	1.79662e-06
1755.94	1.53721e-06
1764.5	1.18432e-06
1773.06	1.34505e-06
1781.61	1.64976e-06
1790.17	1.23372e-06
1798.73	1.63725e-06
1807.29	1.49569e-06
1815.84	1.09006e-06
1824.4	9.33809e-07
1832.96	1.31657e-06
1841.52	1.26383e-06
1850.07	1.20707e-06
1858.63	1.48737e-06
1867.19	1.31359e-06
1875.75	1.55502e-06
1884.3	1.47156e-06
1892.86	1.67751e-06
1901.42	1.22678e-06
1909.98	1.57747e-06
1918.54	1.38752e-06
1927.09	2.07021e-06
1935.65	1.63345e-06
1944.21	1.68817e-06
1952.77	1.05405e-06
1961.32	1.36153e-06
1969.88	1.84335e-06
1978.44	1.80064e-06
1987	1.50281e-06
1995.55	1.48039e-06
2004.11	1.85386e-06
2012.67	2.25798e-06
2021.23	2.65102e-06
2029.78	3.19843e-06
2038.34	3.20396e-06
2046.9	2.63626e-06
2055.46	2.4893e-06
2064.01	1.54218e-06
2072.57	1.35903e-06
2081.13	1.63803e-06
2089.69	1.05213e-06
2098.25	1.41752e-06
2106.8	1.73978e-06
2115.36	1.12709e-06
2123.92	1.11948e-06
2132.48	4.6647e-07
2141.03	9.18459e-07
2149.59	1.22423e-06
2158.15	1.00061e-06
2166.71	1.67358e-06
2175.26	1.68552e-06
2183.82	2.34125e-06
2192.38	1.66253e-06
2200.94	1.8026e-06
2209.49	1.82488e-06
2218.05	1.49236e-06
2226.61	1.33584e-06
2235.17	9.58811e-07
2243.72	1.35067e-06
2252.28	1.42423e-06
2260.84	2.13349e-06
2269.4	1.86763e-06
2277.96	1.76859e-06
2286.51	2.23448e-06
2295.07	1.99433e-06
2303.63	2.27371e-06
2312.19	2.22172e-06
2320.74	3.12955e-06
2329.3	2.52994e-06
2337.86	2.7491e-06
2346.42	2.54966e-06
2354.97	2.10701e-06
2363.53	2.76343e-06
2372.09	2.82077e-06
2380.65	2.2946e-06
2389.2	3.32914e-06
2397.76	2.58596e-06
2406.32	3.39095e-06
2414.88	3.38362e-06
2423.44	3.56657e-06
2431.99	3.59389e-06
2440.55	3.27639e-06
2449.11	2.49234e-06
2457.67	2.3994e-06
2466.22	1.80679e-06
2474.78	1.6645e-06
2483.34	2.38296e-06
2491.9	1.45028e-06
2500.45	2.2007e-06
2509.01	2.3109e-06
2517.57	2.20109e-06
2526.13	1.41048e-06
2534.68	2.43718e-06
2543.24	2.29925e-06
2551.8	2.66995e-06
2560.36	2.70335e-06
2568.91	2.71201e-06
2577.47	2.87913e-06
2586.03	2.85647e-06
2594.59	3.29641e-06
2603.15	3.14379e-06
2611.7	4.16768e-06
2620.26	4.70937e-06
2628.82	4.78883e-06
2637.38	5.15506e-06
2645.93	5.09e-06
2654.49	6.50315e-06
2663.05	7.36392e-06
2671.61	7.39358e-06
2680.16	7.83376e-06
2688.72	7.95481e-06
2697.28	9.37164e-06
2705.84	8.87784e-06
2714.39	1.02562e-05
2722.95	1.13617e-05
2731.51	1.3268e-05
2740.07	1.57529e-05
2748.62	1.72505e-05
2757.18	1.72882e-05
2765.74	1.79793e-05
2774.3	1.91788e-05
2782.86	1.98573e-05
2791.41	2.2281e-05
2799.97	2.26907e-05
2808.53	2.49172e-05
2817.09	2.68891e-05
2825.64	3.28421e-05
2834.2	4.49319e-05
2842.76	6.79107e-05
2851.32	0.0001049
2859.87	0.000151141
2868.43	0.000215996
2876.99	0.000307734
2885.55	0.000334279
2894.1	0.000331542
2902.66	0.000276416
2911.22	0.000286046
2919.78	0.000322344
2928.34	0.000377198
2936.89	0.000442668
2945.45	0.000457536
2954.01	0.000455054
2962.57	0.00047737
2971.12	0.000472359
2979.68	0.000390887
2988.24	0.00019926
2996.8	7.97629e-05
3005.35	3.27992e-05
3013.91	1.60262e-05
3022.47	1.09095e-05
3031.03	1.01731e-05
3039.58	8.63357e-06
3048.14	8.79808e-06
3056.7	8.43422e-06
3065.26	7.3086e-06
3073.81	6.30778e-06
3082.37	6.50833e-06
3090.93	4.98056e-06
3099.49	3.45442e-06
3108.05	4.66159e-06
3116.6	3.93352e-06
3125.16	3.55335e-06
3133.72	3.93971e-06
3142.28	4.37085e-06
3150.83	3.17879e-06
3159.39	3.743e-06
3167.95	2.90886e-06
3176.51	3.81259e-06
3185.06	4.6031e-06
3193.62	4.41147e-06
3202.18	4.75415e-06
3210.74	4.39074e-06
3219.29	3.87386e-06
3227.85	3.72556e-06
3236.41	1.5434e-06
3244.97	1.18941e-06
3253.52	2.04897e-06
3262.08	4.53513e-07
3270.64	1.08877e-06
3279.2	1.05612e-06
3287.76	1.19024e-06
3296.31	2.2659e-06
3304.87	6.9646e-07
3313.43	1.63914e-06
3321.99	2.64544e-06
3330.54	1.78152e-06
3339.1	1.81773e-06
3347.66	2.0794e-07
3356.22	1.60354e-06
3364.77	2.12738e-06
3373.33	2.05867e-06
3381.89	1.25729e-06
3390.45	1.67449e-06
3399	3.47067e-07
3407.56	2.06718e-06
3416.12	1.8638e-06
3424.68	2.23229e-06
3433.23	9.42631e-07
3441.79	3.11934e-06
3450.35	3.10467e-06
3458.91	2.81217e-06
3467.47	2.46459e-06
3476.02	2.33125e-06
3484.58	4.07327e-06
3493.14	3.23976e-06
3501.7	2.71287e-06
3510.25	4.80225e-06
3518.81	3.23209e-06
3527.37	2.4212e-06
3535.93	2.15669e-06
3544.48	3.47852e-06
3553.04	1.43909e-06
3561.6	1.74587e-06
3570.16	2.67114e-06
3578.71	2.26051e-06
3587.27	1.8967e-06
3595.83	1.14547e-06
3604.39	3.19014e-06
3612.95	3.13299e-06
3621.5	4.7537e-06
3630.06	8.29478e-06
3638.62	1.44679e-05
3647.18	3.0382e-05
3655.73	5.04009e-05
3664.29	6.70483e-05
3672.85	7.87855e-05
3681.41	6.33079e-05
3689.96	3.75833e-05
3698.52	1.55813e-05
3707.08	6.96119e-06
3715.64	5.01754e-06
3724.19	3.90495e-06
3732.75	4.27033e-06
3741.31	3.43162e-06
3749.87	4.17534e-06
3758.42	3.52534e-06
3766.98	3.40189e-06
3775.54	2.71578e-06
3784.1	2.75733e-06
3792.66	3.09565e-06
3801.21	5.18428e-06
3809.77	4.33984e-06
3818.33	4.13934e-06
3826.89	3.6055e-06
3835.44	5.32893e-06
3844	4.14755e-06
3852.56	4.82375e-06
3861.12	4.88017e-06
3869.67	5.95813e-06
3878.23	4.37776e-06
3886.79	3.22919e-06
3895.35	3.35395e-06
3903.9	3.17253e-06
3912.46	2.30314e-06
3921.02	1.70642e-06
3929.58	2.84359e-06
3938.13	3.17883e-06
3946.69	1.36645e-06
3955.25	2.4977e-06
3963.81	2.50209e-06
3972.37	2.05968e-06
