Infrared Spectrum: 1-Butanol
Formula: C H3 C H2 C H2 C H2 O H
CAS: 71-36-3
State: gas
Melting point: -89.53 C
Boiling point: 117.25 C
Class: IUPAC A
Instrument: IFS66V (Bruker)
Instrument parameters: KBr Beam splitter; MCT Detector; Multipass cell
Sampling: 1 L/min Flow
Resolution: 0.4820
Temperature: 23 C
Pressure: 101.3 kPa
Origin: NIST, Anayltical Chemistry Division, 301-975-3108
cm-1	(micromol/mol)-1m-1 (base 10)
574.928	9.6906e-07
583.606	4.38852e-06
592.284	6.27123e-06
600.962	4.75188e-06
609.641	3.42146e-06
618.319	4.12428e-06
626.997	4.71506e-06
635.675	3.81382e-06
644.353	3.00915e-06
653.031	1.94952e-06
661.71	3.41414e-06
670.388	3.17309e-06
679.066	3.35118e-06
687.744	3.40638e-06
696.422	4.14265e-06
705.1	3.1096e-06
713.778	3.86941e-06
722.457	4.8335e-06
731.135	7.53142e-06
739.813	1.03711e-05
748.491	9.70813e-06
757.169	7.60493e-06
765.847	4.72755e-06
774.526	4.67294e-06
783.204	5.24302e-06
791.882	5.57107e-06
800.56	5.96146e-06
809.238	8.32178e-06
817.916	8.65533e-06
826.594	1.31207e-05
835.273	2.00984e-05
843.951	2.35822e-05
852.629	2.56079e-05
861.307	1.8697e-05
869.985	1.25417e-05
878.663	1.03314e-05
887.342	1.02572e-05
896.02	1.32656e-05
904.698	1.43398e-05
913.376	1.44584e-05
922.054	1.73071e-05
930.732	2.76447e-05
939.41	4.26247e-05
948.089	5.26332e-05
956.767	5.45002e-05
965.445	4.69486e-05
974.123	4.00883e-05
982.801	4.51623e-05
991.479	5.10965e-05
1000.16	6.09917e-05
1008.84	7.26906e-05
1017.51	9.66855e-05
1026.19	0.000128077
1034.87	0.000174467
1043.55	0.000201973
1052.23	0.000207103
1060.9	0.000204878
1069.58	0.000221303
1078.26	0.000200167
1086.94	0.000136738
1095.62	8.66648e-05
1104.3	5.75005e-05
1112.97	4.13779e-05
1121.65	3.11374e-05
1130.33	2.39928e-05
1139.01	1.91501e-05
1147.69	1.70301e-05
1156.36	1.72685e-05
1165.04	1.82533e-05
1173.72	2.20981e-05
1182.4	2.72351e-05
1191.08	3.51896e-05
1199.76	4.22895e-05
1208.43	4.88072e-05
1217.11	4.87764e-05
1225.79	4.36264e-05
1234.47	3.64708e-05
1243.15	3.26696e-05
1251.82	3.24964e-05
1260.5	3.47289e-05
1269.18	3.70882e-05
1277.86	3.87185e-05
1286.54	3.6456e-05
1295.21	3.26277e-05
1303.89	2.75857e-05
1312.57	2.51668e-05
1321.25	2.48646e-05
1329.93	2.86294e-05
1338.61	3.31692e-05
1347.28	3.4075e-05
1355.96	3.39627e-05
1364.64	3.75754e-05
1373.32	5.78281e-05
1382	7.74618e-05
1390.67	9.1642e-05
1399.35	6.85058e-05
1408.03	4.18068e-05
1416.71	2.72657e-05
1425.39	2.41336e-05
1434.07	2.78427e-05
1442.74	3.71756e-05
1451.42	4.90451e-05
1460.1	5.95774e-05
1468.78	6.1948e-05
1477.46	5.76505e-05
1486.13	4.18553e-05
1494.81	2.48482e-05
1503.49	1.25064e-05
1512.17	7.57168e-06
1520.85	5.19289e-06
1529.52	3.64163e-06
1538.2	3.59979e-06
1546.88	3.27738e-06
1555.56	2.80363e-06
1564.24	2.65265e-06
1572.92	2.53153e-06
1581.59	2.40295e-06
1590.27	2.24909e-06
1598.95	2.07258e-06
1607.63	2.17646e-06
1616.31	3.07995e-06
1624.98	1.74541e-06
1633.66	1.42947e-06
1642.34	1.93058e-06
1651.02	1.78629e-06
1659.7	1.66815e-06
1668.38	1.75087e-06
1677.05	1.75146e-06
1685.73	1.57349e-06
1694.41	1.6919e-06
1703.09	1.72619e-06
1711.77	1.63581e-06
1720.44	1.43559e-06
1729.12	1.33509e-06
1737.8	1.62459e-06
1746.48	1.49938e-06
1755.16	1.25252e-06
1763.84	1.19661e-06
1772.51	2.50086e-06
1781.19	1.22999e-06
1789.87	1.78224e-06
1798.55	1.44542e-06
1807.23	1.35728e-06
1815.9	1.07343e-06
1824.58	1.18715e-06
1833.26	1.23208e-06
1841.94	1.03546e-06
1850.62	1.39299e-06
1859.29	1.52726e-06
1867.97	1.78834e-06
1876.65	1.33972e-06
1885.33	1.26815e-06
1894.01	1.81053e-06
1902.69	1.46797e-06
1911.36	1.6234e-06
1920.04	1.71978e-06
1928.72	1.65069e-06
1937.4	1.17668e-06
1946.08	1.32449e-06
1954.75	1.56653e-06
1963.43	1.23638e-06
1972.11	1.69869e-06
1980.79	1.80456e-06
1989.47	1.76439e-06
1998.15	1.54723e-06
2006.82	2.04249e-06
2015.5	2.30023e-06
2024.18	3.19347e-06
2032.86	3.26356e-06
2041.54	3.39567e-06
2050.21	2.75817e-06
2058.89	2.13578e-06
2067.57	1.83233e-06
2076.25	1.38794e-06
2084.93	1.57234e-06
2093.6	1.5561e-06
2102.28	1.48904e-06
2110.96	1.24208e-06
2119.64	1.03595e-06
2128.32	8.37389e-07
2137	7.38537e-07
2145.67	1.23056e-06
2154.35	1.04937e-06
2163.03	1.39157e-06
2171.71	1.69903e-06
2180.39	1.52974e-06
2189.06	1.88169e-06
2197.74	1.68347e-06
2206.42	1.72544e-06
2215.1	1.65718e-06
2223.78	1.39331e-06
2232.46	1.60778e-06
2241.13	1.76083e-06
2249.81	1.54915e-06
2258.49	1.57345e-06
2267.17	1.50858e-06
2275.85	2.38144e-06
2284.52	2.21155e-06
2293.2	2.04851e-06
2301.88	2.13813e-06
2310.56	2.447e-06
2319.24	2.78542e-06
2327.92	2.45176e-06
2336.59	2.57007e-06
2345.27	2.75875e-06
2353.95	2.22693e-06
2362.63	3.49744e-06
2371.31	2.68644e-06
2379.98	2.68444e-06
2388.66	2.80977e-06
2397.34	2.76305e-06
2406.02	3.40211e-06
2414.7	3.61018e-06
2423.37	3.543e-06
2432.05	3.3401e-06
2440.73	2.91925e-06
2449.41	2.59961e-06
2458.09	2.17094e-06
2466.77	2.42405e-06
2475.44	2.18936e-06
2484.12	1.84458e-06
2492.8	1.87309e-06
2501.48	1.58611e-06
2510.16	2.10684e-06
2518.83	1.80136e-06
2527.51	1.96563e-06
2536.19	1.96783e-06
2544.87	2.22507e-06
2553.55	2.39791e-06
2562.23	2.43354e-06
2570.9	2.67777e-06
2579.58	2.83735e-06
2588.26	3.49825e-06
2596.94	3.53916e-06
2605.62	3.89782e-06
2614.29	4.06218e-06
2622.97	4.22035e-06
2631.65	4.93556e-06
2640.33	4.73674e-06
2649.01	5.67727e-06
2657.68	6.25268e-06
2666.36	7.05294e-06
2675.04	7.702e-06
2683.72	8.58751e-06
2692.4	8.649e-06
2701.08	8.79037e-06
2709.75	9.26155e-06
2718.43	1.02733e-05
2727.11	1.19323e-05
2735.79	1.45235e-05
2744.47	1.666e-05
2753.14	1.7626e-05
2761.82	1.79548e-05
2770.5	1.84874e-05
2779.18	2.01525e-05
2787.86	2.18444e-05
2796.54	2.26186e-05
2805.21	2.37337e-05
2813.89	2.50143e-05
2822.57	2.95887e-05
2831.25	3.97071e-05
2839.93	5.92208e-05
2848.6	9.30309e-05
2857.28	0.00013538
2865.96	0.000193969
2874.64	0.000277706
2883.32	0.000331094
2892	0.000336779
2900.67	0.0002833
2909.35	0.000278404
2918.03	0.000313845
2926.71	0.000366806
2935.39	0.00043103
2944.06	0.000465555
2952.74	0.000451824
2961.42	0.000470233
2970.1	0.000491508
2978.78	0.000403104
2987.45	0.000215614
2996.13	8.52465e-05
3004.81	3.41637e-05
3013.49	1.61545e-05
3022.17	1.15651e-05
3030.85	1.01099e-05
3039.52	8.51462e-06
3048.2	9.02014e-06
3056.88	8.22212e-06
3065.56	7.53847e-06
3074.24	6.01132e-06
3082.91	5.189e-06
3091.59	4.93279e-06
3100.27	4.68708e-06
3108.95	4.24583e-06
3117.63	4.16516e-06
3126.31	4.07631e-06
3134.98	4.45414e-06
3143.66	3.63375e-06
3152.34	4.03358e-06
3161.02	3.90156e-06
3169.7	4.06213e-06
3178.37	3.4129e-06
3187.05	4.46383e-06
3195.73	4.54882e-06
3204.41	4.56707e-06
3213.09	4.06258e-06
3221.77	3.19945e-06
3230.44	1.80166e-06
3239.12	1.64707e-06
3247.8	1.98871e-06
3256.48	2.22502e-06
3265.16	2.01646e-06
3273.83	9.5998e-07
3282.51	4.65836e-07
3291.19	5.13702e-07
3299.87	1.36094e-06
3308.55	1.40835e-06
3317.22	1.2129e-06
3325.9	1.93712e-06
3334.58	1.30099e-06
3343.26	1.02426e-06
3351.94	1.02003e-06
3360.62	1.53739e-06
3369.29	1.02568e-06
3377.97	1.24243e-06
3386.65	1.24605e-06
3395.33	1.33675e-06
3404.01	1.6734e-06
3412.68	1.86937e-06
3421.36	3.19338e-06
3430.04	2.93743e-06
3438.72	2.3875e-06
3447.4	2.49656e-06
3456.08	1.79384e-06
3464.75	3.0541e-06
3473.43	2.97016e-06
3482.11	3.30825e-06
3490.79	2.85118e-06
3499.47	2.62518e-06
3508.14	2.4859e-06
3516.82	2.2919e-06
3525.5	1.45386e-06
3534.18	2.86836e-06
3542.86	2.54156e-06
3551.53	1.81121e-06
3560.21	2.23599e-06
3568.89	2.00557e-06
3577.57	1.63253e-06
3586.25	2.36027e-06
3594.93	2.24115e-06
3603.6	2.84235e-06
3612.28	3.72526e-06
3620.96	5.40858e-06
3629.64	8.92174e-06
3638.32	1.43397e-05
3646.99	2.96506e-05
3655.67	4.92775e-05
3664.35	6.73655e-05
3673.03	7.85914e-05
3681.71	6.26878e-05
3690.39	3.68282e-05
3699.06	1.42622e-05
3707.74	6.53696e-06
3716.42	4.8022e-06
3725.1	4.01902e-06
3733.78	3.63677e-06
3742.45	3.52782e-06
3751.13	3.11467e-06
3759.81	4.11702e-06
3768.49	3.24017e-06
3777.17	3.43466e-06
3785.85	3.27336e-06
3794.52	2.88071e-06
3803.2	3.53314e-06
3811.88	3.6922e-06
3820.56	4.45224e-06
3829.24	4.24859e-06
3837.91	7.01366e-06
3846.59	4.71083e-06
3855.27	4.92378e-06
3863.95	5.38504e-06
3872.63	5.28689e-06
3881.3	4.24039e-06
3889.98	3.74302e-06
3898.66	3.1994e-06
3907.34	3.08896e-06
3916.02	2.22264e-06
3924.7	2.40373e-06
3933.37	2.25126e-06
3942.05	2.05614e-06
3950.73	1.45249e-06
3959.41	2.26228e-06
3968.09	2.18046e-06
