Infrared Spectrum: 1-Butanol
Formula: C H3 C H2 C H2 C H2 O H
CAS: 71-36-3
State: gas
Melting point: -89.53 C
Boiling point: 117.25 C
Class: IUPAC A
Instrument: IFS66V (Bruker)
Instrument parameters: KBr Beam splitter; MCT Detector; Multipass cell
Sampling: 1 L/min Flow
Resolution: 0.4820
Temperature: 23 C
Pressure: 101.3 kPa
Origin: NIST, Anayltical Chemistry Division, 301-975-3108
cm-1	(micromol/mol)-1m-1 (base 10)
574.928	7.67606e-07
583.606	4.2541e-06
592.284	4.18189e-06
600.962	4.28355e-06
609.641	3.62092e-06
618.319	4.87003e-06
626.997	3.8713e-06
635.675	4.45722e-06
644.353	3.09998e-06
653.031	7.16719e-07
661.71	3.68519e-06
670.388	3.04425e-06
679.066	3.27303e-06
687.744	3.32065e-06
696.422	4.42875e-06
705.1	2.61341e-06
713.778	3.16542e-06
722.457	4.33567e-06
731.135	7.491e-06
739.813	1.00141e-05
748.491	9.82523e-06
757.169	7.78217e-06
765.847	4.48864e-06
774.526	5.41675e-06
783.204	5.85553e-06
791.882	5.99828e-06
800.56	5.87659e-06
809.238	8.91821e-06
817.916	9.06928e-06
826.594	1.3361e-05
835.273	2.05454e-05
843.951	2.30062e-05
852.629	2.56915e-05
861.307	1.89597e-05
869.985	1.26129e-05
878.663	1.09543e-05
887.342	1.00489e-05
896.02	1.37244e-05
904.698	1.44141e-05
913.376	1.45007e-05
922.054	1.70088e-05
930.732	2.78221e-05
939.41	4.26591e-05
948.089	5.26279e-05
956.767	5.46297e-05
965.445	4.68241e-05
974.123	4.00556e-05
982.801	4.4841e-05
991.479	5.19866e-05
1000.16	6.07846e-05
1008.84	7.29273e-05
1017.51	9.69246e-05
1026.19	0.000127811
1034.87	0.000174668
1043.55	0.000201797
1052.23	0.000207415
1060.9	0.00020488
1069.58	0.000221403
1078.26	0.000200545
1086.94	0.000137043
1095.62	8.67036e-05
1104.3	5.76719e-05
1112.97	4.13484e-05
1121.65	3.10334e-05
1130.33	2.37682e-05
1139.01	1.90133e-05
1147.69	1.69118e-05
1156.36	1.71023e-05
1165.04	1.82038e-05
1173.72	2.22483e-05
1182.4	2.7042e-05
1191.08	3.55757e-05
1199.76	4.25121e-05
1208.43	4.89016e-05
1217.11	4.85613e-05
1225.79	4.36967e-05
1234.47	3.64671e-05
1243.15	3.26527e-05
1251.82	3.22625e-05
1260.5	3.45472e-05
1269.18	3.70483e-05
1277.86	3.86817e-05
1286.54	3.65115e-05
1295.21	3.27978e-05
1303.89	2.77381e-05
1312.57	2.50469e-05
1321.25	2.48089e-05
1329.93	2.8849e-05
1338.61	3.33821e-05
1347.28	3.43029e-05
1355.96	3.38099e-05
1364.64	3.72786e-05
1373.32	5.77152e-05
1382	7.7284e-05
1390.67	9.16589e-05
1399.35	6.81082e-05
1408.03	4.19645e-05
1416.71	2.69782e-05
1425.39	2.37754e-05
1434.07	2.78015e-05
1442.74	3.71454e-05
1451.42	4.87144e-05
1460.1	5.95525e-05
1468.78	6.19831e-05
1477.46	5.75236e-05
1486.13	4.18755e-05
1494.81	2.48029e-05
1503.49	1.24542e-05
1512.17	7.96395e-06
1520.85	4.59551e-06
1529.52	3.64505e-06
1538.2	3.48668e-06
1546.88	3.3556e-06
1555.56	2.599e-06
1564.24	2.47664e-06
1572.92	2.4092e-06
1581.59	2.53429e-06
1590.27	2.19076e-06
1598.95	2.06741e-06
1607.63	2.3062e-06
1616.31	2.73722e-06
1624.98	1.54631e-06
1633.66	1.38513e-06
1642.34	1.95479e-06
1651.02	1.73508e-06
1659.7	1.60782e-06
1668.38	1.83e-06
1677.05	1.93628e-06
1685.73	1.54635e-06
1694.41	1.76217e-06
1703.09	1.68414e-06
1711.77	1.71917e-06
1720.44	1.43859e-06
1729.12	1.28028e-06
1737.8	1.92632e-06
1746.48	1.48204e-06
1755.16	9.87099e-07
1763.84	1.22908e-06
1772.51	2.39557e-06
1781.19	1.14164e-06
1789.87	2.04724e-06
1798.55	1.33154e-06
1807.23	1.33259e-06
1815.9	8.87893e-07
1824.58	1.11598e-06
1833.26	1.39209e-06
1841.94	1.04928e-06
1850.62	1.65048e-06
1859.29	1.58144e-06
1867.97	1.79377e-06
1876.65	1.2361e-06
1885.33	1.30459e-06
1894.01	2.09989e-06
1902.69	1.58098e-06
1911.36	1.64782e-06
1920.04	1.9224e-06
1928.72	1.56421e-06
1937.4	1.30959e-06
1946.08	1.35335e-06
1954.75	1.73719e-06
1963.43	1.08631e-06
1972.11	1.77462e-06
1980.79	1.79845e-06
1989.47	1.73437e-06
1998.15	1.46608e-06
2006.82	2.24211e-06
2015.5	2.32818e-06
2024.18	3.29617e-06
2032.86	3.14543e-06
2041.54	3.30891e-06
2050.21	2.60908e-06
2058.89	2.08414e-06
2067.57	1.80566e-06
2076.25	1.37151e-06
2084.93	1.30141e-06
2093.6	1.58092e-06
2102.28	1.65993e-06
2110.96	1.42833e-06
2119.64	1.17163e-06
2128.32	8.58917e-07
2137	7.32801e-07
2145.67	1.43688e-06
2154.35	1.07389e-06
2163.03	1.48683e-06
2171.71	1.90735e-06
2180.39	1.40892e-06
2189.06	2.0486e-06
2197.74	1.51449e-06
2206.42	1.70735e-06
2215.1	1.621e-06
2223.78	1.50115e-06
2232.46	1.65846e-06
2241.13	1.98146e-06
2249.81	1.6489e-06
2258.49	1.418e-06
2267.17	1.34488e-06
2275.85	2.58437e-06
2284.52	2.20879e-06
2293.2	1.98717e-06
2301.88	2.22454e-06
2310.56	2.40916e-06
2319.24	2.68747e-06
2327.92	2.40146e-06
2336.59	2.63068e-06
2345.27	2.35984e-06
2353.95	2.27437e-06
2362.63	3.93077e-06
2371.31	2.70599e-06
2379.98	2.48963e-06
2388.66	3.12697e-06
2397.34	2.53427e-06
2406.02	3.32535e-06
2414.7	3.57238e-06
2423.37	3.51089e-06
2432.05	3.35469e-06
2440.73	3.06076e-06
2449.41	2.53369e-06
2458.09	2.22464e-06
2466.77	2.65821e-06
2475.44	2.22617e-06
2484.12	1.85231e-06
2492.8	1.86789e-06
2501.48	1.34976e-06
2510.16	2.07566e-06
2518.83	1.91935e-06
2527.51	2.04547e-06
2536.19	1.94911e-06
2544.87	2.34398e-06
2553.55	2.52674e-06
2562.23	2.75598e-06
2570.9	2.70084e-06
2579.58	2.88424e-06
2588.26	3.71608e-06
2596.94	3.5797e-06
2605.62	3.87296e-06
2614.29	3.90632e-06
2622.97	4.20378e-06
2631.65	5.15559e-06
2640.33	4.46918e-06
2649.01	5.58267e-06
2657.68	6.30002e-06
2666.36	7.07049e-06
2675.04	7.70098e-06
2683.72	8.71162e-06
2692.4	8.83068e-06
2701.08	8.728e-06
2709.75	9.34407e-06
2718.43	1.03055e-05
2727.11	1.16531e-05
2735.79	1.44405e-05
2744.47	1.66033e-05
2753.14	1.75144e-05
2761.82	1.79721e-05
2770.5	1.81751e-05
2779.18	2.01175e-05
2787.86	2.16286e-05
2796.54	2.27574e-05
2805.21	2.4059e-05
2813.89	2.52036e-05
2822.57	2.97076e-05
2831.25	3.99946e-05
2839.93	5.93488e-05
2848.6	9.33435e-05
2857.28	0.000134927
2865.96	0.000193469
2874.64	0.000278155
2883.32	0.000331592
2892	0.000336854
2900.67	0.000283571
2909.35	0.000278515
2918.03	0.000313641
2926.71	0.000366099
2935.39	0.000431413
2944.06	0.000466431
2952.74	0.00045159
2961.42	0.000470626
2970.1	0.000490662
2978.78	0.000402336
2987.45	0.000215157
2996.13	8.51118e-05
3004.81	3.39042e-05
3013.49	1.5563e-05
3022.17	1.13712e-05
3030.85	1.02847e-05
3039.52	8.44222e-06
3048.2	9.0094e-06
3056.88	8.20003e-06
3065.56	7.6211e-06
3074.24	5.95648e-06
3082.91	5.37256e-06
3091.59	5.10512e-06
3100.27	4.83028e-06
3108.95	4.31305e-06
3117.63	4.0967e-06
3126.31	3.91375e-06
3134.98	4.94904e-06
3143.66	3.34343e-06
3152.34	4.80436e-06
3161.02	3.93908e-06
3169.7	3.72942e-06
3178.37	3.79573e-06
3187.05	4.77174e-06
3195.73	4.73343e-06
3204.41	4.38787e-06
3213.09	3.71916e-06
3221.77	3.39959e-06
3230.44	1.30996e-06
3239.12	1.981e-06
3247.8	2.05836e-06
3256.48	3.13814e-06
3265.16	2.20321e-06
3273.83	6.05368e-07
3282.51	3.65093e-08
3291.19	4.49616e-07
3299.87	1.09263e-06
3308.55	1.35256e-06
3317.22	9.79945e-07
3325.9	2.31743e-06
3334.58	1.08536e-06
3343.26	1.03051e-06
3351.94	1.04096e-06
3360.62	1.94398e-06
3369.29	6.73846e-07
3377.97	8.98728e-07
3386.65	1.34207e-06
3395.33	1.65991e-06
3404.01	1.66121e-06
3412.68	1.65809e-06
3421.36	3.57449e-06
3430.04	3.12554e-06
3438.72	2.14969e-06
3447.4	2.27106e-06
3456.08	1.15815e-06
3464.75	2.91181e-06
3473.43	3.22928e-06
3482.11	3.29853e-06
3490.79	2.39606e-06
3499.47	2.20467e-06
3508.14	2.33096e-06
3516.82	2.08918e-06
3525.5	9.1848e-07
3534.18	4.16814e-06
3542.86	3.41421e-06
3551.53	2.05668e-06
3560.21	2.4382e-06
3568.89	2.40428e-06
3577.57	1.26425e-06
3586.25	2.47877e-06
3594.93	2.12182e-06
3603.6	3.06045e-06
3612.28	3.72237e-06
3620.96	5.70939e-06
3629.64	9.60891e-06
3638.32	1.42772e-05
3646.99	3.01513e-05
3655.67	4.94427e-05
3664.35	6.71525e-05
3673.03	7.83825e-05
3681.71	6.21956e-05
3690.39	3.72768e-05
3699.06	1.46855e-05
3707.74	6.32387e-06
3716.42	4.47054e-06
3725.1	3.78474e-06
3733.78	4.20668e-06
3742.45	4.05494e-06
3751.13	3.2749e-06
3759.81	4.36538e-06
3768.49	3.28468e-06
3777.17	3.68363e-06
3785.85	3.36439e-06
3794.52	3.12908e-06
3803.2	3.40875e-06
3811.88	4.0057e-06
3820.56	4.49556e-06
3829.24	4.23999e-06
3837.91	7.81121e-06
3846.59	4.9271e-06
3855.27	4.65997e-06
3863.95	4.99349e-06
3872.63	6.27753e-06
3881.3	4.37249e-06
3889.98	3.39191e-06
3898.66	3.45824e-06
3907.34	3.13162e-06
3916.02	1.69757e-06
3924.7	2.29233e-06
3933.37	2.14222e-06
3942.05	1.76483e-06
3950.73	1.37305e-06
3959.41	2.5722e-06
3968.09	2.17863e-06
