Infrared Spectrum: 1-Butanol
Formula: C H3 C H2 C H2 C H2 O H
CAS: 71-36-3
State: gas
Melting point: -89.53 C
Boiling point: 117.25 C
Class: IUPAC A
Instrument: IFS66V (Bruker)
Instrument parameters: KBr Beam splitter; MCT Detector; Multipass cell
Sampling: 1 L/min Flow
Resolution: 0.1250
Temperature: 23 C
Pressure: 101.3 kPa
Origin: NIST, Anayltical Chemistry Division, 301-975-3108
cm-1	(micromol/mol)-1m-1 (base 10)
574.988	-2.3799e-06
583.546	3.03057e-08
592.103	7.0849e-06
600.661	5.68098e-06
609.219	6.92255e-06
617.776	1.73112e-06
626.334	4.18927e-06
634.891	4.66816e-06
643.449	7.02511e-07
652.007	3.73231e-06
660.564	4.32502e-06
669.122	2.96385e-06
677.68	2.15629e-06
686.237	4.97498e-06
694.795	2.63418e-06
703.352	1.75508e-06
711.91	4.44089e-06
720.468	5.48333e-06
729.025	7.22288e-06
737.583	9.90035e-06
746.141	7.86711e-06
754.698	8.5376e-06
763.256	6.50478e-06
771.813	3.91102e-06
780.371	5.15314e-06
788.929	4.2237e-06
797.486	7.19929e-06
806.044	7.6919e-06
814.602	9.94076e-06
823.159	1.15913e-05
831.717	1.68615e-05
840.274	2.45157e-05
848.832	2.52152e-05
857.39	2.3095e-05
865.947	1.42442e-05
874.505	1.14569e-05
883.063	1.00372e-05
891.62	1.20228e-05
900.178	1.30584e-05
908.735	1.57241e-05
917.293	1.4317e-05
925.851	2.02646e-05
934.408	3.41323e-05
942.966	4.81131e-05
951.524	5.541e-05
960.081	5.24791e-05
968.639	4.32242e-05
977.196	4.0388e-05
985.754	4.62312e-05
994.312	5.63797e-05
1002.87	6.19135e-05
1011.43	7.84961e-05
1019.98	0.000105644
1028.54	0.000136105
1037.1	0.000190016
1045.66	0.000202619
1054.22	0.000214705
1062.77	0.000203493
1071.33	0.000219703
1079.89	0.000191784
1088.45	0.000124673
1097	8.0675e-05
1105.56	5.3972e-05
1114.12	3.94548e-05
1122.68	3.04672e-05
1131.23	2.37645e-05
1139.79	1.91226e-05
1148.35	1.76913e-05
1156.91	1.68467e-05
1165.46	1.90713e-05
1174.02	2.21385e-05
1182.58	2.6819e-05
1191.14	3.56476e-05
1199.69	4.2235e-05
1208.25	4.87041e-05
1216.81	4.92898e-05
1225.37	4.38362e-05
1233.93	3.73305e-05
1242.48	3.29055e-05
1251.04	3.27027e-05
1259.6	3.48046e-05
1268.16	3.70683e-05
1276.71	3.86688e-05
1285.27	3.67078e-05
1293.83	3.3553e-05
1302.39	2.77939e-05
1310.94	2.59316e-05
1319.5	2.4144e-05
1328.06	2.68644e-05
1336.62	3.26505e-05
1345.17	3.44987e-05
1353.73	3.43457e-05
1362.29	3.48459e-05
1370.85	4.96743e-05
1379.4	7.48668e-05
1387.96	8.70722e-05
1396.52	7.55476e-05
1405.08	5.05262e-05
1413.64	3.05692e-05
1422.19	2.40218e-05
1430.75	2.63175e-05
1439.31	3.24377e-05
1447.87	4.59198e-05
1456.42	5.61899e-05
1464.98	6.76023e-05
1473.54	6.21708e-05
1482.1	4.9561e-05
1490.65	3.36507e-05
1499.21	1.78055e-05
1507.77	9.21405e-06
1516.33	5.81806e-06
1524.88	4.44113e-06
1533.44	3.88584e-06
1542	5.01832e-06
1550.56	3.11973e-06
1559.11	3.19494e-06
1567.67	2.90374e-06
1576.23	6.72099e-06
1584.79	2.33719e-06
1593.35	1.71172e-06
1601.9	2.15631e-06
1610.46	2.12173e-06
1619.02	1.94183e-06
1627.58	2.03312e-06
1636.13	1.76522e-06
1644.69	1.56905e-06
1653.25	6.77639e-06
1661.81	1.37916e-06
1670.36	1.43473e-06
1678.92	2.13522e-06
1687.48	1.32347e-06
1696.04	5.3501e-06
1704.59	1.97849e-06
1713.15	1.80792e-06
1721.71	1.59914e-06
1730.27	1.14965e-06
1738.83	1.57266e-06
1747.38	1.70132e-06
1755.94	1.53132e-06
1764.5	1.23946e-06
1773.06	1.42736e-06
1781.61	1.61626e-06
1790.17	1.24536e-06
1798.73	1.60319e-06
1807.29	1.42985e-06
1815.84	1.06457e-06
1824.4	9.08169e-07
1832.96	1.21094e-06
1841.52	1.29469e-06
1850.07	1.22337e-06
1858.63	1.43956e-06
1867.19	1.32942e-06
1875.75	1.56299e-06
1884.3	1.41754e-06
1892.86	1.61971e-06
1901.42	1.17241e-06
1909.98	1.54855e-06
1918.54	1.46919e-06
1927.09	1.9245e-06
1935.65	1.58766e-06
1944.21	1.71415e-06
1952.77	1.07446e-06
1961.32	1.41945e-06
1969.88	1.81965e-06
1978.44	1.79404e-06
1987	1.59404e-06
1995.55	1.43229e-06
2004.11	1.90993e-06
2012.67	2.23049e-06
2021.23	2.65721e-06
2029.78	3.16205e-06
2038.34	3.20873e-06
2046.9	2.66809e-06
2055.46	2.40628e-06
2064.01	1.58236e-06
2072.57	1.28778e-06
2081.13	1.58187e-06
2089.69	1.09171e-06
2098.25	1.46601e-06
2106.8	1.71043e-06
2115.36	1.11033e-06
2123.92	1.11434e-06
2132.48	4.67859e-07
2141.03	9.08925e-07
2149.59	1.18754e-06
2158.15	9.87639e-07
2166.71	1.67302e-06
2175.26	1.6256e-06
2183.82	2.26749e-06
2192.38	1.77278e-06
2200.94	1.90919e-06
2209.49	1.81958e-06
2218.05	1.48413e-06
2226.61	1.38167e-06
2235.17	1.02531e-06
2243.72	1.33779e-06
2252.28	1.38455e-06
2260.84	2.14551e-06
2269.4	1.81952e-06
2277.96	1.76729e-06
2286.51	2.3553e-06
2295.07	2.04887e-06
2303.63	2.32576e-06
2312.19	2.20503e-06
2320.74	3.18389e-06
2329.3	2.52428e-06
2337.86	2.84373e-06
2346.42	2.48843e-06
2354.97	2.00362e-06
2363.53	2.65492e-06
2372.09	2.90765e-06
2380.65	2.32294e-06
2389.2	3.35751e-06
2397.76	2.52132e-06
2406.32	3.44203e-06
2414.88	3.35568e-06
2423.44	3.61729e-06
2431.99	3.50744e-06
2440.55	3.183e-06
2449.11	2.45473e-06
2457.67	2.33749e-06
2466.22	1.74965e-06
2474.78	1.66512e-06
2483.34	2.32577e-06
2491.9	1.54852e-06
2500.45	2.1368e-06
2509.01	2.28957e-06
2517.57	2.19626e-06
2526.13	1.45375e-06
2534.68	2.36582e-06
2543.24	2.39838e-06
2551.8	2.6631e-06
2560.36	2.68444e-06
2568.91	2.69925e-06
2577.47	3.00511e-06
2586.03	2.79727e-06
2594.59	3.17176e-06
2603.15	3.19378e-06
2611.7	4.19035e-06
2620.26	4.67132e-06
2628.82	4.81467e-06
2637.38	5.14466e-06
2645.93	5.08755e-06
2654.49	6.48401e-06
2663.05	7.31274e-06
2671.61	7.41482e-06
2680.16	7.91262e-06
2688.72	7.93657e-06
2697.28	9.46898e-06
2705.84	8.95708e-06
2714.39	1.02532e-05
2722.95	1.13771e-05
2731.51	1.3189e-05
2740.07	1.56254e-05
2748.62	1.72093e-05
2757.18	1.7297e-05
2765.74	1.79942e-05
2774.3	1.91621e-05
2782.86	2.00062e-05
2791.41	2.24464e-05
2799.97	2.26048e-05
2808.53	2.49511e-05
2817.09	2.67383e-05
2825.64	3.2594e-05
2834.2	4.49203e-05
2842.76	6.79586e-05
2851.32	0.000104899
2859.87	0.000151238
2868.43	0.000216075
2876.99	0.000307675
2885.55	0.000334575
2894.1	0.000331639
2902.66	0.000276304
2911.22	0.000286294
2919.78	0.000322455
2928.34	0.000377303
2936.89	0.00044302
2945.45	0.000457871
2954.01	0.00045519
2962.57	0.000477536
2971.12	0.000472482
2979.68	0.000391194
2988.24	0.000198995
2996.8	7.93721e-05
3005.35	3.27803e-05
3013.91	1.59112e-05
3022.47	1.08506e-05
3031.03	9.91876e-06
3039.58	8.72425e-06
3048.14	8.8165e-06
3056.7	8.55178e-06
3065.26	7.40922e-06
3073.81	6.25792e-06
3082.37	6.24062e-06
3090.93	4.92083e-06
3099.49	3.53699e-06
3108.05	4.55835e-06
3116.6	4.11245e-06
3125.16	3.43444e-06
3133.72	3.85184e-06
3142.28	4.35842e-06
3150.83	3.06336e-06
3159.39	3.71848e-06
3167.95	3.09719e-06
3176.51	3.86158e-06
3185.06	4.55939e-06
3193.62	4.19916e-06
3202.18	4.42866e-06
3210.74	4.12876e-06
3219.29	3.48841e-06
3227.85	3.53785e-06
3236.41	1.55502e-06
3244.97	1.15488e-06
3253.52	2.04965e-06
3262.08	8.13806e-07
3270.64	1.0233e-06
3279.2	1.2149e-06
3287.76	1.2231e-06
3296.31	2.07272e-06
3304.87	5.03687e-07
3313.43	1.57011e-06
3321.99	2.57293e-06
3330.54	1.75884e-06
3339.1	1.89372e-06
3347.66	2.61985e-07
3356.22	1.55218e-06
3364.77	2.19935e-06
3373.33	2.08463e-06
3381.89	1.14965e-06
3390.45	1.85752e-06
3399	5.18539e-07
3407.56	2.09879e-06
3416.12	1.84469e-06
3424.68	1.98505e-06
3433.23	1.27572e-06
3441.79	3.4557e-06
3450.35	3.01914e-06
3458.91	3.10306e-06
3467.47	2.57667e-06
3476.02	2.21847e-06
3484.58	4.17252e-06
3493.14	3.54751e-06
3501.7	2.65244e-06
3510.25	4.58843e-06
3518.81	3.1231e-06
3527.37	2.48429e-06
3535.93	2.21845e-06
3544.48	3.48948e-06
3553.04	1.5909e-06
3561.6	1.71237e-06
3570.16	2.61935e-06
3578.71	2.0883e-06
3587.27	1.6832e-06
3595.83	1.28787e-06
3604.39	3.25237e-06
3612.95	3.1789e-06
3621.5	4.66952e-06
3630.06	8.44395e-06
3638.62	1.45208e-05
3647.18	3.02969e-05
3655.73	5.03851e-05
3664.29	6.71778e-05
3672.85	7.89328e-05
3681.41	6.35496e-05
3689.96	3.76317e-05
3698.52	1.56673e-05
3707.08	6.88702e-06
3715.64	4.90592e-06
3724.19	3.95471e-06
3732.75	4.26034e-06
3741.31	3.45586e-06
3749.87	4.15451e-06
3758.42	3.64675e-06
3766.98	3.31969e-06
3775.54	2.75425e-06
3784.1	2.51467e-06
3792.66	3.14334e-06
3801.21	5.08076e-06
3809.77	4.18342e-06
3818.33	4.25515e-06
3826.89	3.57444e-06
3835.44	5.36061e-06
3844	4.10094e-06
3852.56	4.94012e-06
3861.12	4.87404e-06
3869.67	5.89467e-06
3878.23	4.27768e-06
3886.79	3.20883e-06
3895.35	3.49867e-06
3903.9	3.17464e-06
3912.46	2.48439e-06
3921.02	1.77795e-06
3929.58	3.00214e-06
3938.13	3.08356e-06
3946.69	1.63099e-06
3955.25	2.62072e-06
3963.81	2.4996e-06
3972.37	2.01396e-06
