Infrared Spectrum: 1-Butanol
Formula: C H3 C H2 C H2 C H2 O H
CAS: 71-36-3
State: gas
Melting point: -89.53 C
Boiling point: 117.25 C
Class: IUPAC A
Instrument: IFS66V (Bruker)
Instrument parameters: KBr Beam splitter; MCT Detector; Multipass cell
Sampling: 1 L/min Flow
Resolution: 0.9640
Temperature: 23 C
Pressure: 101.3 kPa
Origin: NIST, Anayltical Chemistry Division, 301-975-3108
cm-1	(micromol/mol)-1m-1 (base 10)
575.169	1.94836e-06
583.847	3.65509e-06
592.525	5.31783e-06
601.203	3.96382e-06
609.882	3.25246e-06
618.56	4.06369e-06
627.238	5.37868e-06
635.916	3.77242e-06
644.594	3.47305e-06
653.272	3.15068e-06
661.951	4.08819e-06
670.629	3.50174e-06
679.307	2.85208e-06
687.985	4.02699e-06
696.663	3.72906e-06
705.341	3.2667e-06
714.019	3.8392e-06
722.698	5.08947e-06
731.376	7.95684e-06
740.054	1.07877e-05
748.732	9.21784e-06
757.41	7.19334e-06
766.088	5.18453e-06
774.767	4.45066e-06
783.445	5.11297e-06
792.123	5.64359e-06
800.801	6.25679e-06
809.479	7.93938e-06
818.157	8.83974e-06
826.835	1.30473e-05
835.514	2.04519e-05
844.192	2.37843e-05
852.87	2.53605e-05
861.548	1.85717e-05
870.226	1.23334e-05
878.904	1.03859e-05
887.583	1.0295e-05
896.261	1.29867e-05
904.939	1.41131e-05
913.617	1.42185e-05
922.295	1.76796e-05
930.973	2.78861e-05
939.651	4.30979e-05
948.33	5.29784e-05
957.008	5.42938e-05
965.686	4.67617e-05
974.364	4.00157e-05
983.042	4.55088e-05
991.72	5.03592e-05
1000.4	6.08942e-05
1009.08	7.27134e-05
1017.75	9.74253e-05
1026.43	0.000128639
1035.11	0.000176592
1043.79	0.000201692
1052.47	0.00020804
1061.15	0.000204552
1069.82	0.000221125
1078.5	0.000198974
1087.18	0.000134636
1095.86	8.55221e-05
1104.54	5.6951e-05
1113.21	4.09746e-05
1121.89	3.09874e-05
1130.57	2.39309e-05
1139.25	1.92685e-05
1147.93	1.71917e-05
1156.61	1.70974e-05
1165.28	1.85752e-05
1173.96	2.2192e-05
1182.64	2.74566e-05
1191.32	3.52101e-05
1200	4.22777e-05
1208.67	4.87618e-05
1217.35	4.87901e-05
1226.03	4.35367e-05
1234.71	3.62454e-05
1243.39	3.26251e-05
1252.07	3.26041e-05
1260.74	3.49104e-05
1269.42	3.71058e-05
1278.1	3.8578e-05
1286.78	3.6538e-05
1295.46	3.2446e-05
1304.13	2.72523e-05
1312.81	2.51142e-05
1321.49	2.47857e-05
1330.17	2.85403e-05
1338.85	3.31774e-05
1347.52	3.42171e-05
1356.2	3.43153e-05
1364.88	3.79041e-05
1373.56	5.87876e-05
1382.24	7.81862e-05
1390.92	9.15058e-05
1399.59	6.77491e-05
1408.27	4.09678e-05
1416.95	2.72688e-05
1425.63	2.42116e-05
1434.31	2.78761e-05
1442.98	3.76166e-05
1451.66	4.95586e-05
1460.34	5.99659e-05
1469.02	6.1411e-05
1477.7	5.73917e-05
1486.38	4.13208e-05
1495.05	2.44503e-05
1503.73	1.24228e-05
1512.41	7.02247e-06
1521.09	5.86115e-06
1529.77	3.58195e-06
1538.44	4.0729e-06
1547.12	3.26505e-06
1555.8	2.91293e-06
1564.48	2.76099e-06
1573.16	2.63585e-06
1581.83	2.30329e-06
1590.51	2.27501e-06
1599.19	2.14366e-06
1607.87	2.14028e-06
1616.55	3.70557e-06
1625.23	1.94267e-06
1633.9	1.43181e-06
1642.58	1.86404e-06
1651.26	1.83458e-06
1659.94	1.7498e-06
1668.62	1.85173e-06
1677.29	1.60782e-06
1685.97	1.61019e-06
1694.65	1.74526e-06
1703.33	1.60188e-06
1712.01	1.52113e-06
1720.69	1.40533e-06
1729.36	1.3879e-06
1738.04	1.47685e-06
1746.72	1.67115e-06
1755.4	1.45654e-06
1764.08	1.32684e-06
1772.75	2.36277e-06
1781.43	1.34094e-06
1790.11	1.6073e-06
1798.79	1.57925e-06
1807.47	1.50862e-06
1816.15	1.15516e-06
1824.82	1.31736e-06
1833.5	1.08729e-06
1842.18	1.22769e-06
1850.86	1.25638e-06
1859.54	1.44408e-06
1868.21	1.65743e-06
1876.89	1.33492e-06
1885.57	1.20894e-06
1894.25	1.40431e-06
1902.93	1.49034e-06
1911.6	1.52321e-06
1920.28	1.5294e-06
1928.96	1.65199e-06
1937.64	1.3e-06
1946.32	1.31161e-06
1955	1.49474e-06
1963.67	1.27522e-06
1972.35	1.6208e-06
1981.03	1.76566e-06
1989.71	1.74769e-06
1998.39	1.57437e-06
2007.06	1.90018e-06
2015.74	2.25256e-06
2024.42	3.01254e-06
2033.1	3.49018e-06
2041.78	3.43572e-06
2050.46	2.70927e-06
2059.13	2.18087e-06
2067.81	1.70332e-06
2076.49	1.55347e-06
2085.17	1.76151e-06
2093.85	1.62061e-06
2102.52	1.43225e-06
2111.2	1.16354e-06
2119.88	9.755e-07
2128.56	8.36543e-07
2137.24	8.79303e-07
2145.91	1.00782e-06
2154.59	1.15504e-06
2163.27	1.28594e-06
2171.95	1.54446e-06
2180.63	1.62689e-06
2189.31	1.75169e-06
2197.98	1.77185e-06
2206.66	1.74618e-06
2215.34	1.73651e-06
2224.02	1.45514e-06
2232.7	1.60891e-06
2241.37	1.6774e-06
2250.05	1.40809e-06
2258.73	1.61277e-06
2267.41	1.56852e-06
2276.09	2.17655e-06
2284.77	2.2021e-06
2293.44	2.07638e-06
2302.12	2.14972e-06
2310.8	2.39508e-06
2319.48	2.73836e-06
2328.16	2.91189e-06
2336.83	2.57996e-06
2345.51	2.88853e-06
2354.19	2.65821e-06
2362.87	3.02257e-06
2371.55	2.61562e-06
2380.23	2.73055e-06
2388.9	2.85593e-06
2397.58	2.81692e-06
2406.26	3.39308e-06
2414.94	3.52783e-06
2423.62	3.49958e-06
2432.29	3.32434e-06
2440.97	3.05406e-06
2449.65	2.615e-06
2458.33	2.0999e-06
2467.01	2.21599e-06
2475.68	2.12564e-06
2484.36	1.73168e-06
2493.04	2.17402e-06
2501.72	1.6223e-06
2510.4	2.01619e-06
2519.08	1.92238e-06
2527.75	1.95724e-06
2536.43	2.18132e-06
2545.11	2.31734e-06
2553.79	2.32692e-06
2562.47	2.40016e-06
2571.14	2.76897e-06
2579.82	2.88482e-06
2588.5	3.47515e-06
2597.18	3.7498e-06
2605.86	3.85279e-06
2614.54	4.19753e-06
2623.21	4.38007e-06
2631.89	4.67369e-06
2640.57	5.09504e-06
2649.25	5.91585e-06
2657.93	6.28728e-06
2666.6	7.26174e-06
2675.28	7.61261e-06
2683.96	8.39255e-06
2692.64	8.49496e-06
2701.32	8.99609e-06
2709.99	9.31919e-06
2718.67	1.04252e-05
2727.35	1.21301e-05
2736.03	1.45376e-05
2744.71	1.66078e-05
2753.39	1.76748e-05
2762.06	1.79046e-05
2770.74	1.87292e-05
2779.42	2.0066e-05
2788.1	2.19377e-05
2796.78	2.29049e-05
2805.45	2.3629e-05
2814.13	2.50989e-05
2822.81	2.98683e-05
2831.49	4.00544e-05
2840.17	6.01458e-05
2848.85	9.38744e-05
2857.52	0.000136928
2866.2	0.000196328
2874.88	0.000280821
2883.56	0.000330129
2892.24	0.00033628
2900.91	0.000282193
2909.59	0.000279245
2918.27	0.000315043
2926.95	0.000369207
2935.63	0.000432873
2944.31	0.000464462
2952.98	0.000452046
2961.66	0.00047169
2970.34	0.000487295
2979.02	0.000400962
2987.7	0.000210207
2996.37	8.31783e-05
3005.05	3.3653e-05
3013.73	1.62343e-05
3022.41	1.12889e-05
3031.09	9.92911e-06
3039.76	8.985e-06
3048.44	9.00765e-06
3057.12	8.09678e-06
3065.8	7.29155e-06
3074.48	6.06252e-06
3083.16	5.06899e-06
3091.83	4.74716e-06
3100.51	4.8117e-06
3109.19	4.28538e-06
3117.87	4.10985e-06
3126.55	4.01468e-06
3135.22	4.15933e-06
3143.9	3.81053e-06
3152.58	3.86983e-06
3161.26	4.04365e-06
3169.94	4.16475e-06
3178.62	3.61156e-06
3187.29	4.19443e-06
3195.97	4.44008e-06
3204.65	4.44683e-06
3213.33	4.07779e-06
3222.01	2.85354e-06
3230.68	2.30298e-06
3239.36	1.49443e-06
3248.04	1.619e-06
3256.72	1.68699e-06
3265.4	1.56622e-06
3274.07	1.10479e-06
3282.75	9.97222e-07
3291.43	9.56471e-07
3300.11	1.44002e-06
3308.79	1.45164e-06
3317.47	1.93072e-06
3326.14	1.4669e-06
3334.82	1.58196e-06
3343.5	1.22818e-06
3352.18	1.25721e-06
3360.86	1.36807e-06
3369.53	1.45379e-06
3378.21	1.39528e-06
3386.89	1.30284e-06
3395.57	1.52569e-06
3404.25	1.68964e-06
3412.93	1.89688e-06
3421.6	2.48547e-06
3430.28	2.95351e-06
3438.96	2.6049e-06
3447.64	2.57864e-06
3456.32	2.32928e-06
3464.99	2.98246e-06
3473.67	3.44292e-06
3482.35	3.46204e-06
3491.03	2.83458e-06
3499.71	2.58406e-06
3508.39	2.36135e-06
3517.06	2.39294e-06
3525.74	1.73662e-06
3534.42	2.49838e-06
3543.1	2.28753e-06
3551.78	2.0863e-06
3560.45	2.00004e-06
3569.13	2.11537e-06
3577.81	2.17902e-06
3586.49	2.17673e-06
3595.17	2.39367e-06
3603.84	2.62636e-06
3612.52	3.74048e-06
3621.2	5.05552e-06
3629.88	8.50774e-06
3638.56	1.44866e-05
3647.24	3.00931e-05
3655.91	4.9948e-05
3664.59	6.81593e-05
3673.27	7.8075e-05
3681.95	6.31374e-05
3690.63	3.53095e-05
3699.3	1.40222e-05
3707.98	6.71015e-06
3716.66	4.59797e-06
3725.34	4.03534e-06
3734.02	3.49915e-06
3742.7	3.58637e-06
3751.37	3.32386e-06
3760.05	3.47571e-06
3768.73	3.08135e-06
3777.41	3.18455e-06
3786.09	3.13435e-06
3794.76	3.24056e-06
3803.44	3.53305e-06
3812.12	3.58311e-06
3820.8	4.63673e-06
3829.48	4.10815e-06
3838.16	5.67232e-06
3846.83	4.84922e-06
3855.51	5.24718e-06
3864.19	5.43431e-06
3872.87	4.96993e-06
3881.55	4.32148e-06
3890.22	3.54126e-06
3898.9	3.33719e-06
3907.58	3.05171e-06
3916.26	2.34845e-06
3924.94	2.39431e-06
3933.61	2.39624e-06
3942.29	2.51114e-06
3950.97	1.83494e-06
3959.65	2.06307e-06
3968.33	2.28775e-06
