Infrared Spectrum: Benzene
Formula: C6 H6
CAS: 71-43-2
State: gas
Melting point: 5.5 C
Boiling point: 80.1 C
Class: IUPAC A
Instrument: IFS66V (Bruker)
Instrument parameters: KBr Beam Splitter; MCT Detector; Multipass cell
Sampling: 1 L/min Flow
Resolution: 0.2410
Temperature: 23 C
Pressure: 101.3 Pa
Origin: NIST, Analytical Chemistry Division, 301-975-3108
cm-1	(micromol/mol)-1m-1 (base 10)
575.05	7.34243e-07
583.608	1.97312e-08
592.165	7.27841e-08
600.723	7.90992e-08
609.281	4.58939e-07
617.838	-3.00434e-07
626.396	6.51157e-08
634.954	2.93655e-06
643.511	3.12538e-05
652.069	0.000162082
660.627	0.000308981
669.184	9.65379e-05
677.742	9.84713e-05
686.3	0.000352767
694.857	0.000193072
703.415	3.5443e-05
711.973	3.12075e-06
720.53	3.50999e-07
729.088	1.33505e-07
737.645	-5.92226e-08
746.203	-3.4384e-08
754.761	1.29169e-07
763.318	6.46385e-07
771.876	6.1363e-07
780.434	1.47658e-06
788.991	6.13296e-07
797.549	9.27175e-07
806.107	-1.73884e-08
814.664	-1.85758e-07
823.222	-1.11024e-08
831.78	-1.30683e-07
840.337	7.10525e-08
848.895	-1.88013e-07
857.453	-1.22621e-07
866.01	-1.7013e-07
874.568	-2.19866e-08
883.126	-1.2607e-07
891.683	-2.61787e-07
900.241	-1.03501e-07
908.799	-2.61074e-07
917.356	-1.50705e-07
925.914	-1.42745e-07
934.472	-2.74301e-07
943.029	-1.50035e-07
951.587	-1.41639e-07
960.145	-1.55623e-07
968.702	-3.33654e-08
977.26	-1.80287e-08
985.818	1.05102e-07
994.375	6.97138e-07
1002.93	1.96524e-06
1011.49	8.70327e-06
1020.05	2.80728e-05
1028.61	2.80672e-05
1037.16	8.28034e-05
1045.72	2.3762e-05
1054.28	2.70951e-05
1062.84	7.33318e-06
1071.39	4.36268e-07
1079.95	-6.97429e-08
1088.51	-1.58533e-07
1097.07	-2.68597e-07
1105.62	-1.25561e-07
1114.18	-1.71556e-08
1122.74	-2.87673e-08
1131.3	-2.02652e-07
1139.86	-1.93135e-07
1148.41	-1.87621e-07
1156.97	-1.15564e-07
1165.53	-1.24338e-07
1174.09	-1.14444e-07
1182.64	-1.74612e-09
1191.2	3.00231e-07
1199.76	-1.2412e-08
1208.32	6.98302e-08
1216.87	1.09016e-07
1225.43	3.66889e-07
1233.99	1.07314e-06
1242.55	1.0701e-06
1251.1	1.12473e-06
1259.66	3.74717e-07
1268.22	-2.05504e-07
1276.78	-1.89469e-07
1285.34	-2.46421e-07
1293.89	-2.33733e-07
1302.45	-2.50088e-07
1311.01	-2.12619e-07
1319.57	-1.6108e-07
1328.12	-2.35552e-07
1336.68	-1.45859e-07
1345.24	-2.22281e-07
1353.8	-3.61825e-07
1362.35	7.77023e-09
1370.91	1.50441e-06
1379.47	3.92628e-06
1388.03	3.55493e-06
1396.59	3.7276e-06
1405.14	1.18739e-06
1413.7	-9.44796e-08
1422.26	-1.57689e-07
1430.82	-8.71459e-08
1439.37	-8.89648e-08
1447.93	5.41574e-07
1456.49	5.40865e-06
1465.05	3.32324e-05
1473.6	6.19289e-05
1482.16	9.1718e-05
1490.72	5.28838e-05
1499.28	4.77551e-05
1507.83	2.01209e-05
1516.39	1.35417e-05
1524.95	1.23627e-05
1533.51	8.23706e-06
1542.07	1.43765e-06
1550.62	-2.99314e-08
1559.18	-1.4551e-08
1567.74	-8.37556e-08
1576.3	7.85594e-07
1584.85	1.54241e-09
1593.41	8.07872e-08
1601.97	3.8275e-07
1610.53	6.89135e-07
1619.08	7.35684e-07
1627.64	5.30573e-07
1636.2	9.69868e-07
1644.76	3.86838e-07
1653.31	1.53251e-06
1661.87	8.56035e-07
1670.43	9.84186e-07
1678.99	1.18998e-06
1687.55	3.58347e-07
1696.1	5.95994e-07
1704.66	7.83426e-08
1713.22	8.31881e-08
1721.78	-6.45919e-08
1730.33	3.28823e-07
1738.89	9.99363e-07
1747.45	9.09714e-07
1756.01	2.32478e-06
1764.56	1.37184e-06
1773.12	1.72146e-06
1781.68	2.71586e-06
1790.24	7.79855e-06
1798.79	2.65593e-05
1807.35	3.09504e-05
1815.91	2.85588e-05
1824.47	2.44808e-05
1833.03	3.21689e-06
1841.58	2.91951e-07
1850.14	9.63276e-08
1858.7	2.38214e-07
1867.26	4.33431e-07
1875.81	5.14203e-07
1884.37	4.68702e-07
1892.93	2.27796e-07
1901.49	1.04971e-07
1910.04	7.53742e-09
1918.6	1.67307e-07
1927.16	1.06231e-06
1935.72	4.83927e-06
1944.28	1.67782e-05
1952.83	2.15827e-05
1961.39	1.84731e-05
1969.95	1.73276e-05
1978.51	2.545e-06
1987.06	8.82605e-07
1995.62	5.05822e-07
2004.18	8.3661e-07
2012.74	4.42088e-07
2021.29	7.2835e-07
2029.85	1.74481e-07
2038.41	-2.28742e-08
2046.97	-9.48143e-08
2055.52	-9.07982e-08
2064.08	-9.14676e-08
2072.64	-2.72264e-07
2081.2	-1.246e-07
2089.76	-9.0449e-08
2098.31	-1.73332e-07
2106.87	-1.62869e-07
2115.43	-3.64794e-08
2123.99	-1.76373e-07
2132.54	-1.41188e-07
2141.1	-1.04418e-07
2149.66	-1.89061e-07
2158.22	2.05795e-07
2166.77	-1.3336e-07
2175.33	-1.86078e-07
2183.89	-5.99938e-08
2192.45	1.1034e-07
2201	9.75324e-07
2209.56	2.95314e-06
2218.12	3.18977e-06
2226.68	6.80754e-07
2235.24	1.60207e-08
2243.79	-1.23203e-07
2252.35	-1.31774e-07
2260.91	-6.88408e-08
2269.47	1.02686e-07
2278.02	1.05931e-07
2286.58	1.3173e-07
2295.14	7.61308e-08
2303.7	3.60748e-07
2312.25	2.77891e-06
2320.81	3.83489e-06
2329.37	4.31997e-06
2337.93	3.80749e-06
2346.49	7.60406e-07
2355.04	1.49817e-07
2363.6	5.89868e-07
2372.16	7.00543e-07
2380.72	7.65746e-07
2389.27	6.82034e-07
2397.83	1.14851e-06
2406.39	9.42075e-07
2414.95	3.77555e-07
2423.5	4.64017e-07
2432.06	8.07289e-08
2440.62	2.56534e-08
2449.18	1.48129e-08
2457.73	-1.41872e-08
2466.29	4.59084e-08
2474.85	9.05509e-08
2483.41	1.46761e-07
2491.97	2.48095e-08
2500.52	-1.01653e-07
2509.08	-1.02279e-07
2517.64	-1.80883e-07
2526.2	-2.03205e-07
2534.75	-1.8148e-07
2543.31	-8.01615e-08
2551.87	7.25658e-08
2560.43	8.27224e-08
2568.98	4.38567e-08
2577.54	1.5069e-07
2586.1	3.59832e-07
2594.66	8.53081e-07
2603.21	1.51162e-06
2611.77	2.24998e-06
2620.33	7.25455e-07
2628.89	5.6388e-07
2637.45	3.0576e-07
2646	5.38984e-07
2654.56	9.34087e-07
2663.12	1.17207e-06
2671.68	2.77036e-07
2680.23	-8.80336e-08
2688.79	-1.43691e-07
2697.35	-2.04049e-07
2705.91	-2.00877e-07
2714.46	-1.9833e-07
2723.02	-2.14438e-07
2731.58	-2.82537e-07
2740.14	-1.89032e-07
2748.69	-3.06226e-07
2757.25	-1.58911e-07
2765.81	-1.98432e-07
2774.37	-1.44826e-07
2782.93	-1.41799e-07
2791.48	-7.14018e-08
2800.04	3.9925e-07
2808.6	1.36474e-06
2817.16	2.23032e-06
2825.71	2.74324e-06
2834.27	2.11583e-06
2842.83	2.23381e-06
2851.39	1.66011e-06
2859.94	1.14912e-06
2868.5	1.83199e-06
2877.06	2.38958e-06
2885.62	3.74541e-06
2894.18	6.3126e-06
2902.73	5.17557e-06
2911.29	2.79494e-06
2919.85	1.57726e-06
2928.41	2.42958e-07
2936.96	-5.84805e-08
2945.52	-2.49622e-07
2954.08	-7.57089e-08
2962.64	-3.4547e-07
2971.19	-2.5019e-07
2979.75	-1.93295e-07
2988.31	1.40825e-07
2996.87	2.27083e-07
3005.42	9.19667e-07
3013.98	3.71192e-06
3022.54	2.4313e-05
3031.1	0.000114153
3039.66	0.00018887
3048.21	0.000226967
3056.77	0.000218278
3065.33	9.91104e-05
3073.89	0.000104449
3082.44	0.000140744
3091	0.000143457
3099.56	0.000140031
3108.12	0.000129627
3116.67	7.08685e-05
3125.23	7.84762e-06
3133.79	1.06975e-06
3142.35	1.87708e-08
3150.9	-1.65721e-07
3159.46	-2.26617e-07
3168.02	-1.11941e-07
3176.58	-3.00071e-07
3185.14	-2.64566e-07
3193.69	-2.71041e-07
3202.25	-1.41581e-07
3210.81	-2.04616e-07
3219.37	-2.30924e-07
3227.92	-1.7371e-07
3236.48	-2.34839e-07
3245.04	-1.28383e-07
3253.6	-3.4224e-08
3262.15	-2.15384e-07
3270.71	-1.51141e-07
3279.27	-2.4923e-07
3287.83	-3.35924e-07
3296.38	-2.79248e-07
3304.94	-1.98316e-07
3313.5	-1.87359e-07
3322.06	-1.80927e-07
3330.62	-3.43666e-07
3339.17	-1.98883e-07
3347.73	-1.41305e-07
3356.29	-1.77348e-07
3364.85	-2.79175e-07
3373.4	-2.94658e-08
3381.96	-1.70232e-07
3390.52	-2.85462e-07
3399.08	-8.53271e-08
3407.63	6.65999e-08
3416.19	7.85172e-08
3424.75	-1.10558e-07
3433.31	6.1638e-08
3441.87	2.16417e-07
3450.42	2.83453e-08
3458.98	-1.06513e-08
3467.54	-2.25977e-08
3476.1	-2.71638e-07
3484.65	-1.10297e-07
3493.21	-2.18454e-07
3501.77	-9.59784e-08
3510.33	-1.1552e-07
3518.88	-1.44142e-07
3527.44	-2.86582e-07
3536	-3.77133e-07
3544.56	-1.32065e-07
3553.11	-1.85642e-07
3561.67	-1.55012e-07
3570.23	-2.12619e-07
3578.79	-1.66696e-07
3587.35	-2.05533e-07
3595.9	-1.77057e-07
3604.46	1.18809e-07
3613.02	1.94896e-07
3621.58	1.03709e-06
3630.13	4.43223e-07
3638.69	7.82247e-07
3647.25	2.29009e-06
3655.81	2.42916e-06
3664.36	7.96638e-07
3672.92	3.24895e-07
3681.48	2.36628e-07
3690.04	7.87486e-07
3698.59	1.62862e-06
3707.15	1.76658e-06
3715.71	8.70266e-07
3724.27	2.92417e-07
3732.83	1.96191e-07
3741.38	1.34771e-07
3749.94	-1.16015e-07
3758.5	1.65299e-08
3767.06	-3.75998e-08
3775.61	-1.50734e-07
3784.17	-8.49633e-08
3792.73	-1.04331e-07
3801.29	5.20067e-07
3809.84	-1.75354e-07
3818.4	-2.59459e-07
3826.96	-2.63999e-07
3835.52	-2.28509e-07
3844.08	-7.72804e-08
3852.63	-1.66842e-07
3861.19	-1.29882e-07
3869.75	-4.28963e-08
3878.31	-3.07608e-07
3886.86	-1.99916e-07
3895.42	-2.42507e-07
3903.98	-1.3969e-07
3912.54	1.81014e-08
3921.09	2.18265e-09
3929.65	2.22776e-08
3938.21	3.87537e-07
3946.77	7.62749e-07
3955.32	5.6615e-07
3963.88	5.30399e-07
3972.44	7.31377e-07
