Infrared Spectrum: Benzene
Formula: C6 H6
CAS: 71-43-2
State: gas
Melting point: 5.5 C
Boiling point: 80.1 C
Class: IUPAC A
Instrument: IFS66V (Bruker)
Instrument parameters: KBr Beam Splitter; MCT Detector; Multipass cell
Sampling: 1 L/min Flow
Resolution: 0.2410
Temperature: 23 C
Pressure: 101.3 Pa
Origin: NIST, Analytical Chemistry Division, 301-975-3108
cm-1	(micromol/mol)-1m-1 (base 10)
575.05	7.39031e-07
583.608	2.28451e-08
592.165	6.1478e-08
600.723	9.54546e-08
609.281	4.52201e-07
617.838	-2.85622e-07
626.396	4.85276e-08
634.954	2.9539e-06
643.511	3.12192e-05
652.069	0.00016215
660.627	0.000309167
669.184	9.65602e-05
677.742	9.87261e-05
686.3	0.00035279
694.857	0.000193166
703.415	3.54239e-05
711.973	3.13555e-06
720.53	3.37118e-07
729.088	1.44113e-07
737.645	-6.8608e-08
746.203	-2.6119e-08
754.761	1.22359e-07
763.318	6.50444e-07
771.876	6.07548e-07
780.434	1.47563e-06
788.991	6.06136e-07
797.549	9.34975e-07
806.107	-1.90036e-08
814.664	-1.8375e-07
823.222	-1.20337e-08
831.78	-1.31716e-07
840.337	7.25949e-08
848.895	-1.84798e-07
857.453	-1.23349e-07
866.01	-1.6933e-07
874.568	-2.04733e-08
883.126	-1.25299e-07
891.683	-2.62325e-07
900.241	-1.03283e-07
908.799	-2.6314e-07
917.356	-1.48784e-07
925.914	-1.41989e-07
934.472	-2.75261e-07
943.029	-1.48726e-07
951.587	-1.43327e-07
960.145	-1.56176e-07
968.702	-3.51407e-08
977.26	-1.57878e-08
985.818	1.01915e-07
994.375	6.99932e-07
1002.93	1.96497e-06
1011.49	8.70356e-06
1020.05	2.80709e-05
1028.61	2.80714e-05
1037.16	8.27978e-05
1045.72	2.37656e-05
1054.28	2.70974e-05
1062.84	7.33416e-06
1071.39	4.33125e-07
1079.95	-6.76185e-08
1088.51	-1.5977e-07
1097.07	-2.67346e-07
1105.62	-1.26637e-07
1114.18	-1.50312e-08
1122.74	-2.94221e-08
1131.3	-2.00003e-07
1139.86	-1.94256e-07
1148.41	-1.86966e-07
1156.97	-1.17907e-07
1165.53	-1.2233e-07
1174.09	-1.16699e-07
1182.64	1.44055e-09
1191.2	2.99125e-07
1199.76	-1.03458e-08
1208.32	6.82878e-08
1216.87	1.12319e-07
1225.43	3.63659e-07
1233.99	1.07488e-06
1242.55	1.06838e-06
1251.1	1.12645e-06
1259.66	3.74121e-07
1268.22	-2.04762e-07
1276.78	-1.90298e-07
1285.34	-2.44879e-07
1293.89	-2.35217e-07
1302.45	-2.4872e-07
1311.01	-2.14278e-07
1319.57	-1.57646e-07
1328.12	-2.36905e-07
1336.68	-1.44593e-07
1345.24	-2.2215e-07
1353.8	-3.59031e-07
1362.35	7.71203e-09
1370.91	1.50569e-06
1379.47	3.92579e-06
1388.03	3.55645e-06
1396.59	3.72642e-06
1405.14	1.18957e-06
1413.7	-9.64004e-08
1422.26	-1.56409e-07
1430.82	-8.815e-08
1439.37	-8.81936e-08
1447.93	5.4185e-07
1456.49	5.41047e-06
1465.05	3.3232e-05
1473.6	6.19291e-05
1482.16	9.1733e-05
1490.72	5.28852e-05
1499.28	4.77555e-05
1507.83	2.01225e-05
1516.39	1.35409e-05
1524.95	1.23626e-05
1533.51	8.23485e-06
1542.07	1.44167e-06
1550.62	-3.02806e-08
1559.18	-1.48129e-08
1567.74	-8.46868e-08
1576.3	7.90425e-07
1584.85	5.52938e-10
1593.41	8.0758e-08
1601.97	3.82633e-07
1610.53	6.90023e-07
1619.08	7.3596e-07
1627.64	5.30064e-07
1636.2	9.70785e-07
1644.76	3.86882e-07
1653.31	1.5415e-06
1661.87	8.54755e-07
1670.43	9.84331e-07
1678.99	1.19024e-06
1687.55	3.58697e-07
1696.1	5.95223e-07
1704.66	7.80516e-08
1713.22	8.33918e-08
1721.78	-6.5203e-08
1730.33	3.2811e-07
1738.89	9.99232e-07
1747.45	9.09947e-07
1756.01	2.32557e-06
1764.56	1.37191e-06
1773.12	1.72197e-06
1781.68	2.71493e-06
1790.24	7.79923e-06
1798.79	2.65606e-05
1807.35	3.09522e-05
1815.91	2.85577e-05
1824.47	2.44818e-05
1833.03	3.21555e-06
1841.58	2.92082e-07
1850.14	9.57019e-08
1858.7	2.3967e-07
1867.26	4.32572e-07
1875.81	5.14989e-07
1884.37	4.68368e-07
1892.93	2.27941e-07
1901.49	1.05102e-07
1910.04	7.88664e-09
1918.6	1.67788e-07
1927.16	1.06094e-06
1935.72	4.83748e-06
1944.28	1.6778e-05
1952.83	2.15808e-05
1961.39	1.84755e-05
1969.95	1.73274e-05
1978.51	2.54577e-06
1987.06	8.82009e-07
1995.62	5.06564e-07
2004.18	8.34529e-07
2012.74	4.42321e-07
2021.29	7.27696e-07
2029.85	1.73332e-07
2038.41	-2.34271e-08
2046.97	-9.34611e-08
2055.52	-9.2166e-08
2064.08	-8.96778e-08
2072.64	-2.73602e-07
2081.2	-1.23349e-07
2089.76	-9.16713e-08
2098.31	-1.73448e-07
2106.87	-1.63888e-07
2115.43	-3.80945e-08
2123.99	-1.80534e-07
2132.54	-1.40301e-07
2141.1	-1.03763e-07
2149.66	-1.89148e-07
2158.22	2.07934e-07
2166.77	-1.31425e-07
2175.33	-1.86267e-07
2183.89	-5.82477e-08
2192.45	1.09613e-07
2201	9.77041e-07
2209.56	2.9535e-06
2218.12	3.18975e-06
2226.68	6.80492e-07
2235.24	1.669e-08
2243.79	-1.22971e-07
2252.35	-1.31541e-07
2260.91	-7.01795e-08
2269.47	1.02919e-07
2278.02	1.05538e-07
2286.58	1.32138e-07
2295.14	7.59853e-08
2303.7	3.62509e-07
2312.25	2.77934e-06
2320.81	3.83452e-06
2329.37	4.31929e-06
2337.93	3.80283e-06
2346.49	7.59679e-07
2355.04	1.49934e-07
2363.6	5.89432e-07
2372.16	7.01446e-07
2380.72	7.66125e-07
2389.27	6.81656e-07
2397.83	1.14979e-06
2406.39	9.43501e-07
2414.95	3.77162e-07
2423.5	4.65443e-07
2432.06	8.08454e-08
2440.62	2.68757e-08
2449.18	1.46529e-08
2457.73	-1.39253e-08
2466.29	4.68688e-08
2474.85	8.94304e-08
2483.41	1.47693e-07
2491.97	2.34126e-08
2500.52	-1.00358e-07
2509.08	-1.02395e-07
2517.64	-1.79996e-07
2526.2	-2.03103e-07
2534.75	-1.8327e-07
2543.31	-7.9754e-08
2551.87	7.19547e-08
2560.43	8.49051e-08
2568.98	4.43369e-08
2577.54	1.49613e-07
2586.1	3.60094e-07
2594.66	8.51495e-07
2603.21	1.5136e-06
2611.77	2.24798e-06
2620.33	7.256e-07
2628.89	5.63342e-07
2637.45	3.0803e-07
2646	5.36903e-07
2654.56	9.34814e-07
2663.12	1.17197e-06
2671.68	2.75902e-07
2680.23	-8.84846e-08
2688.79	-1.43211e-07
2697.35	-2.03263e-07
2705.91	-2.00033e-07
2714.46	-2.00149e-07
2723.02	-2.14671e-07
2731.58	-2.84967e-07
2740.14	-1.86937e-07
2748.69	-3.10038e-07
2757.25	-1.55405e-07
2765.81	-1.99363e-07
2774.37	-1.43284e-07
2782.93	-1.42847e-07
2791.48	-7.17946e-08
2800.04	3.97562e-07
2808.6	1.36519e-06
2817.16	2.22937e-06
2825.71	2.74125e-06
2834.27	2.11612e-06
2842.83	2.23432e-06
2851.39	1.66068e-06
2859.94	1.14768e-06
2868.5	1.83219e-06
2877.06	2.39039e-06
2885.62	3.74534e-06
2894.18	6.31572e-06
2902.73	5.17409e-06
2911.29	2.79714e-06
2919.85	1.57452e-06
2928.41	2.41314e-07
2936.96	-5.94263e-08
2945.52	-2.4808e-07
2954.08	-7.66983e-08
2962.64	-3.4595e-07
2971.19	-2.51543e-07
2979.75	-1.94081e-07
2988.31	1.42556e-07
2996.87	2.27621e-07
3005.42	9.18823e-07
3013.98	3.7118e-06
3022.54	2.43127e-05
3031.1	0.000114153
3039.66	0.000188864
3048.21	0.000227022
3056.77	0.000218279
3065.33	9.91131e-05
3073.89	0.000104445
3082.44	0.000140747
3091	0.000143466
3099.56	0.000140027
3108.12	0.000129626
3116.67	7.08684e-05
3125.23	7.84402e-06
3133.79	1.07036e-06
3142.35	1.77231e-08
3150.9	-1.67526e-07
3159.46	-2.30764e-07
3168.02	-1.11577e-07
3176.58	-2.9863e-07
3185.14	-2.66152e-07
3193.69	-2.73399e-07
3202.25	-1.41407e-07
3210.81	-2.05096e-07
3219.37	-2.30866e-07
3227.92	-1.73288e-07
3236.48	-2.37589e-07
3245.04	-1.30217e-07
3253.6	-3.08336e-08
3262.15	-2.17101e-07
3270.71	-1.48493e-07
3279.27	-2.5035e-07
3287.83	-3.37831e-07
3296.38	-2.80092e-07
3304.94	-1.97763e-07
3313.5	-1.89847e-07
3322.06	-1.79923e-07
3330.62	-3.45295e-07
3339.17	-1.97064e-07
3347.73	-1.39209e-07
3356.29	-1.80985e-07
3364.85	-2.81038e-07
3373.4	-2.87673e-08
3381.96	-1.66667e-07
3390.52	-2.89507e-07
3399.08	-8.8441e-08
3407.63	6.55232e-08
3416.19	7.93757e-08
3424.75	-1.11723e-07
3433.31	6.55086e-08
3441.87	2.16926e-07
3450.42	2.93785e-08
3458.98	-1.04913e-08
3467.54	-1.99931e-08
3476.1	-2.74039e-07
3484.65	-1.11955e-07
3493.21	-2.20899e-07
3501.77	-9.40868e-08
3510.33	-1.14953e-07
3518.88	-1.434e-07
3527.44	-2.88241e-07
3536	-3.7821e-07
3544.56	-1.32589e-07
3553.11	-1.84143e-07
3561.67	-1.56161e-07
3570.23	-2.11106e-07
3578.79	-1.65198e-07
3587.35	-2.03205e-07
3595.9	-1.80432e-07
3604.46	1.21181e-07
3613.02	1.92772e-07
3621.58	1.03882e-06
3630.13	4.427e-07
3638.69	7.8443e-07
3647.25	2.2894e-06
3655.81	2.43211e-06
3664.36	7.96653e-07
3672.92	3.25084e-07
3681.48	2.34213e-07
3690.04	7.8849e-07
3698.59	1.62776e-06
3707.15	1.76734e-06
3715.71	8.68986e-07
3724.27	2.93203e-07
3732.83	1.96526e-07
3741.38	1.3547e-07
3749.94	-1.20177e-07
3758.5	1.41872e-08
3767.06	-3.90549e-08
3775.61	-1.49264e-07
3784.17	-8.57345e-08
3792.73	-1.011e-07
3801.29	5.23836e-07
3809.84	-1.72022e-07
3818.4	-2.60754e-07
3826.96	-2.65323e-07
3835.52	-2.29658e-07
3844.08	-7.58689e-08
3852.63	-1.70203e-07
3861.19	-1.27336e-07
3869.75	-4.46861e-08
3878.31	-3.07783e-07
3886.86	-1.9964e-07
3895.42	-2.43511e-07
3903.98	-1.40839e-07
3912.54	2.06042e-08
3921.09	3.24487e-09
3929.65	2.36017e-08
3938.21	3.87348e-07
3946.77	7.62778e-07
3955.32	5.63036e-07
3963.88	5.29744e-07
3972.44	7.30111e-07
