Infrared Spectrum: Benzene
Formula: C6 H6
CAS: 71-43-2
State: gas
Melting point: 5.5 C
Boiling point: 80.1 C
Class: IUPAC A
Instrument: IFS66V (Bruker)
Instrument parameters: KBr Beam Splitter; MCT Detector; Multipass cell
Sampling: 1 L/min Flow
Resolution: 0.2410
Temperature: 23 C
Pressure: 101.3 Pa
Origin: NIST, Analytical Chemistry Division, 301-975-3108
cm-1	(micromol/mol)-1m-1 (base 10)
575.05	5.33134e-07
583.608	-4.36967e-08
592.165	1.35324e-09
600.723	1.87781e-07
609.281	3.40362e-07
617.838	-1.08769e-07
626.396	3.05571e-09
634.954	3.04299e-06
643.511	3.1209e-05
652.069	0.000161786
660.627	0.000303969
669.184	9.93422e-05
677.742	9.81846e-05
686.3	0.000350621
694.857	0.00019176
703.415	3.51761e-05
711.973	3.24147e-06
720.53	2.86029e-07
729.088	1.97734e-07
737.645	-1.14735e-07
746.203	1.37652e-08
754.761	1.18722e-07
763.318	6.76549e-07
771.876	6.02659e-07
780.434	1.51707e-06
788.991	5.98206e-07
797.549	8.89561e-07
806.107	-6.72256e-09
814.664	-1.60832e-07
823.222	-3.22596e-08
831.78	-1.51752e-07
840.337	2.68029e-08
848.895	-1.72939e-07
857.453	-1.36503e-07
866.01	-1.73142e-07
874.568	-3.48642e-08
883.126	-1.32996e-07
891.683	-2.5636e-07
900.241	-1.27074e-07
908.799	-2.48007e-07
917.356	-1.86573e-07
925.914	-1.4762e-07
934.472	-2.85287e-07
943.029	-1.4455e-07
951.587	-1.44884e-07
960.145	-1.371e-07
968.702	-5.76802e-08
977.26	-1.18882e-08
985.818	1.29038e-07
994.375	6.80085e-07
1002.93	1.95337e-06
1011.49	8.72299e-06
1020.05	2.81153e-05
1028.61	2.80834e-05
1037.16	8.27895e-05
1045.72	2.37646e-05
1054.28	2.69906e-05
1062.84	7.33721e-06
1071.39	4.31801e-07
1079.95	-6.9321e-08
1088.51	-1.52029e-07
1097.07	-2.51689e-07
1105.62	-1.25444e-07
1114.18	-3.62174e-08
1122.74	-6.10705e-08
1131.3	-1.88639e-07
1139.86	-2.25904e-07
1148.41	-1.80651e-07
1156.97	-1.48318e-07
1165.53	-1.18387e-07
1174.09	-1.29649e-07
1182.64	-8.29407e-09
1191.2	2.75174e-07
1199.76	-1.49293e-08
1208.32	6.05176e-08
1216.87	1.18445e-07
1225.43	3.84612e-07
1233.99	1.09995e-06
1242.55	1.05633e-06
1251.1	1.13646e-06
1259.66	3.44306e-07
1268.22	-1.94838e-07
1276.78	-2.00018e-07
1285.34	-2.31856e-07
1293.89	-2.35159e-07
1302.45	-2.42245e-07
1311.01	-2.11426e-07
1319.57	-1.57849e-07
1328.12	-2.48953e-07
1336.68	-1.42338e-07
1345.24	-2.45097e-07
1353.8	-3.37001e-07
1362.35	-3.05571e-10
1370.91	1.51354e-06
1379.47	3.92417e-06
1388.03	3.56898e-06
1396.59	3.72829e-06
1405.14	1.19915e-06
1413.7	-9.55128e-08
1422.26	-1.5005e-07
1430.82	-9.99363e-08
1439.37	-7.14454e-08
1447.93	5.19398e-07
1456.49	5.39065e-06
1465.05	3.32346e-05
1473.6	6.19496e-05
1482.16	9.15472e-05
1490.72	5.2906e-05
1499.28	4.77166e-05
1507.83	2.00994e-05
1516.39	1.35369e-05
1524.95	1.2387e-05
1533.51	8.24092e-06
1542.07	1.415e-06
1550.62	-3.30308e-08
1559.18	-7.58107e-09
1567.74	-7.96667e-08
1576.3	7.71669e-07
1584.85	5.8786e-09
1593.41	7.68584e-08
1601.97	3.85936e-07
1610.53	6.79095e-07
1619.08	7.45753e-07
1627.64	5.35972e-07
1636.2	9.65299e-07
1644.76	3.78952e-07
1653.31	1.44471e-06
1661.87	8.68287e-07
1670.43	9.74466e-07
1678.99	1.18598e-06
1687.55	3.51945e-07
1696.1	6.34264e-07
1704.66	8.60692e-08
1713.22	7.72658e-08
1721.78	-5.40279e-08
1730.33	3.37816e-07
1738.89	9.94735e-07
1747.45	9.11955e-07
1756.01	2.31614e-06
1764.56	1.36961e-06
1773.12	1.72616e-06
1781.68	2.71912e-06
1790.24	7.81086e-06
1798.79	2.65229e-05
1807.35	3.09268e-05
1815.91	2.85734e-05
1824.47	2.44704e-05
1833.03	3.21814e-06
1841.58	2.84661e-07
1850.14	9.77827e-08
1858.7	2.35799e-07
1867.26	4.38975e-07
1875.81	5.16328e-07
1884.37	4.61354e-07
1892.93	2.3318e-07
1901.49	8.0758e-08
1910.04	1.97312e-08
1918.6	1.56743e-07
1927.16	1.06215e-06
1935.72	4.82441e-06
1944.28	1.67954e-05
1952.83	2.16056e-05
1961.39	1.84637e-05
1969.95	1.73021e-05
1978.51	2.54436e-06
1987.06	8.75621e-07
1995.62	5.17201e-07
2004.18	8.4179e-07
2012.74	4.58284e-07
2021.29	7.31872e-07
2029.85	2.06057e-07
2038.41	-2.57407e-08
2046.97	-8.6462e-08
2055.52	-9.2719e-08
2064.08	-9.65895e-08
2072.64	-2.70561e-07
2081.2	-1.34917e-07
2089.76	-8.35373e-08
2098.31	-1.60527e-07
2106.87	-1.66565e-07
2115.43	3.63775e-10
2123.99	-1.68006e-07
2132.54	-1.40228e-07
2141.1	-1.06062e-07
2149.66	-1.82382e-07
2158.22	1.85642e-07
2166.77	-1.38278e-07
2175.33	-1.86646e-07
2183.89	-6.62798e-08
2192.45	1.00096e-07
2201	9.75266e-07
2209.56	2.93789e-06
2218.12	3.19539e-06
2226.68	6.71718e-07
2235.24	2.64683e-08
2243.79	-1.39602e-07
2252.35	-1.24455e-07
2260.91	-7.51414e-08
2269.47	9.87722e-08
2278.02	1.00373e-07
2286.58	1.31905e-07
2295.14	6.92337e-08
2303.7	3.39329e-07
2312.25	2.7717e-06
2320.81	3.82993e-06
2329.37	4.33029e-06
2337.93	3.84138e-06
2346.49	7.61236e-07
2355.04	1.42774e-07
2363.6	5.91411e-07
2372.16	6.94112e-07
2380.72	7.43745e-07
2389.27	6.90154e-07
2397.83	1.14e-06
2406.39	9.40518e-07
2414.95	3.88672e-07
2423.5	4.56669e-07
2432.06	8.51961e-08
2440.62	1.61953e-08
2449.18	7.69748e-09
2457.73	-2.23358e-08
2466.29	3.51407e-08
2474.85	9.40286e-08
2483.41	1.31075e-07
2491.97	2.36308e-08
2500.52	-9.66768e-08
2509.08	-1.10151e-07
2517.64	-1.8279e-07
2526.2	-2.09316e-07
2534.75	-1.74103e-07
2543.31	-9.17877e-08
2551.87	8.36391e-08
2560.43	6.49702e-08
2568.98	6.18563e-08
2577.54	1.66856e-07
2586.1	3.66991e-07
2594.66	8.61899e-07
2603.21	1.50815e-06
2611.77	2.25097e-06
2620.33	7.35931e-07
2628.89	5.55383e-07
2637.45	2.99139e-07
2646	5.47438e-07
2654.56	9.38947e-07
2663.12	1.15055e-06
2671.68	3.02079e-07
2680.23	-1.12843e-07
2688.79	-1.49803e-07
2697.35	-2.08894e-07
2705.91	-1.97617e-07
2714.46	-1.87824e-07
2723.02	-2.22325e-07
2731.58	-2.71798e-07
2740.14	-2.13434e-07
2748.69	-2.81897e-07
2757.25	-1.8698e-07
2765.81	-1.87591e-07
2774.37	-1.58504e-07
2782.93	-1.59246e-07
2791.48	-6.13179e-08
2800.04	3.8339e-07
2808.6	1.39153e-06
2817.16	2.23073e-06
2825.71	2.76932e-06
2834.27	2.09556e-06
2842.83	2.26626e-06
2851.39	1.65637e-06
2859.94	1.15014e-06
2868.5	1.81094e-06
2877.06	2.38166e-06
2885.62	3.74362e-06
2894.18	6.31355e-06
2902.73	5.17144e-06
2911.29	2.78029e-06
2919.85	1.60532e-06
2928.41	2.65832e-07
2936.96	-7.60726e-08
2945.52	-2.6461e-07
2954.08	-8.41775e-08
2962.64	-3.04363e-07
2971.19	-2.55676e-07
2979.75	-1.77682e-07
2988.31	1.10224e-07
2996.87	2.19778e-07
3005.42	9.03108e-07
3013.98	3.71174e-06
3022.54	2.43002e-05
3031.1	0.000114146
3039.66	0.000188897
3048.21	0.000226332
3056.77	0.000218261
3065.33	9.90586e-05
3073.89	0.000104458
3082.44	0.000140646
3091	0.000143337
3099.56	0.000140142
3108.12	0.000129631
3116.67	7.09359e-05
3125.23	7.84894e-06
3133.79	1.06953e-06
3142.35	2.12299e-08
3150.9	-1.56278e-07
3159.46	-2.25322e-07
3168.02	-1.05698e-07
3176.58	-3.1647e-07
3185.14	-2.62602e-07
3193.69	-2.74345e-07
3202.25	-1.29897e-07
3210.81	-2.19036e-07
3219.37	-2.01371e-07
3227.92	-1.85598e-07
3236.48	-1.84972e-07
3245.04	-1.37012e-07
3253.6	-4.80474e-08
3262.15	-1.95056e-07
3270.71	-1.42614e-07
3279.27	-2.21845e-07
3287.83	-3.28693e-07
3296.38	-2.70561e-07
3304.94	-2.02608e-07
3313.5	-2.04689e-07
3322.06	-1.95173e-07
3330.62	-3.36972e-07
3339.17	-2.13449e-07
3347.73	-1.71702e-07
3356.29	-1.88479e-07
3364.85	-2.68786e-07
3373.4	-4.19505e-08
3381.96	-1.68719e-07
3390.52	-2.62485e-07
3399.08	-4.88768e-08
3407.63	6.47374e-08
3416.19	6.99321e-08
3424.75	-1.00431e-07
3433.31	5.45517e-08
3441.87	1.94794e-07
3450.42	3.76143e-08
3458.98	-1.13934e-08
3467.54	-2.47513e-08
3476.1	-2.67142e-07
3484.65	-8.60692e-08
3493.21	-2.08938e-07
3501.77	-1.22985e-07
3510.33	-1.27132e-07
3518.88	-1.71454e-07
3527.44	-2.73384e-07
3536	-3.35517e-07
3544.56	-1.31643e-07
3553.11	-1.68893e-07
3561.67	-1.48711e-07
3570.23	-2.01677e-07
3578.79	-2.03641e-07
3587.35	-2.18061e-07
3595.9	-1.60818e-07
3604.46	1.06964e-07
3613.02	1.87009e-07
3621.58	1.03545e-06
3630.13	4.44242e-07
3638.69	7.6918e-07
3647.25	2.30248e-06
3655.81	2.45001e-06
3664.36	7.93146e-07
3672.92	3.37714e-07
3681.48	2.83206e-07
3690.04	8.02764e-07
3698.59	1.63013e-06
3707.15	1.76281e-06
3715.71	8.63136e-07
3724.27	3.04087e-07
3732.83	1.91986e-07
3741.38	1.21865e-07
3749.94	-1.26521e-07
3758.5	2.14191e-08
3767.06	-5.10595e-08
3775.61	-1.246e-07
3784.17	-1.11024e-07
3792.73	-1.11795e-07
3801.29	4.90471e-07
3809.84	-1.73666e-07
3818.4	-2.65701e-07
3826.96	-2.27272e-07
3835.52	-2.37123e-07
3844.08	-9.42032e-08
3852.63	-1.78133e-07
3861.19	-1.51534e-07
3869.75	-2.13172e-08
3878.31	-2.93945e-07
3886.86	-2.18119e-07
3895.42	-2.33471e-07
3903.98	-1.13018e-07
3912.54	1.49584e-08
3921.09	-3.55626e-08
3929.65	3.94187e-08
3938.21	3.70614e-07
3946.77	7.60202e-07
3955.32	6.0295e-07
3963.88	5.6097e-07
3972.44	6.9465e-07
