Infrared Spectrum: Benzene
Formula: C 6 H 6
CAS: 71-43-2
State: liquid
Instrument: Bruker Tensor 27 FTIR
Resolution: 0.48212986
Origin: Pacific Northwest National Laboratory Under IARPA Contract
1/cm	dispersion index
7797.49	1.47776
7778.93	1.47779
7760.37	1.4778
7741.81	1.4778
7723.24	1.4778
7704.68	1.4778
7686.12	1.4778
7667.56	1.4778
7649	1.4778
7630.44	1.47779
7611.88	1.47779
7593.31	1.47779
7574.75	1.47778
7556.19	1.47778
7537.63	1.47777
7519.07	1.47778
7500.51	1.47777
7481.95	1.47777
7463.38	1.47777
7444.82	1.47776
7426.26	1.47776
7407.7	1.47775
7389.14	1.47775
7370.58	1.47775
7352.02	1.47774
7333.46	1.47774
7314.89	1.47773
7296.33	1.47773
7277.77	1.47772
7259.21	1.47772
7240.65	1.47771
7222.09	1.47771
7203.53	1.4777
7184.96	1.4777
7166.4	1.47769
7147.84	1.47768
7129.28	1.47768
7110.72	1.47767
7092.16	1.47766
7073.6	1.47765
7055.03	1.47764
7036.47	1.47763
7017.91	1.47762
6999.35	1.4776
6980.79	1.47757
6962.23	1.47758
6943.67	1.47757
6925.1	1.47752
6906.54	1.47743
6887.98	1.47765
6869.42	1.47767
6850.86	1.47776
6832.3	1.47769
6813.74	1.47768
6795.17	1.47763
6776.61	1.47761
6758.05	1.47758
6739.49	1.4776
6720.93	1.47759
6702.37	1.47756
6683.81	1.47755
6665.25	1.47755
6646.68	1.47754
6628.12	1.47752
6609.56	1.47751
6591	1.47749
6572.44	1.47749
6553.88	1.47748
6535.32	1.47745
6516.75	1.47745
6498.19	1.47743
6479.63	1.47741
6461.07	1.4774
6442.51	1.47738
6423.95	1.47737
6405.39	1.47735
6386.82	1.47733
6368.26	1.47731
6349.7	1.47728
6331.14	1.47726
6312.58	1.47724
6294.02	1.47719
6275.46	1.47714
6256.89	1.47705
6238.33	1.47691
6219.77	1.47721
6201.21	1.47722
6182.65	1.47742
6164.09	1.47732
6145.53	1.4772
6126.96	1.47714
6108.4	1.47709
6089.84	1.47702
6071.28	1.47703
6052.72	1.47695
6034.16	1.47686
6015.6	1.47685
5997.03	1.47679
5978.47	1.47673
5959.91	1.47648
5941.35	1.47599
5922.79	1.4786
5904.23	1.47748
5885.67	1.47712
5867.11	1.47699
5848.54	1.47698
5829.98	1.47688
5811.42	1.47677
5792.86	1.47666
5774.3	1.47654
5755.74	1.47638
5737.18	1.47667
5718.61	1.47683
5700.05	1.47665
5681.49	1.47638
5662.93	1.47621
5644.37	1.47604
5625.81	1.47586
5607.25	1.47578
5588.68	1.47558
5570.12	1.47531
5551.56	1.47497
5533	1.47453
5514.44	1.47395
5495.88	1.47302
5477.32	1.47151
5458.75	1.46748
5440.19	1.47688
5421.63	1.46078
5403.07	1.48981
5384.51	1.48361
5365.95	1.48124
5347.39	1.47993
5328.82	1.47949
5310.26	1.47875
5291.7	1.47868
5273.14	1.47828
5254.58	1.47794
5236.02	1.4776
5217.46	1.4776
5198.89	1.47716
5180.33	1.4773
5161.77	1.47708
5143.21	1.47685
5124.65	1.47671
5106.09	1.4764
5087.53	1.47654
5068.97	1.47585
5050.4	1.47659
5031.84	1.47613
5013.28	1.47566
4994.72	1.47592
4976.16	1.47548
4957.6	1.47511
4939.04	1.47469
4920.47	1.47409
4901.91	1.473
4883.35	1.4693
4864.79	1.47658
4846.23	1.47419
4827.67	1.47243
4809.11	1.467
4790.54	1.47774
4771.98	1.4756
4753.42	1.47401
4734.86	1.47267
4716.3	1.47156
4697.74	1.47055
4679.18	1.46796
4660.61	1.46636
4642.05	1.42102
4623.49	1.48983
4604.93	1.47908
4586.37	1.4786
4567.81	1.47559
4549.25	1.47417
4530.68	1.47201
4512.12	1.47083
4493.56	1.46812
4475	1.47018
4456.44	1.46803
4437.88	1.46201
4419.32	1.42935
4400.75	1.47789
4382.19	1.47121
4363.63	1.46623
4345.07	1.46051
4326.51	1.45395
4307.95	1.4486
4289.39	1.43161
4270.83	1.40524
4252.26	1.3117
4233.7	2.20174
4215.14	1.62103
4196.58	1.55806
4178.02	1.53436
4159.46	1.5222
4140.9	1.5147
4122.33	1.50966
4103.77	1.50714
4085.21	4.97467e-05
4066.65	5.13745e-05
4048.09	5.28215e-05
4029.53	5.08319e-05
4010.97	4.97467e-05
3992.4	4.631e-05
3973.84	4.50439e-05
3955.28	4.61292e-05
3936.72	4.10647e-05
3918.16	4.05221e-05
3899.6	2.71353e-05
3881.04	3.20189e-05
3862.47	3.67216e-05
3843.91	2.026e-05
3825.35	3.56364e-05
3806.79	2.62309e-05
3788.23	3.29233e-05
3769.67	3.70834e-05
3751.11	3.31042e-05
3732.54	3.25615e-05
3713.98	2.91249e-05
3695.42	3.05719e-05
3676.86	3.20189e-05
3658.3	2.69544e-05
3639.74	2.33349e-05
3621.18	2.33349e-05
3602.61	2.35178e-05
3584.05	2.29731e-05
3565.49	2.24305e-05
3546.93	2.22496e-05
3528.37	2.06218e-05
3509.81	2.26114e-05
3491.25	2.13453e-05
3472.69	1.89939e-05
3454.12	1.70228e-05
3435.56	1.60629e-05
3417	1.42377e-05
3398.44	1.34217e-05
3379.88	1.21022e-05
3361.32	1.03119e-05
3342.76	1.25358e-05
3324.19	7.58029e-06
3305.63	4.08818e-06
3287.07	1.26263e-05
3268.51	7.03705e-05
3249.95	6.06012e-05
3231.39	2.51457e-05
3212.83	0.000109986
3194.26	0.000598773
3175.7	0.000329235
3157.14	0.000416067
3138.58	0.000178546
3120.02	6.15056e-05
3101.46	3.54555e-05
3082.9	4.95658e-05
3064.33	3.16572e-05
3045.77	8.53831e-05
3027.21	4.39587e-05
3008.65	3.31042e-05
2990.09	3.74451e-05
2971.53	5.44494e-05
2952.97	4.05221e-05
2934.4	1.98983e-05
2915.84	2.98484e-05
2897.28	2.71353e-05
2878.72	3.14763e-05
2860.16	2.40604e-05
2841.6	1.74215e-05
2823.04	3.83495e-05
2804.47	1.84513e-05
2785.91	1.65706e-05
2767.35	2.3154e-05
2748.79	2.38796e-05
2730.23	2.27922e-05
2711.67	1.86321e-05
2693.11	2.13453e-05
2674.55	1.74749e-05
2655.98	2.13453e-05
2637.42	2.78588e-05
2618.86	3.27424e-05
2600.3	1.93556e-05
2581.74	2.69544e-05
2563.18	5.53558e-05
2544.62	0.000359988
2526.05	0.000388932
2507.49	0.000414258
2488.93	0.000654852
2470.37	0.000269538
2451.81	4.59483e-05
2433.25	5.13745e-05
2414.69	9.5695e-05
2396.12	8.01377e-05
2377.56	6.07821e-05
2359	5.04702e-05
2340.44	8.77365e-05
2321.88	0.000176014
2303.32	0.000211652
2284.76	0.000227933
2266.19	0.000191752
2247.63	0.000725404
2229.07	0.00589729
2210.51	0.000627717
2191.95	0.000222504
2173.39	0.000255066
2154.83	0.000164438
2136.26	0.000107996
2117.7	6.83788e-05
2099.14	7.59776e-05
2080.58	0.000121745
2062.02	0.000198989
2043.46	0.000680179
2024.9	0.000329235
2006.33	0.000558976
1987.77	4.34161e-05
1969.21	3.14763e-05
1950.65	4.21499e-05
1932.09	7.30836e-05
1913.53	0.000116136
1894.97	7.81481e-05
1876.41	3.40085e-05
1857.84	3.90751e-05
1839.28	7.74246e-05
1820.72	0.000172577
1802.16	0.0003021
1783.6	0.00065847
1765.04	0.00144176
1746.48	0.0407021
1727.91	0.0121021
1709.35	0.0138387
1690.79	0.00260494
1672.23	0.00117765
1653.67	0.00136578
1635.11	0.000455863
1616.55	0.000352753
1597.98	0.000164076
1579.42	8.06803e-05
1560.86	5.15554e-05
1542.3	8.9907e-05
1523.74	0.000530032
1505.18	0.000540887
1486.62	0.000213461
1468.05	8.17656e-05
1449.49	9.44288e-05
1430.93	0.000124639
1412.37	0.000170587
1393.81	0.000530032
1375.25	0.000220696
1356.69	0.000564403
1338.12	0.00015304
1319.56	7.3988e-05
1301	0.000544504
1282.44	6.09629e-05
1263.88	2.29731e-05
1245.32	7.57967e-05
1226.76	0.000143271
1208.19	0.0004631
1189.63	0.00208033
1171.07	0.00314763
1152.51	0.000385314
1133.95	0.000743493
1115.39	0.00495662
1096.83	0.00390741
1078.27	0.00191752
1059.7	0.000334663
1041.14	0.000634954
1022.58	0.000714549
1004.02	0.00191752
985.458	0.00138749
966.897	0.00933436
948.335	0.00754347
929.774	0.00710931
911.213	0.0010474
892.651	0.00423302
874.09	0.000703694
855.528	0.00145804
836.967	0.000777863
818.406	0.00182707
799.844	0.0035637
781.283	0.00613246
762.721	0.00251449
744.16	0.00173843
725.599	0.0107815
707.037	0.0123915
688.476	0.00611437
669.915	0.00246022
651.353	0.00174748
632.792	0.00430538
614.23	0.00354561
595.669	0.00218887
577.108	0.00524605
558.546	0.0159914
539.985	1.17222
521.423	0.0284011
502.862	0.00647616
484.301	0.000767009
465.739	0.000101847
447.178	0.000182708
428.616	0.00105102
410.055	0.00387123
