Infrared Spectrum: Benzene
Formula: C6 H6
CAS: 71-43-2
State: gas
Melting point: 5.5 C
Boiling point: 80.1 C
Class: IUPAC A
Instrument: IFS66V (Bruker)
Instrument parameters: KBr Beam Splitter; MCT Detector; Multipass cell
Sampling: 1 L/min Flow
Resolution: 1.9290
Temperature: 23 C
Pressure: 101.3 Pa
Origin: NIST, Analytical Chemistry Division, 301-975-3108
cm-1	(micromol/mol)-1m-1 (base 10)
575.653	-1.87239e-07
584.331	-1.42391e-07
593.009	4.93627e-08
601.688	1.24489e-08
610.366	4.3673e-08
619.044	1.07595e-07
627.722	2.63569e-07
636.4	4.68646e-06
645.079	4.57251e-05
653.757	0.000199762
662.435	0.000282531
671.113	0.000445186
679.791	0.000172035
688.469	0.000338619
697.148	0.000133458
705.826	1.93003e-05
714.504	1.60867e-06
723.182	1.09697e-07
731.86	4.83477e-08
740.539	-1.12844e-07
749.217	-6.33759e-08
757.895	3.43138e-07
766.573	8.49024e-07
775.251	5.44183e-07
783.93	5.72293e-07
792.608	7.9845e-07
801.286	4.00722e-07
809.964	1.96447e-09
818.642	-1.39564e-07
827.32	-1.60166e-07
835.999	-1.87712e-07
844.677	-1.86111e-07
853.355	-1.09297e-07
862.033	-1.82659e-07
870.711	-1.8932e-07
879.39	-1.52956e-07
888.068	-1.73542e-07
896.746	-1.87697e-07
905.424	-1.95588e-07
914.102	-1.58642e-07
922.781	-1.7391e-07
931.459	-1.3262e-07
940.137	-1.79498e-07
948.815	-1.60599e-07
957.493	-1.44567e-07
966.171	-6.37542e-08
974.85	-6.3354e-08
983.528	1.06027e-07
992.206	4.96341e-07
1000.88	1.44639e-06
1009.56	6.42129e-06
1018.24	2.37728e-05
1026.92	3.09879e-05
1035.6	5.30624e-05
1044.28	1.94186e-05
1052.95	2.90443e-05
1061.63	9.50272e-06
1070.31	9.21495e-07
1078.99	-5.79445e-08
1087.67	-1.18457e-07
1096.34	-1.22594e-07
1105.02	-1.49972e-07
1113.7	-1.25613e-07
1122.38	-1.48488e-07
1131.06	-1.88931e-07
1139.74	-2.10958e-07
1148.41	-1.49132e-07
1157.09	-1.50263e-07
1165.77	-1.40488e-07
1174.45	-8.59709e-08
1183.13	-3.68155e-08
1191.8	3.0235e-07
1200.48	-7.82149e-09
1209.16	2.47668e-08
1217.84	8.47813e-08
1226.52	5.54776e-07
1235.2	1.14567e-06
1243.87	9.97243e-07
1252.55	1.06324e-06
1261.23	1.72316e-07
1269.91	-1.44959e-07
1278.59	-1.96021e-07
1287.26	-2.06407e-07
1295.94	-2.00587e-07
1304.62	-1.85027e-07
1313.3	-2.07982e-07
1321.98	-2.41753e-07
1330.66	-2.28395e-07
1339.33	-2.07982e-07
1348.01	-1.95712e-07
1356.69	-1.64637e-07
1365.37	3.07315e-07
1374.05	2.64321e-06
1382.72	3.67561e-06
1391.4	3.32524e-06
1400.08	3.11878e-06
1408.76	3.48551e-07
1417.44	-1.06409e-07
1426.12	-1.53552e-07
1434.79	-9.40434e-08
1443.47	1.724e-08
1452.15	1.45001e-06
1460.83	1.50344e-05
1469.51	5.45644e-05
1478.18	5.65089e-05
1486.86	5.54792e-05
1495.54	6.10618e-05
1504.22	2.69504e-05
1512.9	1.5653e-05
1521.58	1.23404e-05
1530.25	1.19925e-05
1538.93	2.68731e-06
1547.61	1.05012e-07
1556.29	-3.87909e-08
1564.97	-1.70545e-08
1573.64	3.37597e-09
1582.32	3.37961e-09
1591	8.02921e-08
1599.68	2.74185e-07
1608.36	6.68726e-07
1617.04	6.18843e-07
1625.71	5.31388e-07
1634.39	9.87075e-07
1643.07	4.13567e-07
1651.75	5.4658e-07
1660.43	8.75311e-07
1669.1	1.01691e-06
1677.78	1.14042e-06
1686.46	5.44892e-07
1695.14	2.58789e-07
1703.82	3.02055e-08
1712.5	-2.377e-08
1721.17	-3.50985e-08
1729.85	2.96151e-07
1738.53	1.02911e-06
1747.21	9.49063e-07
1755.89	2.42228e-06
1764.56	1.2902e-06
1773.24	1.77343e-06
1781.92	2.76416e-06
1790.6	8.45603e-06
1799.28	2.7505e-05
1807.96	3.07211e-05
1816.63	2.96404e-05
1825.31	2.15127e-05
1833.99	2.56822e-06
1842.67	2.43994e-07
1851.35	9.4509e-08
1860.02	2.55391e-07
1868.7	5.31443e-07
1877.38	5.54743e-07
1886.06	7.05101e-07
1894.74	1.75456e-07
1903.42	2.47086e-08
1912.09	9.26646e-08
1920.77	2.90304e-07
1929.45	1.65897e-06
1938.13	7.30554e-06
1946.81	2.01664e-05
1955.48	2.09463e-05
1964.16	2.11601e-05
1972.84	1.06966e-05
1981.52	1.18533e-06
1990.2	1.07372e-06
1998.88	6.90877e-07
2007.55	1.2278e-06
2016.23	6.56219e-07
2024.91	5.64715e-07
2033.59	1.12156e-07
2042.27	-4.47971e-08
2050.94	-7.89242e-08
2059.62	-1.15984e-07
2068.3	-1.79905e-07
2076.98	-1.53883e-07
2085.66	-1.31757e-07
2094.34	-1.065e-07
2103.01	-1.04735e-07
2111.69	-8.48067e-08
2120.37	-1.14798e-07
2129.05	-1.32936e-07
2137.73	1.41842e-08
2146.41	-1.48201e-07
2155.08	-1.14728e-07
2163.76	-1.53701e-07
2172.44	-8.65238e-08
2181.12	-1.14117e-07
2189.8	1.61705e-08
2198.47	5.24389e-07
2207.15	2.4516e-06
2215.83	2.28671e-06
2224.51	1.0803e-06
2233.19	1.35068e-07
2241.87	-1.27377e-07
2250.54	-1.29455e-07
2259.22	-1.00344e-07
2267.9	7.54937e-08
2276.58	8.52251e-08
2285.26	8.11324e-08
2293.93	3.63499e-08
2302.61	2.22781e-07
2311.29	2.34873e-06
2319.97	3.96833e-06
2328.65	4.59931e-06
2337.33	4.024e-06
2346	9.14928e-07
2354.68	2.77161e-07
2363.36	7.43969e-07
2372.04	7.01213e-07
2380.72	6.71607e-07
2389.39	7.97042e-07
2398.07	1.10273e-06
2406.75	1.01304e-06
2415.43	4.14855e-07
2424.11	4.84103e-07
2432.79	7.32637e-08
2441.46	-2.98672e-08
2450.14	-7.73308e-08
2458.82	-2.58182e-08
2467.5	5.34771e-09
2476.18	1.56663e-07
2484.85	1.52832e-07
2493.53	1.19578e-07
2502.21	-9.34904e-08
2510.89	-1.724e-07
2519.57	-1.57354e-07
2528.25	-1.73717e-07
2536.92	-1.60839e-07
2545.6	-5.58418e-08
2554.28	1.25369e-07
2562.96	4.68707e-08
2571.64	9.34431e-08
2580.31	1.37654e-07
2588.99	5.7724e-07
2597.67	9.77111e-07
2606.35	1.73786e-06
2615.03	1.46866e-06
2623.71	7.27718e-07
2632.38	4.41928e-07
2641.06	2.5207e-07
2649.74	9.91339e-07
2658.42	7.44649e-07
2667.1	1.01228e-06
2675.77	1.31765e-08
2684.45	-1.14841e-07
2693.13	-2.03995e-07
2701.81	-2.99217e-07
2710.49	-1.59114e-07
2719.17	-2.28387e-07
2727.84	-2.21417e-07
2736.52	-1.81775e-07
2745.2	-2.2109e-07
2753.88	-2.42597e-07
2762.56	-2.03344e-07
2771.23	-1.90113e-07
2779.91	-2.14352e-07
2788.59	-9.81105e-08
2797.27	2.37788e-07
2805.95	1.07185e-06
2814.63	2.09164e-06
2823.3	2.37561e-06
2831.98	2.19751e-06
2840.66	2.42557e-06
2849.34	1.62336e-06
2858.02	1.26284e-06
2866.69	1.74335e-06
2875.37	2.04621e-06
2884.05	3.6121e-06
2892.73	5.56739e-06
2901.41	6.4134e-06
2910.09	2.99462e-06
2918.76	1.77198e-06
2927.44	4.69002e-07
2936.12	-8.43956e-08
2944.8	-2.42277e-07
2953.48	-1.61315e-07
2962.15	-3.54801e-07
2970.83	-2.57734e-07
2979.51	-1.32878e-07
2988.19	4.88497e-08
2996.87	2.1743e-07
3005.55	8.71717e-07
3014.22	3.98422e-06
3022.9	2.65876e-05
3031.58	0.000121563
3040.26	0.000187582
3048.94	0.000210105
3057.61	0.000213671
3066.29	9.25102e-05
3074.97	0.000100379
3083.65	0.000137282
3092.33	0.000141742
3101.01	0.000138463
3109.68	0.000133651
3118.36	5.03874e-05
3127.04	5.10933e-06
3135.72	6.39707e-07
3144.4	-1.65925e-08
3153.07	-1.19814e-07
3161.75	-1.32751e-07
3170.43	-1.68755e-07
3179.11	-1.44959e-07
3187.79	-1.39499e-07
3196.47	-1.85296e-07
3205.14	-1.986e-07
3213.82	-2.31596e-07
3222.5	-1.57939e-07
3231.18	-1.04717e-07
3239.86	-5.94906e-08
3248.53	-8.20092e-08
3257.21	-6.50165e-08
3265.89	-1.10203e-07
3274.57	-1.3266e-07
3283.25	-1.92023e-07
3291.93	-2.16069e-07
3300.6	-2.16782e-07
3309.28	-1.80756e-07
3317.96	-2.37318e-07
3326.64	-2.26721e-07
3335.32	-2.30315e-07
3343.99	-2.05447e-07
3352.67	-2.08106e-07
3361.35	-1.84394e-07
3370.03	-2.06662e-07
3378.71	-1.5667e-07
3387.39	-1.02545e-07
3396.06	-4.40841e-08
3404.74	3.7394e-08
3413.42	-3.34068e-08
3422.1	-1.14801e-07
3430.78	1.07645e-08
3439.46	1.01585e-07
3448.13	1.02876e-07
3456.81	3.35189e-07
3465.49	3.75831e-08
3474.17	-3.60043e-08
3482.85	-1.4712e-07
3491.52	-2.38774e-07
3500.2	-2.01802e-07
3508.88	-1.89473e-07
3517.56	-1.6503e-07
3526.24	-1.9286e-07
3534.92	-2.18059e-07
3543.59	-2.30403e-07
3552.27	-2.38031e-07
3560.95	-2.11809e-07
3569.63	-1.64208e-07
3578.31	-2.43441e-07
3586.98	-1.94158e-07
3595.66	-1.18414e-07
3604.34	8.80772e-08
3613.02	1.90873e-07
3621.7	9.31874e-07
3630.38	4.53959e-07
3639.05	8.06537e-07
3647.73	2.27292e-06
3656.41	2.71162e-06
3665.09	6.76588e-07
3673.77	4.01282e-07
3682.44	4.33176e-07
3691.12	1.04987e-06
3699.8	1.74755e-06
3708.48	1.88595e-06
3717.16	6.2414e-07
3725.84	2.1627e-07
3734.51	8.73969e-08
3743.19	4.64069e-07
3751.87	1.01406e-07
3760.55	-3.18971e-08
3769.23	-9.69682e-08
3777.9	-1.13852e-07
3786.58	-1.45494e-07
3795.26	-1.32707e-07
3803.94	-1.50707e-07
3812.62	-1.73335e-07
3821.3	-7.92116e-08
3829.97	-2.04406e-07
3838.65	-7.40458e-08
3847.33	-1.97785e-07
3856.01	-1.62651e-07
3864.69	-1.72509e-07
3873.36	-1.82448e-07
3882.04	-1.70854e-07
3890.72	2.86667e-09
3899.4	-1.59686e-07
3908.08	-2.27482e-07
3916.76	-1.72244e-07
3925.43	8.32715e-09
3934.11	2.25288e-07
3942.79	5.05126e-07
3951.47	8.64889e-07
3960.15	5.2855e-07
3968.82	5.80132e-07
