Infrared Spectrum: Benzene
Formula: C6 H6
CAS: 71-43-2
State: gas
Melting point: 5.5 C
Boiling point: 80.1 C
Class: IUPAC A
Instrument: IFS66V (Bruker)
Instrument parameters: KBr Beam Splitter; MCT Detector; Multipass cell
Sampling: 1 L/min Flow
Resolution: 0.9640
Temperature: 23 C
Pressure: 101.3 Pa
Origin: NIST, Analytical Chemistry Division, 301-975-3108
cm-1	(micromol/mol)-1m-1 (base 10)
575.171	4.77008e-08
583.849	-1.39937e-07
592.527	9.54816e-08
601.206	1.04118e-07
609.884	2.12791e-07
618.562	1.29671e-07
627.24	3.3627e-07
635.918	4.02943e-06
644.597	4.07224e-05
653.275	0.000188895
661.953	0.000290733
670.631	0.00017725
679.309	0.00015265
687.987	0.000345034
696.666	0.000143828
705.344	2.15532e-05
714.022	1.71802e-06
722.7	6.33003e-09
731.378	5.61408e-08
740.057	-1.80915e-07
748.735	-9.10433e-08
757.413	3.26135e-07
766.091	8.38155e-07
774.769	3.54598e-07
783.448	6.68655e-07
792.126	8.33658e-07
800.804	3.79867e-07
809.482	1.0601e-08
818.16	-1.40316e-07
826.838	-1.64625e-07
835.517	-2.05486e-07
844.195	-1.82472e-07
852.873	-1.20031e-07
861.551	-1.9204e-07
870.229	-1.88082e-07
878.908	-1.62129e-07
887.586	-1.52255e-07
896.264	-1.92615e-07
904.942	-1.90243e-07
913.62	-1.68583e-07
922.299	-1.73334e-07
930.977	-1.50437e-07
939.655	-2.10215e-07
948.333	-1.49243e-07
957.011	-1.35834e-07
965.689	-6.17724e-08
974.368	-5.98006e-08
983.046	9.87049e-08
991.724	4.6194e-07
1000.4	1.31977e-06
1009.08	5.83491e-06
1017.76	2.25505e-05
1026.44	3.18027e-05
1035.11	4.55385e-05
1043.79	1.78716e-05
1052.47	2.98546e-05
1061.15	1.03833e-05
1069.83	1.07997e-06
1078.51	-7.34502e-08
1087.18	-9.54962e-08
1095.86	-6.24272e-08
1104.54	-1.65745e-07
1113.22	-1.43212e-07
1121.9	-1.50378e-07
1130.58	-1.72868e-07
1139.25	-2.21427e-07
1147.93	-1.41582e-07
1156.61	-1.57589e-07
1165.29	-1.58324e-07
1173.97	-1.06526e-07
1182.64	-3.87951e-08
1191.32	2.5665e-07
1200	-2.25335e-08
1208.68	1.93466e-08
1217.36	8.29234e-08
1226.04	5.00131e-07
1234.71	1.16146e-06
1243.39	1.01699e-06
1252.07	1.0826e-06
1260.75	2.04162e-07
1269.43	-1.40716e-07
1278.1	-2.04722e-07
1286.78	-2.30901e-07
1295.46	-2.10244e-07
1304.14	-1.88155e-07
1312.82	-2.12929e-07
1321.5	-2.61656e-07
1330.17	-2.38788e-07
1338.85	-2.08833e-07
1347.53	-2.17302e-07
1356.21	-1.47766e-07
1364.89	2.25466e-07
1373.56	2.45697e-06
1382.24	3.69295e-06
1390.92	3.32733e-06
1399.6	3.30707e-06
1408.28	3.84808e-07
1416.96	-9.13635e-08
1425.63	-1.4701e-07
1434.31	-1.25298e-07
1442.99	1.34604e-09
1451.67	1.24794e-06
1460.35	1.33773e-05
1469.02	5.28603e-05
1477.7	5.61043e-05
1486.38	5.83362e-05
1495.06	6.19789e-05
1503.74	2.81179e-05
1512.42	1.61293e-05
1521.09	1.26738e-05
1529.77	1.24799e-05
1538.45	2.92931e-06
1547.13	1.2607e-07
1555.81	-9.66167e-08
1564.48	-2.48836e-09
1573.16	6.27183e-09
1581.84	2.06417e-08
1590.52	6.03609e-08
1599.2	2.67222e-07
1607.88	6.668e-07
1616.55	7.41349e-07
1625.23	5.75269e-07
1633.91	8.97664e-07
1642.59	4.37602e-07
1651.27	3.38337e-07
1659.94	8.52255e-07
1668.62	9.9543e-07
1677.3	1.13236e-06
1685.98	5.78478e-07
1694.66	1.18153e-07
1703.34	-6.33003e-09
1712.01	-1.06592e-07
1720.69	-3.97482e-08
1729.37	2.55631e-07
1738.05	9.75174e-07
1746.73	9.73646e-07
1755.4	2.69561e-06
1764.08	1.22226e-06
1772.76	1.86844e-06
1781.44	2.64395e-06
1790.12	7.69677e-06
1798.8	2.64344e-05
1807.47	3.0891e-05
1816.15	2.88919e-05
1824.83	2.32099e-05
1833.51	2.87546e-06
1842.19	2.46799e-07
1850.86	7.94092e-08
1859.54	2.2767e-07
1868.22	5.17782e-07
1876.9	5.74782e-07
1885.58	6.67717e-07
1894.26	1.9455e-07
1902.93	1.84226e-08
1911.61	6.38315e-08
1920.29	2.26251e-07
1928.97	1.52629e-06
1937.65	6.69445e-06
1946.32	1.97036e-05
1955	2.10607e-05
1963.68	2.07302e-05
1972.36	1.17225e-05
1981.04	1.2983e-06
1989.72	1.58958e-06
1998.39	5.89362e-07
2007.07	7.53849e-07
2015.75	6.19237e-07
2024.43	5.84691e-07
2033.11	1.36656e-07
2041.78	-6.08702e-08
2050.46	-6.5665e-08
2059.14	-1.30362e-07
2067.82	-1.59284e-07
2076.5	-1.59597e-07
2085.18	-1.60615e-07
2093.85	-1.29235e-07
2102.53	-1.25284e-07
2111.21	-4.74025e-08
2119.89	-3.39566e-08
2128.57	-1.37136e-07
2137.24	4.21275e-09
2145.92	-1.61656e-07
2154.6	-6.06665e-08
2163.28	-1.71464e-07
2171.96	-1.28281e-07
2180.64	-1.36903e-07
2189.31	-6.62107e-09
2197.99	4.22708e-07
2206.67	2.34381e-06
2215.35	2.05309e-06
2224.03	1.19171e-06
2232.7	1.4252e-07
2241.38	-1.09721e-07
2250.06	-1.34131e-07
2258.74	-1.09357e-07
2267.42	5.15789e-08
2276.1	9.42229e-08
2284.77	5.6119e-08
2293.45	5.08367e-08
2302.13	1.70656e-07
2310.81	2.15176e-06
2319.49	4.06905e-06
2328.16	4.78331e-06
2336.84	4.10392e-06
2345.52	1.0037e-06
2354.2	2.93575e-07
2362.88	6.85484e-07
2371.56	7.07778e-07
2380.23	6.32749e-07
2388.91	7.54991e-07
2397.59	1.10585e-06
2406.27	9.39282e-07
2414.95	3.92397e-07
2423.62	4.72883e-07
2432.3	8.16356e-08
2440.98	-4.39537e-08
2449.66	-7.06199e-08
2458.34	-3.08716e-08
2467.02	4.0454e-09
2475.69	1.48115e-07
2484.37	1.67971e-07
2493.05	1.15439e-07
2501.73	-7.43888e-08
2510.41	-1.78085e-07
2519.09	-1.44114e-07
2527.76	-1.43743e-07
2536.44	-1.78703e-07
2545.12	-7.37267e-08
2553.8	8.57247e-08
2562.48	2.80122e-08
2571.15	8.78929e-08
2579.83	1.33484e-07
2588.51	5.43648e-07
2597.19	9.73603e-07
2605.87	1.60777e-06
2614.55	1.59223e-06
2623.22	7.49934e-07
2631.9	4.90483e-07
2640.58	2.15876e-07
2649.26	9.71871e-07
2657.94	7.46355e-07
2666.61	1.06872e-06
2675.29	2.87398e-08
2683.97	-1.12915e-07
2692.65	-1.86954e-07
2701.33	-3.21136e-07
2710.01	-1.83353e-07
2718.68	-2.38584e-07
2727.36	-2.48174e-07
2736.04	-1.55464e-07
2744.72	-2.0804e-07
2753.4	-2.51441e-07
2762.07	-1.91778e-07
2770.75	-1.8782e-07
2779.43	-2.03631e-07
2788.11	-1.2393e-07
2796.79	1.98028e-07
2805.47	1.0032e-06
2814.14	2.05742e-06
2822.82	2.25221e-06
2831.5	2.23179e-06
2840.18	2.42672e-06
2848.86	1.63219e-06
2857.53	1.28677e-06
2866.21	1.74064e-06
2874.89	1.9779e-06
2883.57	3.58073e-06
2892.25	5.32821e-06
2900.93	6.89574e-06
2909.6	3.09131e-06
2918.28	1.81999e-06
2926.96	5.09713e-07
2935.64	-7.98021e-08
2944.32	-2.54023e-07
2952.99	-1.75364e-07
2961.67	-3.78609e-07
2970.35	-2.98166e-07
2979.03	-1.53427e-07
2987.71	8.48734e-08
2996.39	2.37209e-07
3005.06	8.2831e-07
3013.74	3.52032e-06
3022.42	2.37649e-05
3031.1	0.000114226
3039.78	0.000188874
3048.45	0.000218746
3057.13	0.00021726
3065.81	9.50264e-05
3074.49	0.000103308
3083.17	0.000138583
3091.85	0.0001426
3100.52	0.000145678
3109.2	0.000133718
3117.88	5.55912e-05
3126.56	5.70752e-06
3135.24	7.19441e-07
3143.91	-2.01251e-08
3152.59	-1.17331e-07
3161.27	-1.4399e-07
3169.95	-1.93917e-07
3178.63	-1.48035e-07
3187.31	-1.58382e-07
3195.98	-1.75895e-07
3204.66	-2.09328e-07
3213.34	-2.21777e-07
3222.02	-1.8312e-07
3230.7	-3.953e-08
3239.37	-7.63606e-08
3248.05	-7.24098e-08
3256.73	-6.45227e-08
3265.41	-1.0259e-07
3274.09	-8.95518e-08
3282.77	-1.83855e-07
3291.44	-2.54729e-07
3300.12	-1.59124e-07
3308.8	-1.18262e-07
3317.48	-2.10259e-07
3326.16	-2.5553e-07
3334.83	-1.86911e-07
3343.51	-2.05748e-07
3352.19	-1.64203e-07
3360.87	-1.58054e-07
3369.55	-1.8913e-07
3378.23	-1.50924e-07
3386.9	-1.21668e-07
3395.58	-3.82785e-08
3404.26	1.97686e-08
3412.94	-4.04322e-08
3421.62	-1.37609e-07
3430.29	-7.10855e-09
3438.97	1.19907e-07
3447.65	1.06963e-07
3456.33	3.9837e-07
3465.01	1.12558e-08
3473.69	-1.01208e-08
3482.36	-1.66735e-07
3491.04	-2.20605e-07
3499.72	-1.96093e-07
3508.4	-2.09029e-07
3517.08	-1.45351e-07
3525.75	-1.81119e-07
3534.43	-2.40578e-07
3543.11	-2.54307e-07
3551.79	-2.56475e-07
3560.47	-2.22082e-07
3569.15	-1.4271e-07
3577.82	-2.22264e-07
3586.5	-1.71005e-07
3595.18	-1.49709e-07
3603.86	8.97191e-08
3612.54	2.29147e-07
3621.21	9.69419e-07
3629.89	5.11074e-07
3638.57	7.52488e-07
3647.25	2.24682e-06
3655.93	2.60832e-06
3664.61	7.24505e-07
3673.28	3.85259e-07
3681.96	4.19899e-07
3690.64	9.65745e-07
3699.32	1.68731e-06
3708	1.82306e-06
3716.67	6.9244e-07
3725.35	2.08556e-07
3734.03	4.03012e-08
3742.71	1.84466e-07
3751.39	6.54831e-09
3760.07	1.4901e-08
3768.74	-1.13402e-07
3777.42	-1.52139e-07
3786.1	-1.51382e-07
3794.78	-1.56919e-07
3803.46	-1.45802e-07
3812.14	-1.76666e-07
3820.81	-4.22512e-08
3829.49	-2.14319e-07
3838.17	4.86539e-08
3846.85	-1.57909e-07
3855.53	-1.86234e-07
3864.2	-1.91989e-07
3872.88	-1.90338e-07
3881.56	-1.6768e-07
3890.24	1.6664e-07
3898.92	-1.86627e-07
3907.6	-2.24331e-07
3916.27	-2.10892e-07
3924.95	9.01484e-09
3933.63	1.93859e-07
3942.31	4.5275e-07
3950.99	8.36947e-07
3959.66	5.0542e-07
3968.34	6.04947e-07
