Infrared Spectrum: Benzene
Formula: C6 H6
CAS: 71-43-2
State: gas
Melting point: 5.5 C
Boiling point: 80.1 C
Class: IUPAC A
Instrument: IFS66V (Bruker)
Instrument parameters: KBr Beam Splitter; MCT Detector; Multipass cell
Sampling: 1 L/min Flow
Resolution: 0.4820
Temperature: 23 C
Pressure: 101.3 Pa
Origin: NIST, Analytical Chemistry Division, 301-975-3108
cm-1	(micromol/mol)-1m-1 (base 10)
575.171	-2.71027e-08
583.849	6.95722e-08
592.527	1.84786e-07
601.206	2.88686e-07
609.884	4.11321e-07
618.562	2.66436e-07
627.24	7.17484e-07
635.918	4.41717e-06
644.597	4.13976e-05
653.275	0.00018863
661.953	0.000289748
670.631	0.000211902
679.309	0.000157746
687.987	0.000344041
696.666	0.00014427
705.344	2.24395e-05
714.022	2.19263e-06
722.7	2.51382e-07
731.378	3.14108e-07
740.057	-4.91778e-08
748.735	4.77517e-08
757.413	4.1015e-07
766.091	9.12063e-07
774.769	3.85084e-07
783.448	7.12071e-07
792.126	9.32479e-07
800.804	4.53587e-07
809.482	6.71857e-08
818.16	-1.55071e-07
826.838	-4.32407e-08
835.517	-1.33207e-07
844.195	-1.55617e-07
852.873	-3.49316e-08
861.551	-1.4375e-07
870.229	-1.54977e-07
878.908	-1.47839e-07
887.586	-1.03012e-07
896.264	-1.87267e-07
904.942	-1.68466e-07
913.62	-1.48268e-07
922.299	-1.7986e-07
930.977	-1.586e-07
939.655	-2.28179e-07
948.333	-1.00866e-07
957.011	-1.67251e-07
965.689	-3.5048e-08
974.368	-4.15454e-09
983.046	1.19943e-07
991.724	5.21107e-07
1000.4	1.38335e-06
1009.08	5.89472e-06
1017.76	2.25002e-05
1026.44	3.17216e-05
1035.11	4.46891e-05
1043.79	1.80645e-05
1052.47	2.97156e-05
1061.15	1.03988e-05
1069.83	1.19437e-06
1078.51	-2.70154e-08
1087.18	-4.09415e-08
1095.86	-6.30821e-09
1104.54	-1.81126e-07
1113.22	-1.21551e-07
1121.9	-9.57581e-08
1130.58	-1.56665e-07
1139.25	-1.699e-07
1147.93	-1.29256e-07
1156.61	-1.39966e-07
1165.29	-1.52365e-07
1173.97	-1.1795e-07
1182.64	-3.02605e-08
1191.32	2.88198e-07
1200	-1.68801e-09
1208.68	4.79482e-08
1217.36	8.12864e-08
1226.04	5.06337e-07
1234.71	1.15904e-06
1243.39	1.01246e-06
1252.07	1.07253e-06
1260.75	2.12063e-07
1269.43	-1.40432e-07
1278.1	-1.99432e-07
1286.78	-2.758e-07
1295.46	-2.09706e-07
1304.14	-1.77503e-07
1312.82	-2.21959e-07
1321.5	-2.71762e-07
1330.17	-2.26404e-07
1338.85	-2.18881e-07
1347.53	-1.6242e-07
1356.21	-1.01084e-07
1364.89	2.57822e-07
1373.56	2.43131e-06
1382.24	3.6823e-06
1390.92	3.3292e-06
1399.6	3.25138e-06
1408.28	3.6819e-07
1416.96	-8.15483e-08
1425.63	-9.8181e-08
1434.31	-9.8734e-08
1442.99	5.8993e-08
1451.67	1.3644e-06
1460.35	1.35128e-05
1469.02	5.26363e-05
1477.7	5.61796e-05
1486.38	5.79738e-05
1495.06	6.17966e-05
1503.74	2.82085e-05
1512.42	1.62785e-05
1521.09	1.28227e-05
1529.77	1.24653e-05
1538.45	2.88604e-06
1547.13	1.59451e-07
1555.81	-6.50247e-08
1564.48	-1.09138e-08
1573.16	2.7532e-08
1581.84	3.13009e-08
1590.52	7.64115e-08
1599.2	2.93233e-07
1607.88	6.66312e-07
1616.55	9.13075e-07
1625.23	6.03696e-07
1633.91	8.92476e-07
1642.59	4.32516e-07
1651.27	3.33898e-07
1659.94	8.72577e-07
1668.62	9.85339e-07
1677.3	1.13967e-06
1685.98	5.81395e-07
1694.66	1.28129e-07
1703.34	-2.15512e-08
1712.01	-9.41429e-08
1720.69	-2.62005e-08
1729.37	2.5187e-07
1738.05	9.86867e-07
1746.73	9.92891e-07
1755.4	2.41211e-06
1764.08	1.21685e-06
1772.76	2.09694e-06
1781.44	2.70595e-06
1790.12	7.74468e-06
1798.8	2.63552e-05
1807.47	3.07833e-05
1816.15	2.87677e-05
1824.83	2.31145e-05
1833.51	2.97566e-06
1842.19	3.14661e-07
1850.86	1.02947e-07
1859.54	2.37522e-07
1868.22	5.46726e-07
1876.9	6.0048e-07
1885.58	6.76419e-07
1894.26	2.28376e-07
1902.93	2.78594e-08
1911.61	8.19121e-08
1920.29	2.57247e-07
1928.97	1.57604e-06
1937.65	6.70372e-06
1946.32	1.96278e-05
1955	2.10568e-05
1963.68	2.06831e-05
1972.36	1.17013e-05
1981.04	1.37375e-06
1989.72	1.8373e-06
1998.39	5.60805e-07
2007.07	7.00713e-07
2015.75	6.20467e-07
2024.43	5.66676e-07
2033.11	1.63104e-07
2041.78	-4.62529e-08
2050.46	-5.74723e-08
2059.14	-1.3686e-07
2067.82	-1.50939e-07
2076.5	-1.40265e-07
2085.18	-1.63533e-07
2093.85	-1.3296e-07
2102.53	-1.35746e-07
2111.21	-7.26353e-08
2119.89	-1.89173e-10
2128.57	-1.44005e-07
2137.24	-3.58265e-08
2145.92	-1.70976e-07
2154.6	3.83367e-08
2163.28	-1.2986e-07
2171.96	-1.55413e-07
2180.64	-1.59808e-07
2189.31	-1.95358e-08
2197.99	4.31992e-07
2206.67	2.30442e-06
2215.35	2.04379e-06
2224.03	1.19322e-06
2232.7	1.57749e-07
2241.38	-1.2815e-07
2250.06	-1.29518e-07
2258.74	-9.69586e-08
2267.42	2.47817e-08
2276.1	9.30442e-08
2284.77	7.19077e-08
2293.45	4.578e-08
2302.13	1.79416e-07
2310.81	2.12635e-06
2319.49	4.04161e-06
2328.16	4.63201e-06
2336.84	4.00263e-06
2345.52	9.6338e-07
2354.2	3.79686e-07
2362.88	9.13737e-07
2371.56	7.84931e-07
2380.23	5.85193e-07
2388.91	7.47344e-07
2397.59	1.07987e-06
2406.27	9.39486e-07
2414.95	4.06141e-07
2423.62	4.64021e-07
2432.3	9.3277e-08
2440.98	-7.86307e-08
2449.66	-8.90279e-08
2458.34	-1.37442e-08
2467.02	3.73981e-09
2475.69	1.52299e-07
2484.37	1.82945e-07
2493.05	1.26659e-07
2501.73	-3.96173e-08
2510.41	-1.5048e-07
2519.09	-1.30224e-07
2527.76	-1.14646e-07
2536.44	-1.78078e-07
2545.12	-5.32596e-08
2553.8	6.79496e-08
2562.48	1.50757e-08
2571.15	1.12929e-07
2579.83	1.70998e-07
2588.51	5.31876e-07
2597.19	9.83294e-07
2605.87	1.56539e-06
2614.55	1.6058e-06
2623.22	7.42964e-07
2631.9	5.02954e-07
2640.58	2.31606e-07
2649.26	1.02914e-06
2657.94	7.51695e-07
2666.61	1.03006e-06
2675.29	3.80893e-08
2683.97	-9.22293e-08
2692.65	-2.0235e-07
2701.33	-3.34226e-07
2710.01	-1.75073e-07
2718.68	-2.51608e-07
2727.36	-2.59604e-07
2736.04	-1.35317e-07
2744.72	-1.82058e-07
2753.4	-2.21486e-07
2762.07	-2.11125e-07
2770.75	-1.82974e-07
2779.43	-2.17186e-07
2788.11	-1.41553e-07
2796.79	1.91553e-07
2805.47	1.00918e-06
2814.14	2.04334e-06
2822.82	2.24776e-06
2831.5	2.2111e-06
2840.18	2.42118e-06
2848.86	1.6494e-06
2857.53	1.31564e-06
2866.21	1.7407e-06
2874.89	2.01502e-06
2883.57	3.59559e-06
2892.25	5.28313e-06
2900.93	6.83659e-06
2909.6	3.10674e-06
2918.28	1.79918e-06
2926.96	4.85637e-07
2935.64	-7.7452e-08
2944.32	-2.80428e-07
2952.99	-1.15323e-07
2961.67	-3.75255e-07
2970.35	-2.94245e-07
2979.03	-1.57021e-07
2987.71	2.01593e-07
2996.39	3.76884e-07
3005.06	9.95911e-07
3013.74	3.79165e-06
3022.42	2.41615e-05
3031.1	0.000114008
3039.78	0.000188307
3048.45	0.000218159
3057.13	0.000216378
3065.81	9.55584e-05
3074.49	0.000103328
3083.17	0.00013843
3091.85	0.000142571
3100.52	0.000156187
3109.2	0.00013321
3117.88	5.56494e-05
3126.56	6.03481e-06
3135.24	9.09517e-07
3143.91	5.52896e-08
3152.59	-1.6007e-10
3161.27	-1.26281e-07
3169.95	-1.09211e-07
3178.63	-1.19041e-07
3187.31	-1.68532e-07
3195.98	-8.6394e-08
3204.66	-1.73348e-07
3213.34	-2.43583e-07
3222.02	-2.07822e-07
3230.7	-5.23865e-10
3239.37	-1.00764e-07
3248.05	-1.05122e-07
3256.73	-5.9917e-08
3265.41	-9.54598e-08
3274.09	-2.88417e-08
3282.77	-1.84386e-07
3291.44	-2.47395e-07
3300.12	-1.99469e-07
3308.8	-3.81694e-08
3317.48	-2.35077e-07
3326.16	-2.8133e-07
3334.83	-1.9276e-07
3343.51	-1.56476e-07
3352.19	-1.1087e-07
3360.87	-1.41334e-07
3369.55	-1.9992e-07
3378.23	-8.48297e-08
3386.9	-8.17084e-08
3395.58	-3.84895e-08
3404.26	1.32567e-08
3412.94	7.21042e-09
3421.62	-9.44921e-08
3430.29	3.57174e-08
3438.97	5.41254e-08
3447.65	9.84648e-08
3456.33	3.69827e-07
3465.01	2.07436e-08
3473.69	2.078e-08
3482.36	-1.75546e-07
3491.04	-2.21478e-07
3499.72	-1.50306e-07
3508.4	-2.63409e-07
3517.08	-1.70947e-07
3525.75	-1.64908e-07
3534.43	-2.699e-07
3543.11	-2.1867e-07
3551.79	-2.72432e-07
3560.47	-2.69245e-07
3569.15	-1.47635e-07
3577.82	-2.23879e-07
3586.5	-2.04395e-07
3595.18	-1.52648e-07
3603.86	1.47817e-07
3612.54	2.80835e-07
3621.21	1.13866e-06
3629.89	5.33585e-07
3638.57	7.6859e-07
3647.25	2.2803e-06
3655.93	2.53925e-06
3664.61	6.44121e-07
3673.28	4.08491e-07
3681.96	4.47126e-07
3690.64	9.7588e-07
3699.32	1.66522e-06
3708	1.84151e-06
3716.67	6.68233e-07
3725.35	2.1178e-07
3734.03	-3.50407e-08
3742.71	2.11969e-07
3751.39	-6.92375e-08
3760.07	7.09619e-08
3768.74	-1.01062e-07
3777.42	-1.77838e-07
3786.1	-1.41422e-07
3794.78	-1.7986e-07
3803.46	-1.65367e-07
3812.13	-2.02918e-07
3820.81	1.16705e-08
3829.49	-2.19303e-07
3838.17	1.16414e-09
3846.85	-1.61801e-07
3855.53	-1.78645e-07
3864.2	-1.87522e-07
3872.88	-2.03296e-07
3881.56	-1.77336e-07
3890.24	3.00466e-07
3898.92	-2.44681e-07
3907.6	-2.09742e-07
3916.27	-2.96704e-07
3924.95	-5.02037e-10
3933.63	1.73952e-07
3942.31	4.49505e-07
3950.99	7.84742e-07
3959.66	4.61314e-07
3968.34	5.59488e-07
