Infrared Spectrum: Benzene
Formula: C6 H6
CAS: 71-43-2
State: gas
Melting point: 5.5 C
Boiling point: 80.1 C
Class: IUPAC A
Instrument: IFS66V (Bruker)
Instrument parameters: KBr Beam Splitter; MCT Detector; Multipass cell
Sampling: 1 L/min Flow
Resolution: 0.4820
Temperature: 23 C
Pressure: 101.3 Pa
Origin: NIST, Analytical Chemistry Division, 301-975-3108
cm-1	(micromol/mol)-1m-1 (base 10)
575.171	-2.95157e-06
583.849	-2.52432e-06
592.527	-2.50843e-06
601.206	-3.26914e-06
609.884	-3.31092e-06
618.562	-4.4021e-06
627.24	-4.83466e-06
635.918	-2.75357e-06
644.597	3.19609e-05
653.275	0.00017673
661.953	0.00026855
670.631	0.000123711
679.309	0.000195005
687.987	0.000363821
696.666	0.000154728
705.344	2.95275e-05
714.022	7.87921e-06
722.7	4.99211e-06
731.378	4.5684e-06
740.057	3.538e-06
748.735	3.26463e-06
757.413	3.31696e-06
766.091	3.53466e-06
774.769	2.68937e-06
783.448	2.85214e-06
792.126	3.09506e-06
800.804	2.32953e-06
809.482	1.83201e-06
818.16	1.46053e-06
826.838	1.65195e-06
835.517	1.3735e-06
844.195	1.35353e-06
852.873	1.50294e-06
861.551	1.169e-06
870.229	1.0891e-06
878.908	1.02928e-06
887.586	1.07696e-06
896.264	8.62016e-07
904.942	9.57965e-07
913.62	8.44613e-07
922.299	7.5735e-07
930.977	7.7129e-07
939.655	6.37567e-07
948.333	8.40946e-07
957.011	6.22623e-07
965.689	8.37032e-07
974.368	8.87626e-07
983.046	8.65333e-07
991.724	1.28253e-06
1000.4	2.15777e-06
1009.08	6.604e-06
1017.76	2.3303e-05
1026.44	3.25539e-05
1035.11	4.53238e-05
1043.79	1.83608e-05
1052.47	3.05124e-05
1061.15	1.08832e-05
1069.83	1.7663e-06
1078.51	5.44295e-07
1087.18	5.04236e-07
1095.86	5.84092e-07
1104.54	3.16601e-07
1113.22	4.15795e-07
1121.9	4.65341e-07
1130.58	3.88337e-07
1139.25	3.89632e-07
1147.93	3.37205e-07
1156.61	4.06846e-07
1165.29	3.158e-07
1173.97	3.49544e-07
1182.64	4.58371e-07
1191.32	7.67827e-07
1200	4.63522e-07
1208.68	4.52391e-07
1217.36	5.20067e-07
1226.04	8.78138e-07
1234.71	1.62242e-06
1243.39	1.40277e-06
1252.07	1.48151e-06
1260.75	5.8917e-07
1269.43	2.99241e-07
1278.1	1.64645e-07
1286.78	2.69921e-08
1295.46	1.37332e-07
1304.14	1.73201e-07
1312.82	1.22359e-07
1321.5	3.47623e-08
1330.17	1.57456e-07
1338.85	9.99072e-08
1347.53	2.29149e-07
1356.21	2.67287e-07
1364.89	5.57623e-07
1373.56	2.71974e-06
1382.24	3.99003e-06
1390.92	3.65298e-06
1399.6	3.52514e-06
1408.28	6.23365e-07
1416.96	1.33069e-07
1425.63	2.14511e-07
1434.31	1.53615e-07
1442.99	2.78201e-07
1451.67	1.51284e-06
1460.35	1.36919e-05
1469.02	5.31328e-05
1477.7	5.63822e-05
1486.38	5.77837e-05
1495.06	6.25777e-05
1503.74	2.83662e-05
1512.42	1.65458e-05
1521.09	1.31689e-05
1529.77	1.27367e-05
1538.45	3.06284e-06
1547.13	3.21985e-07
1555.81	1.50879e-07
1564.48	1.60818e-07
1573.16	2.18541e-07
1581.84	2.32132e-07
1590.52	3.23061e-07
1599.2	5.35986e-07
1607.88	8.69641e-07
1616.55	1.17285e-06
1625.23	7.96449e-07
1633.91	1.07616e-06
1642.59	5.81254e-07
1651.27	5.26572e-07
1659.94	1.10986e-06
1668.62	1.09339e-06
1677.3	1.32347e-06
1685.98	7.99985e-07
1694.66	2.52664e-07
1703.34	1.55201e-07
1712.01	6.71965e-08
1720.69	9.72298e-08
1729.37	4.45828e-07
1738.05	1.10867e-06
1746.73	1.14906e-06
1755.4	2.41146e-06
1764.08	1.36238e-06
1772.76	2.51953e-06
1781.44	2.84523e-06
1790.12	7.81077e-06
1798.8	2.6641e-05
1807.47	3.10152e-05
1816.15	2.88502e-05
1824.83	2.3366e-05
1833.51	3.02748e-06
1842.19	4.55243e-07
1850.86	1.95202e-07
1859.54	3.58377e-07
1868.22	6.91915e-07
1876.9	7.37154e-07
1885.58	8.22946e-07
1894.26	3.64037e-07
1902.93	1.54561e-07
1911.61	2.04776e-07
1920.29	3.53022e-07
1928.97	1.68939e-06
1937.65	6.75348e-06
1946.32	1.99281e-05
1955	2.12983e-05
1963.68	2.09277e-05
1972.36	1.18085e-05
1981.04	1.42002e-06
1989.72	2.12076e-06
1998.39	5.55455e-07
2007.07	8.55279e-07
2015.75	6.99437e-07
2024.43	6.31164e-07
2033.11	2.68306e-07
2041.78	5.52792e-08
2050.46	5.58176e-08
2059.14	-2.40091e-08
2067.82	-5.44789e-08
2076.5	-1.65008e-08
2085.18	-5.00991e-08
2093.85	-6.02993e-08
2102.53	-4.521e-08
2111.21	-7.90847e-08
2119.89	1.00693e-08
2128.57	-6.18854e-08
2137.24	1.45073e-08
2145.92	-1.16728e-07
2154.6	2.43831e-07
2163.28	-3.76434e-08
2171.96	-1.4957e-07
2180.64	-1.36547e-07
2189.31	1.00402e-08
2197.99	4.78757e-07
2206.67	2.34322e-06
2215.35	2.03531e-06
2224.03	1.26279e-06
2232.7	2.25191e-07
2241.38	-1.02686e-07
2250.06	-7.00049e-08
2258.74	-3.11391e-08
2267.42	7.65237e-08
2276.1	1.75776e-07
2284.77	1.7678e-07
2293.45	7.68293e-08
2302.13	2.34577e-07
2310.81	2.13219e-06
2319.49	4.0529e-06
2328.16	4.57373e-06
2336.84	3.95311e-06
2345.52	9.84768e-07
2354.2	3.96646e-07
2362.88	1.19117e-06
2371.56	8.99717e-07
2380.23	5.68187e-07
2388.91	7.58034e-07
2397.59	1.02734e-06
2406.27	9.70886e-07
2414.95	4.62678e-07
2423.62	5.02984e-07
2432.3	1.24426e-07
2440.98	-9.67205e-08
2449.66	-1.12086e-07
2458.34	3.2958e-08
2467.02	6.98157e-08
2475.69	1.81116e-07
2484.37	2.35231e-07
2493.05	1.48784e-07
2501.73	7.12999e-09
2510.41	-8.23732e-08
2519.09	-9.62403e-08
2527.76	-8.06271e-08
2536.44	-1.87693e-07
2545.12	-5.89024e-08
2553.8	5.15542e-08
2562.48	1.71265e-08
2571.15	1.35179e-07
2579.83	1.82048e-07
2588.51	5.19005e-07
2597.19	9.55535e-07
2605.87	1.56628e-06
2614.55	1.62663e-06
2623.22	7.48765e-07
2631.9	5.06622e-07
2640.58	2.06319e-07
2649.26	1.07819e-06
2657.94	7.85012e-07
2666.61	9.66841e-07
2675.29	4.78728e-08
2683.97	-8.95178e-08
2692.65	-2.63941e-07
2701.33	-3.76187e-07
2710.01	-1.31992e-07
2718.68	-2.81722e-07
2727.36	-3.40377e-07
2736.04	-1.44273e-07
2744.72	-1.77915e-07
2753.4	-2.48269e-07
2762.07	-2.48662e-07
2770.75	-2.07279e-07
2779.43	-2.84938e-07
2788.11	-2.77706e-07
2796.79	1.18984e-07
2805.47	9.59842e-07
2814.14	2.01261e-06
2822.82	2.24464e-06
2831.5	2.15166e-06
2840.18	2.36924e-06
2848.86	1.63932e-06
2857.53	1.23878e-06
2866.21	1.69263e-06
2874.89	1.97048e-06
2883.57	3.52646e-06
2892.25	5.16088e-06
2900.93	6.72374e-06
2909.6	3.04551e-06
2918.28	1.6908e-06
2926.96	3.66089e-07
2935.64	-2.23896e-07
2944.32	-4.27028e-07
2952.99	-1.94707e-07
2961.67	-4.3055e-07
2970.35	-4.16202e-07
2979.03	-3.55787e-07
2987.71	1.55303e-07
2996.39	2.20942e-07
3005.06	7.70184e-07
3013.74	3.4244e-06
3022.42	2.36089e-05
3031.1	0.000114082
3039.78	0.000188817
3048.45	0.000218146
3057.13	0.000218151
3065.81	9.48466e-05
3074.49	0.000103469
3083.17	0.0001392
3091.85	0.000143089
3100.52	0.000164859
3109.2	0.000133784
3117.88	5.52022e-05
3126.56	5.5836e-06
3135.24	6.93035e-07
3143.91	-1.49773e-07
3152.59	-1.45466e-07
3161.27	-3.06997e-07
3169.95	-1.26899e-07
3178.63	-2.06799e-07
3187.31	-3.47929e-07
3195.98	-5.1365e-08
3204.66	-3.0886e-07
3213.34	-4.42671e-07
3222.02	-3.5647e-07
3230.7	-9.88158e-08
3239.37	-2.40455e-07
3248.05	-3.03359e-07
3256.73	-2.18847e-07
3265.41	-2.91879e-07
3274.09	-1.24193e-07
3282.77	-2.97859e-07
3291.44	-3.09922e-07
3300.12	-2.77706e-07
3308.8	-6.1347e-08
3317.48	-3.80727e-07
3326.16	-4.69706e-07
3334.83	-2.95444e-07
3343.51	-2.85374e-07
3352.19	-1.60468e-07
3360.87	-2.66633e-07
3369.55	-3.57765e-07
3378.23	-1.25648e-07
3386.9	-3.03534e-08
3395.58	-1.21574e-07
3404.26	-1.46121e-07
3412.94	-7.21002e-08
3421.62	-2.77619e-07
3430.29	-3.67267e-08
3438.97	-2.02521e-07
3447.65	-1.48275e-08
3456.33	3.43898e-07
3465.01	-1.08143e-07
3473.69	-9.27044e-08
3482.36	-3.3751e-07
3491.04	-3.27878e-07
3499.72	-2.75072e-07
3508.4	-4.83981e-07
3517.08	-3.8515e-07
3525.75	-3.24924e-07
3534.43	-4.61558e-07
3543.11	-3.64634e-07
3551.79	-4.71802e-07
3560.47	-4.88492e-07
3569.15	-3.64575e-07
3577.82	-4.16842e-07
3586.5	-4.91475e-07
3595.18	-3.56645e-07
3603.86	6.35879e-08
3612.54	1.61356e-07
3621.21	1.11202e-06
3629.89	3.08292e-07
3638.57	6.04128e-07
3647.25	2.12868e-06
3655.93	2.29108e-06
3664.61	3.29726e-07
3673.28	2.39466e-07
3681.96	1.92408e-07
3690.64	7.98603e-07
3699.32	1.41404e-06
3708	1.58252e-06
3716.67	3.72375e-07
3725.35	-5.22672e-08
3734.03	-4.46774e-07
3742.71	2.625e-08
3751.39	-3.86576e-07
3760.07	-1.17383e-07
3768.74	-3.32287e-07
3777.42	-4.62576e-07
3786.1	-3.54244e-07
3794.78	-4.39004e-07
3803.46	-4.47589e-07
3812.13	-4.48898e-07
3820.81	-1.87228e-07
3829.49	-5.66572e-07
3838.17	-4.44227e-07
3846.85	-5.00001e-07
3855.53	-3.51188e-07
3864.2	-4.41041e-07
3872.88	-5.8236e-07
3881.56	-4.74261e-07
3890.24	1.15171e-07
3898.92	-6.07693e-07
3907.6	-4.81609e-07
3916.27	-6.69026e-07
3924.95	-3.74063e-07
3933.63	-2.37152e-07
3942.31	1.45743e-07
3950.99	4.02233e-07
3959.66	3.27689e-08
3968.34	2.04703e-07
