Infrared Spectrum: Benzene
Formula: C6 H6
CAS: 71-43-2
State: gas
Melting point: 5.5 C
Boiling point: 80.1 C
Class: IUPAC A
Instrument: IFS66V (Bruker)
Instrument parameters: KBr Beam Splitter; MCT Detector; Multipass cell
Sampling: 1 L/min Flow
Resolution: 0.1250
Temperature: 23 C
Pressure: 101.3 Pa
Origin: NIST, Analytical Chemistry Division, 301-975-3108
cm-1	(micromol/mol)-1m-1 (base 10)
575.05	8.84832e-07
583.608	4.20509e-07
592.165	1.24848e-07
600.723	1.02497e-07
609.281	4.62402e-07
617.838	-4.66738e-07
626.396	-1.15258e-07
634.954	3.16008e-06
643.511	3.09209e-05
652.069	0.000162968
660.627	0.000316203
669.184	9.45012e-05
677.742	0.000102536
686.3	0.000355343
694.857	0.0001959
703.415	3.55264e-05
711.973	3.19693e-06
720.53	2.25453e-07
729.088	1.97908e-07
737.645	-1.24979e-07
746.203	1.63553e-08
754.761	3.50388e-08
763.318	7.01911e-07
771.876	5.93928e-07
780.434	1.49148e-06
788.991	5.98803e-07
797.549	9.94692e-07
806.107	-9.78118e-08
814.664	-1.95216e-07
823.222	-2.87091e-08
831.78	-6.66872e-08
840.337	1.16015e-07
848.895	-1.80418e-07
857.453	-1.26739e-07
866.01	-1.67497e-07
874.568	-2.21321e-08
883.126	-1.22854e-07
891.683	-2.57189e-07
900.241	-1.16728e-07
908.799	-2.47105e-07
917.356	-1.11271e-07
925.914	-9.99654e-08
934.472	-2.77444e-07
943.029	-1.29504e-07
951.587	-1.46165e-07
960.145	-1.68792e-07
968.702	1.15244e-08
977.26	-7.3337e-09
985.818	5.92226e-08
994.375	7.57962e-07
1002.93	1.93672e-06
1011.49	8.70301e-06
1020.05	2.79376e-05
1028.61	2.80426e-05
1037.16	8.28736e-05
1045.72	2.37803e-05
1054.28	2.72657e-05
1062.84	7.37063e-06
1071.39	4.30884e-07
1079.95	-4.77418e-08
1088.51	-2.31521e-07
1097.07	-2.73501e-07
1105.62	-1.39457e-07
1114.18	5.13214e-08
1122.74	-1.73884e-08
1131.3	-1.96424e-07
1139.86	-1.62811e-07
1148.41	-1.76213e-07
1156.97	-1.00693e-07
1165.53	-1.27423e-07
1174.09	-1.07095e-07
1182.64	3.23614e-08
1191.2	3.0902e-07
1199.76	1.23247e-08
1208.32	2.47367e-08
1216.87	1.02963e-07
1225.43	2.88983e-07
1233.99	1.05195e-06
1242.55	1.04508e-06
1251.1	1.1137e-06
1259.66	3.71836e-07
1268.22	-1.81087e-07
1276.78	-2.11193e-07
1285.34	-2.65687e-07
1293.89	-2.6122e-07
1302.45	-2.20579e-07
1311.01	-2.56389e-07
1319.57	-1.5117e-07
1328.12	-2.4661e-07
1336.68	-1.07634e-07
1345.24	-2.12445e-07
1353.8	-3.97519e-07
1362.35	-2.5828e-08
1370.91	1.52305e-06
1379.47	3.88308e-06
1388.03	3.56878e-06
1396.59	3.70934e-06
1405.14	1.20575e-06
1413.7	-1.03996e-07
1422.26	-1.55899e-07
1430.82	-9.11475e-08
1439.37	-1.05669e-07
1447.93	5.72538e-07
1456.49	5.48119e-06
1465.05	3.32105e-05
1473.6	6.18938e-05
1482.16	9.18925e-05
1490.72	5.28082e-05
1499.28	4.78183e-05
1507.83	2.01521e-05
1516.39	1.35338e-05
1524.95	1.23311e-05
1533.51	8.23739e-06
1542.07	1.459e-06
1550.62	-3.17939e-08
1559.18	9.77827e-09
1567.74	-1.16292e-07
1576.3	7.74986e-07
1584.85	-1.39108e-08
1593.41	9.98053e-08
1601.97	3.81876e-07
1610.53	7.07091e-07
1619.08	7.06538e-07
1627.64	5.28609e-07
1636.2	9.71599e-07
1644.76	4.01346e-07
1653.31	1.63719e-06
1661.87	8.34835e-07
1670.43	1.0091e-06
1678.99	1.18527e-06
1687.55	3.78806e-07
1696.1	5.29191e-07
1704.66	6.61488e-08
1713.22	9.50908e-08
1721.78	-7.48212e-08
1730.33	3.14709e-07
1738.89	1.03461e-06
1747.45	8.88571e-07
1756.01	2.34703e-06
1764.56	1.36529e-06
1773.12	1.72207e-06
1781.68	2.71219e-06
1790.24	7.77901e-06
1798.79	2.66131e-05
1807.35	3.10305e-05
1815.91	2.85249e-05
1824.47	2.45213e-05
1833.03	3.20991e-06
1841.58	3.21039e-07
1850.14	8.95323e-08
1858.7	2.5569e-07
1867.26	4.05114e-07
1875.81	5.11642e-07
1884.37	4.64846e-07
1892.93	2.23736e-07
1901.49	1.36357e-07
1910.04	1.07677e-08
1918.6	1.61254e-07
1927.16	1.09522e-06
1935.72	4.8557e-06
1944.28	1.67687e-05
1952.83	2.15278e-05
1961.39	1.85009e-05
1969.95	1.73649e-05
1978.51	2.56837e-06
1987.06	8.82227e-07
1995.62	5.01238e-07
2004.18	8.06969e-07
2012.74	4.37636e-07
2021.29	6.91885e-07
2029.85	1.36648e-07
2038.41	-3.58246e-08
2046.97	-9.72734e-08
2055.52	-1.16044e-07
2064.08	-6.71529e-08
2072.64	-2.89157e-07
2081.2	-8.48323e-08
2089.76	-1.29591e-07
2098.31	-1.69665e-07
2106.87	-1.80432e-07
2115.43	-6.50866e-08
2123.99	-1.94008e-07
2132.54	-1.17456e-07
2141.1	-1.16772e-07
2149.66	-1.85773e-07
2158.22	1.95493e-07
2166.77	-1.04505e-07
2175.33	-2.01779e-07
2183.89	-3.38165e-08
2192.45	1.26754e-07
2201	9.76474e-07
2209.56	2.96963e-06
2218.12	3.20877e-06
2226.68	6.84261e-07
2235.24	1.44055e-09
2243.79	-1.09642e-07
2252.35	-1.44419e-07
2260.91	-6.11724e-08
2269.47	1.25575e-07
2278.02	1.09569e-07
2286.58	1.36459e-07
2295.14	6.75457e-08
2303.7	3.99891e-07
2312.25	2.77149e-06
2320.81	3.84414e-06
2329.37	4.30584e-06
2337.93	3.79196e-06
2346.49	7.8152e-07
2355.04	1.59523e-07
2363.6	5.78722e-07
2372.16	7.21002e-07
2380.72	7.99097e-07
2389.27	6.60353e-07
2397.83	1.14567e-06
2406.39	9.37943e-07
2414.95	3.46576e-07
2423.5	4.62896e-07
2432.06	6.25256e-08
2440.62	3.47332e-08
2449.18	2.35726e-08
2457.73	5.8204e-09
2466.29	4.53264e-08
2474.85	6.77349e-08
2483.41	1.65037e-07
2491.97	3.62611e-08
2500.52	-1.03778e-07
2509.08	-8.92413e-08
2517.64	-1.81335e-07
2526.2	-1.94649e-07
2534.75	-1.61909e-07
2543.31	-4.99536e-08
2551.87	6.2351e-08
2560.43	9.88886e-08
2568.98	-8.43958e-09
2577.54	1.01231e-07
2586.1	3.50766e-07
2594.66	8.3805e-07
2603.21	1.51424e-06
2611.77	2.24472e-06
2620.33	7.1345e-07
2628.89	5.58526e-07
2637.45	3.12599e-07
2646	5.29846e-07
2654.56	9.1488e-07
2663.12	1.19896e-06
2671.68	2.51165e-07
2680.23	-5.50464e-08
2688.79	-1.25328e-07
2697.35	-2.01182e-07
2705.91	-2.22019e-07
2714.46	-2.30313e-07
2723.02	-1.85132e-07
2731.58	-2.97961e-07
2740.14	-1.39209e-07
2748.69	-3.54666e-07
2757.25	-1.19347e-07
2765.81	-2.45563e-07
2774.37	-1.14531e-07
2782.93	-1.23422e-07
2791.48	-8.86447e-08
2800.04	4.22095e-07
2808.6	1.31602e-06
2817.16	2.20616e-06
2825.71	2.71415e-06
2834.27	2.14629e-06
2842.83	2.18761e-06
2851.39	1.6638e-06
2859.94	1.17105e-06
2868.5	1.84543e-06
2877.06	2.42396e-06
2885.62	3.72188e-06
2894.18	6.31979e-06
2902.73	5.19898e-06
2911.29	2.82615e-06
2919.85	1.49325e-06
2928.41	2.13056e-07
2936.96	6.27148e-09
2945.52	-2.10015e-07
2954.08	-9.04781e-08
2962.64	-3.90272e-07
2971.19	-2.35028e-07
2979.75	-1.90909e-07
2988.31	1.66071e-07
2996.87	2.4808e-07
3005.42	9.53338e-07
3013.98	3.70566e-06
3022.54	2.43311e-05
3031.1	0.000114183
3039.66	0.00018903
3048.21	0.000227762
3056.77	0.000218363
3065.33	9.92265e-05
3073.89	0.000104454
3082.44	0.000140948
3091	0.000143483
3099.56	0.000139816
3108.12	0.000129579
3116.67	7.07355e-05
3125.23	7.88832e-06
3133.79	1.07491e-06
3142.35	2.15064e-08
3150.9	-1.54677e-07
3159.46	-2.08036e-07
3168.02	-7.80661e-08
3176.58	-3.02006e-07
3185.14	-2.74956e-07
3193.69	-2.86407e-07
3202.25	-1.44913e-07
3210.81	-1.69519e-07
3219.37	-2.73239e-07
3227.92	-1.72429e-07
3236.48	-3.19351e-07
3245.04	-9.57601e-08
3253.6	-3.23469e-08
3262.15	-2.45126e-07
3270.71	-1.88261e-07
3279.27	-2.61074e-07
3287.83	-3.50679e-07
3296.38	-2.59925e-07
3304.94	-1.66332e-07
3313.5	-1.09453e-07
3322.06	-1.66114e-07
3330.62	-3.495e-07
3339.17	-1.74845e-07
3347.73	-9.53673e-08
3356.29	-1.17092e-07
3364.85	-2.99445e-07
3373.4	-1.22519e-08
3381.96	-2.1422e-07
3390.52	-2.97961e-07
3399.08	-1.32138e-07
3407.63	8.78007e-08
3416.19	1.10137e-07
3424.75	-1.25284e-07
3433.31	9.81465e-08
3441.87	1.9203e-07
3450.42	5.61087e-08
3458.98	-2.57844e-08
3467.54	-2.22339e-08
3476.1	-2.87455e-07
3484.65	-1.19638e-07
3493.21	-2.09156e-07
3501.77	-5.50901e-08
3510.33	-1.12552e-07
3518.88	-7.3177e-08
3527.44	-3.02544e-07
3536	-4.19651e-07
3544.56	-1.6332e-07
3553.11	-2.27912e-07
3561.67	-1.70014e-07
3570.23	-2.32249e-07
3578.79	-1.70756e-07
3587.35	-1.8487e-07
3595.9	-2.14322e-07
3604.46	1.29591e-07
3613.02	1.81713e-07
3621.58	1.06074e-06
3630.13	4.24482e-07
3638.69	8.18115e-07
3647.25	2.2708e-06
3655.81	2.39159e-06
3664.36	7.71858e-07
3672.92	3.23498e-07
3681.48	1.38831e-07
3690.04	7.79788e-07
3698.59	1.59923e-06
3707.15	1.79721e-06
3715.71	8.60255e-07
3724.27	3.01337e-07
3732.83	1.51127e-07
3741.38	1.77653e-07
3749.94	-1.07328e-07
3758.5	6.36461e-08
3767.06	-5.95718e-08
3775.61	-1.64543e-07
3784.17	-1.24266e-08
3792.73	-7.59417e-08
3801.29	4.86498e-07
3809.84	-1.88887e-07
3818.4	-2.69761e-07
3826.96	-3.33465e-07
3835.52	-2.33427e-07
3844.08	-3.97679e-08
3852.63	-1.34728e-07
3861.19	-9.9005e-08
3869.75	-1.02643e-07
3878.31	-3.14433e-07
3886.86	-1.72822e-07
3895.42	-2.48371e-07
3903.98	-2.20258e-07
3912.54	4.79601e-08
3921.09	2.01822e-08
3929.65	-1.19464e-08
3938.21	3.83797e-07
3946.77	8.01556e-07
3955.32	5.13985e-07
3963.88	5.117e-07
3972.44	7.86118e-07
