Infrared Spectrum: Benzene
Formula: C6 H6
CAS: 71-43-2
State: gas
Melting point: 5.5 C
Boiling point: 80.1 C
Class: IUPAC A
Instrument: IFS66V (Bruker)
Instrument parameters: KBr Beam Splitter; MCT Detector; Multipass cell
Sampling: 1 L/min Flow
Resolution: 0.2410
Temperature: 23 C
Pressure: 101.3 Pa
Origin: NIST, Analytical Chemistry Division, 301-975-3108
cm-1	(micromol/mol)-1m-1 (base 10)
575.05	1.68406e-06
583.608	2.47643e-07
592.165	8.3124e-07
600.723	-1.0437e-06
609.281	1.35788e-06
617.838	-1.85464e-06
626.396	9.70508e-07
634.954	1.74273e-06
643.511	3.26691e-05
652.069	0.000161444
660.627	0.000330163
669.184	8.03408e-05
677.742	9.11985e-05
686.3	0.000363636
694.857	0.000196935
703.415	3.75393e-05
711.973	1.94884e-06
720.53	1.18534e-06
729.088	-5.81167e-07
737.645	5.59137e-07
746.203	-5.74735e-07
754.761	4.18036e-07
763.318	3.37452e-07
771.876	8.75825e-07
780.434	1.27867e-06
788.991	9.19638e-07
797.549	8.82649e-07
806.107	-1.7403e-08
814.664	-3.93605e-07
823.222	1.35397e-07
831.78	2.45912e-09
840.337	2.6963e-07
848.895	-3.64081e-07
857.453	-2.0124e-08
866.01	-1.84303e-07
874.568	5.09285e-10
883.126	-1.15942e-07
891.683	-2.79263e-07
900.241	1.71993e-08
908.799	-2.7254e-07
917.356	-1.55987e-08
925.914	-1.47809e-07
934.472	-1.79006e-07
943.029	-2.2653e-07
951.587	-6.74584e-08
960.145	-2.45534e-07
968.702	1.55623e-07
977.26	-1.20264e-07
985.818	7.96958e-08
994.375	6.98433e-07
1002.93	2.04295e-06
1011.49	8.58046e-06
1020.05	2.79179e-05
1028.61	2.78533e-05
1037.16	8.30774e-05
1045.72	2.36292e-05
1054.28	2.75848e-05
1062.84	7.27844e-06
1071.39	5.62847e-07
1079.95	-1.45932e-07
1088.51	-1.45859e-07
1097.07	-4.06962e-07
1105.62	-8.42212e-08
1114.18	1.26448e-08
1122.74	1.74656e-07
1131.3	-3.67253e-07
1139.86	2.2103e-08
1148.41	-2.55748e-07
1156.97	1.40926e-07
1165.53	-2.23707e-07
1174.09	4.48316e-08
1182.64	-7.20275e-08
1191.2	4.77055e-07
1199.76	-7.3177e-08
1208.32	1.75383e-07
1216.87	-5.01718e-08
1225.43	3.83026e-07
1233.99	8.68593e-07
1242.55	1.20508e-06
1251.1	1.00146e-06
1259.66	5.63138e-07
1268.22	-2.94643e-07
1276.78	-9.99508e-08
1285.34	-3.79315e-07
1293.89	-1.71687e-07
1302.45	-3.44757e-07
1311.01	-1.5929e-07
1319.57	-2.89419e-07
1328.12	-1.12261e-07
1336.68	-2.09825e-07
1345.24	-1.003e-07
1353.8	-5.88864e-07
1362.35	5.86842e-08
1370.91	1.4091e-06
1379.47	3.96084e-06
1388.03	3.42951e-06
1396.59	3.76398e-06
1405.14	1.05023e-06
1413.7	-2.38345e-08
1422.26	-2.42012e-07
1430.82	1.82324e-08
1439.37	-2.1112e-07
1447.93	6.58404e-07
1456.49	5.44362e-06
1465.05	3.32327e-05
1473.6	6.18141e-05
1482.16	9.21784e-05
1490.72	5.27174e-05
1499.28	4.79545e-05
1507.83	2.01874e-05
1516.39	1.35918e-05
1524.95	1.22351e-05
1533.51	8.28557e-06
1542.07	1.43586e-06
1550.62	-1.81887e-09
1559.18	-4.92988e-08
1567.74	-7.58253e-08
1576.3	7.11413e-07
1584.85	1.09715e-08
1593.41	1.02061e-07
1601.97	3.69581e-07
1610.53	7.13959e-07
1619.08	6.74846e-07
1627.64	5.16852e-07
1636.2	9.70872e-07
1644.76	4.26097e-07
1653.31	1.72942e-06
1661.87	8.298e-07
1670.43	1.032e-06
1678.99	1.20545e-06
1687.55	3.83448e-07
1696.1	4.1773e-07
1704.66	4.521e-08
1713.22	1.07968e-07
1721.78	-1.03661e-07
1730.33	3.05134e-07
1738.89	1.02803e-06
1747.45	8.92878e-07
1756.01	2.34434e-06
1764.56	1.38109e-06
1773.12	1.67725e-06
1781.68	2.73019e-06
1790.24	7.70761e-06
1798.79	2.67161e-05
1807.35	3.10153e-05
1815.91	2.85215e-05
1824.47	2.45026e-05
1833.03	3.25261e-06
1841.58	3.24109e-07
1850.14	1.09947e-07
1858.7	2.03161e-07
1867.26	4.35526e-07
1875.81	4.75381e-07
1884.37	5.23079e-07
1892.93	1.89934e-07
1901.49	2.33936e-07
1910.04	-7.14454e-08
1918.6	2.14089e-07
1927.16	1.10141e-06
1935.72	4.9764e-06
1944.28	1.66839e-05
1952.83	2.15214e-05
1961.39	1.84491e-05
1969.95	1.74703e-05
1978.51	2.51953e-06
1987.06	9.41275e-07
1995.62	4.19986e-07
2004.18	8.78735e-07
2012.74	3.43127e-07
2021.29	7.33967e-07
2029.85	3.55917e-08
2038.41	1.39399e-08
2046.97	-1.83765e-07
2055.52	-3.34964e-08
2064.08	-1.23392e-07
2072.64	-2.37589e-07
2081.2	-1.11315e-07
2089.76	-8.38283e-08
2098.31	-2.39961e-07
2106.87	-1.06106e-07
2115.43	-1.87475e-07
2123.99	-9.48871e-08
2132.54	-1.78643e-07
2141.1	-1.13381e-07
2149.66	-2.27592e-07
2158.22	2.51092e-07
2166.77	-1.72167e-07
2175.33	-1.73884e-07
2183.89	-8.57199e-08
2192.45	1.87417e-07
2201	9.18663e-07
2209.56	3.02757e-06
2218.12	3.15632e-06
2226.68	7.41082e-07
2235.24	-6.36752e-08
2243.79	-3.76143e-08
2252.35	-1.81553e-07
2260.91	8.22131e-09
2269.47	1.14807e-07
2278.02	1.50676e-07
2286.58	1.16481e-07
2295.14	1.19536e-07
2303.7	4.19869e-07
2312.25	2.80663e-06
2320.81	3.86591e-06
2329.37	4.28603e-06
2337.93	3.76174e-06
2346.49	7.7842e-07
2355.04	1.80723e-07
2363.6	6.05685e-07
2372.16	7.06393e-07
2380.72	8.70019e-07
2389.27	6.50051e-07
2397.83	1.1563e-06
2406.39	9.04447e-07
2414.95	3.34076e-07
2423.5	4.57789e-07
2432.06	5.24273e-08
2440.62	3.8953e-08
2449.18	6.01393e-08
2457.73	1.78541e-08
2466.29	7.50104e-08
2474.85	1.09118e-07
2483.41	2.03263e-07
2491.97	7.05141e-08
2500.52	-1.69665e-07
2509.08	-5.90043e-08
2517.64	-1.98301e-07
2526.2	-1.69417e-07
2534.75	-1.68239e-07
2543.31	-3.15757e-08
2551.87	3.23032e-08
2560.43	1.13949e-07
2568.98	-7.02522e-08
2577.54	9.84666e-08
2586.1	3.11799e-07
2594.66	8.56865e-07
2603.21	1.47288e-06
2611.77	2.30564e-06
2620.33	6.62827e-07
2628.89	6.27206e-07
2637.45	2.68772e-07
2646	5.60301e-07
2654.56	8.85938e-07
2663.12	1.29556e-06
2671.68	1.74248e-07
2680.23	5.95718e-08
2688.79	-1.27758e-07
2697.35	-1.98272e-07
2705.91	-2.44093e-07
2714.46	-1.95711e-07
2723.02	-1.68166e-07
2731.58	-2.61714e-07
2740.14	-1.27583e-07
2748.69	-3.19424e-07
2757.25	-1.19056e-07
2765.81	-2.19444e-07
2774.37	-1.22519e-07
2782.93	-1.54241e-08
2791.48	-1.17063e-07
2800.04	5.36728e-07
2808.6	1.2042e-06
2817.16	2.25802e-06
2825.71	2.65962e-06
2834.27	2.21602e-06
2842.83	2.04031e-06
2851.39	1.66613e-06
2859.94	1.18096e-06
2868.5	1.93895e-06
2877.06	2.40384e-06
2885.62	3.76181e-06
2894.18	6.2106e-06
2902.73	5.2437e-06
2911.29	2.80271e-06
2919.85	1.51093e-06
2928.41	1.69534e-07
2936.96	6.82878e-08
2945.52	-2.23343e-07
2954.08	4.87458e-09
2962.64	-5.46594e-07
2971.19	-1.76664e-07
2979.75	-2.6122e-07
2988.31	2.58906e-07
2996.87	2.48618e-07
3005.42	1.03894e-06
3013.98	3.71529e-06
3022.54	2.4399e-05
3031.1	0.000114204
3039.66	0.000188908
3048.21	0.000228678
3056.77	0.000218355
3065.33	9.92887e-05
3073.89	0.000104531
3082.44	0.00014115
3091	0.000143817
3099.56	0.00013958
3108.12	0.00012963
3116.67	7.05235e-05
3125.23	7.95195e-06
3133.79	1.04948e-06
3142.35	3.81236e-08
3150.9	-1.65154e-07
3159.46	-1.06004e-07
3168.02	-1.60323e-07
3176.58	-2.5876e-07
3185.14	-2.22499e-07
3193.69	-1.8148e-07
3202.25	-2.06944e-07
3210.81	-1.10602e-07
3219.37	-3.87333e-07
3227.92	-1.27394e-07
3236.48	-4.19913e-07
3245.04	-2.64392e-08
3253.6	-6.10269e-08
3262.15	-2.7561e-07
3270.71	-2.74315e-07
3279.27	-3.59672e-07
3287.83	-3.19715e-07
3296.38	-3.03854e-07
3304.94	-1.93252e-07
3313.5	-2.09971e-08
3322.06	-1.35746e-07
3330.62	-3.32956e-07
3339.17	-1.77871e-07
3347.73	-4.93861e-08
3356.29	-3.85601e-09
3364.85	-2.86364e-07
3373.4	1.81887e-08
3381.96	-2.91908e-07
3390.52	-2.84181e-07
3399.08	-1.8132e-07
3407.63	1.07736e-07
3416.19	9.80446e-08
3424.75	-1.2524e-07
3433.31	-2.21903e-08
3441.87	3.21213e-07
3450.42	-5.38096e-08
3458.98	-9.82192e-09
3467.54	-9.69679e-08
3476.1	-2.18265e-07
3484.65	-1.88857e-07
3493.21	-1.97093e-07
3501.77	-1.71265e-08
3510.33	-5.79566e-08
3518.88	-2.9946e-08
3527.44	-3.00696e-07
3536	-5.69439e-07
3544.56	-1.11097e-07
3553.11	-3.28081e-07
3561.67	-1.39631e-07
3570.23	-3.16601e-07
3578.79	-1.35033e-08
3587.35	-2.18032e-07
3595.9	-1.52058e-07
3604.46	1.04447e-07
3613.02	3.06735e-07
3621.58	9.90705e-07
3630.13	4.64919e-07
3638.69	7.81898e-07
3647.25	2.25267e-06
3655.81	2.22782e-06
3664.36	8.19803e-07
3672.92	2.42609e-07
3681.48	6.75894e-08
3690.04	6.70306e-07
3698.59	1.64877e-06
3707.15	1.76042e-06
3715.71	9.50428e-07
3724.27	2.02055e-07
3732.83	2.13274e-07
3741.38	1.79356e-07
3749.94	7.1329e-08
3758.5	5.41297e-08
3767.06	9.07109e-08
3775.61	-3.42865e-07
3784.17	8.56181e-08
3792.73	-1.67482e-07
3801.29	5.73775e-07
3809.84	-2.96608e-07
3818.4	-1.81873e-07
3826.96	-4.22721e-07
3835.52	-1.39093e-07
3844.08	-3.9244e-08
3852.63	-1.99349e-09
3861.19	-9.27335e-08
3869.75	-9.58765e-08
3878.31	-3.78617e-07
3886.86	-1.07954e-07
3895.42	-2.70096e-07
3903.98	-2.46378e-07
3912.54	-4.37403e-08
3921.09	1.71018e-07
3929.65	-1.08027e-07
3938.21	4.89685e-07
3946.77	7.74361e-07
3955.32	4.62387e-07
3963.88	3.83084e-07
3972.44	9.71221e-07
