Infrared Spectrum: Benzene
Formula: C6 H6
CAS: 71-43-2
State: gas
Melting point: 5.5 C
Boiling point: 80.1 C
Class: IUPAC A
Instrument: IFS66V (Bruker)
Instrument parameters: KBr Beam Splitter; MCT Detector; Multipass cell
Sampling: 1 L/min Flow
Resolution: 0.9640
Temperature: 23 C
Pressure: 101.3 Pa
Origin: NIST, Analytical Chemistry Division, 301-975-3108
cm-1	(micromol/mol)-1m-1 (base 10)
575.171	1.09029e-07
583.849	4.80137e-08
592.527	2.33556e-07
601.206	3.50553e-07
609.884	4.82399e-07
618.562	5.0438e-07
627.24	9.60513e-07
635.918	5.11298e-06
644.597	4.23887e-05
653.275	0.000188781
661.953	0.000290054
670.631	0.000230203
679.309	0.000169413
687.987	0.000342459
696.666	0.000144922
705.344	2.341e-05
714.022	2.74315e-06
722.7	5.95707e-07
731.378	4.71231e-07
740.057	1.17746e-07
748.735	1.52416e-07
757.413	5.09844e-07
766.091	9.76979e-07
774.769	5.21456e-07
783.448	8.25669e-07
792.126	9.30187e-07
800.804	4.7337e-07
809.482	9.8312e-08
818.16	-7.02561e-08
826.838	-8.40585e-08
835.517	-1.32501e-07
844.195	-1.26608e-07
852.873	-6.51993e-08
861.551	-1.40665e-07
870.229	-1.39595e-07
878.908	-1.25808e-07
887.586	-9.6362e-08
896.264	-1.64072e-07
904.942	-1.58404e-07
913.62	-1.25524e-07
922.299	-1.40265e-07
930.977	-1.2428e-07
939.655	-1.79693e-07
948.333	-1.06963e-07
957.011	-1.11016e-07
965.689	-2.52546e-08
974.368	-1.15541e-08
983.046	1.52132e-07
991.724	5.40869e-07
1000.4	1.43071e-06
1009.08	5.96528e-06
1017.76	2.24445e-05
1026.44	3.16033e-05
1035.11	4.50162e-05
1043.79	1.83931e-05
1052.47	2.95343e-05
1061.15	1.04864e-05
1069.83	1.23003e-06
1078.51	9.98981e-09
1087.18	-4.08396e-08
1095.86	-2.38504e-08
1104.54	-1.32145e-07
1113.22	-1.19245e-07
1121.9	-1.23763e-07
1130.58	-1.51004e-07
1139.25	-1.97854e-07
1147.93	-1.24192e-07
1156.61	-1.45525e-07
1165.29	-1.40599e-07
1173.97	-9.59182e-08
1182.64	-1.89974e-08
1191.32	2.59793e-07
1200	-8.83294e-09
1208.68	4.90687e-08
1217.36	9.75116e-08
1226.04	5.14712e-07
1234.71	1.15327e-06
1243.39	1.02163e-06
1252.07	1.06954e-06
1260.75	2.25786e-07
1269.43	-1.34684e-07
1278.1	-1.88002e-07
1286.78	-2.24578e-07
1295.46	-1.95154e-07
1304.14	-1.77379e-07
1312.82	-2.02401e-07
1321.5	-2.48086e-07
1330.17	-2.26833e-07
1338.85	-1.94267e-07
1347.53	-1.91785e-07
1356.21	-1.16989e-07
1364.89	2.64021e-07
1373.56	2.45877e-06
1382.24	3.68808e-06
1390.92	3.34257e-06
1399.6	3.28075e-06
1408.28	4.30239e-07
1416.96	-4.29569e-08
1425.63	-8.78492e-08
1434.31	-4.41647e-08
1442.99	1.19834e-07
1451.67	1.4816e-06
1460.35	1.36647e-05
1469.02	5.23511e-05
1477.7	5.628e-05
1486.38	5.83e-05
1495.06	6.12996e-05
1503.74	2.8307e-05
1512.42	1.6271e-05
1521.09	1.27706e-05
1529.77	1.24016e-05
1538.45	3.00705e-06
1547.13	2.1541e-07
1555.81	-2.80631e-08
1564.48	3.25305e-08
1573.16	4.06505e-08
1581.84	4.56199e-08
1590.52	8.25087e-08
1599.2	2.90483e-07
1607.88	6.79911e-07
1616.55	8.09699e-07
1625.23	6.24927e-07
1633.91	9.07625e-07
1642.59	4.59844e-07
1651.27	3.57887e-07
1659.94	8.64537e-07
1668.62	1.01479e-06
1677.3	1.13894e-06
1685.98	5.83032e-07
1694.66	1.3758e-07
1703.34	1.19543e-08
1712.01	-6.70911e-08
1720.69	-6.58469e-09
1729.37	2.70583e-07
1738.05	9.94492e-07
1746.73	1.00018e-06
1755.4	2.56703e-06
1764.08	1.25397e-06
1772.76	1.95251e-06
1781.44	2.73588e-06
1790.12	7.82406e-06
1798.8	2.62064e-05
1807.47	3.07227e-05
1816.15	2.87939e-05
1824.83	2.30218e-05
1833.51	3.06676e-06
1842.19	3.44608e-07
1850.86	1.31439e-07
1859.54	2.6007e-07
1868.22	5.45016e-07
1876.9	5.96689e-07
1885.58	6.78099e-07
1894.26	2.24563e-07
1902.93	4.85594e-08
1911.61	9.88067e-08
1920.29	2.79242e-07
1928.97	1.60375e-06
1937.65	6.75989e-06
1946.32	1.95047e-05
1955	2.09444e-05
1963.68	2.05686e-05
1972.36	1.17034e-05
1981.04	1.43142e-06
1989.72	1.66238e-06
1998.39	6.17658e-07
2007.07	7.86088e-07
2015.75	6.38235e-07
2024.43	5.87522e-07
2033.11	1.53434e-07
2041.78	-5.22046e-08
2050.46	-5.76033e-08
2059.14	-1.24753e-07
2067.82	-1.50597e-07
2076.5	-1.55348e-07
2085.18	-1.54416e-07
2093.85	-1.25386e-07
2102.53	-1.36183e-07
2111.21	-4.02721e-08
2119.89	-1.32785e-08
2128.57	-1.46435e-07
2137.24	-1.29293e-08
2145.92	-1.51091e-07
2154.6	-4.13489e-08
2163.28	-1.51142e-07
2171.96	-1.42884e-07
2180.64	-1.46384e-07
2189.31	-7.34138e-09
2197.99	4.38686e-07
2206.67	2.31278e-06
2215.35	2.06779e-06
2224.03	1.19966e-06
2232.7	1.61329e-07
2241.38	-9.74389e-08
2250.06	-1.21937e-07
2258.74	-1.02801e-07
2267.42	4.65876e-08
2276.1	9.96653e-08
2284.77	6.77896e-08
2293.45	6.27255e-08
2302.13	1.95161e-07
2310.81	2.15442e-06
2319.49	4.0457e-06
2328.16	4.68307e-06
2336.84	4.00818e-06
2345.52	1.01845e-06
2354.2	3.47257e-07
2362.88	7.49658e-07
2371.56	7.30158e-07
2380.23	6.34029e-07
2388.91	7.72228e-07
2397.59	1.10314e-06
2406.27	9.46114e-07
2414.95	4.02779e-07
2423.62	4.6931e-07
2432.3	9.07887e-08
2440.98	-4.06723e-08
2449.66	-6.76077e-08
2458.34	-2.60259e-08
2467.02	8.38911e-09
2475.69	1.49032e-07
2484.37	1.72111e-07
2493.05	1.21195e-07
2501.73	-6.07538e-08
2510.41	-1.66334e-07
2519.09	-1.38861e-07
2527.76	-1.30661e-07
2536.44	-1.72875e-07
2545.12	-6.52575e-08
2553.8	8.40512e-08
2562.48	3.36147e-08
2571.15	1.00313e-07
2579.83	1.55632e-07
2588.51	5.46107e-07
2597.19	9.8085e-07
2605.87	1.59427e-06
2614.55	1.58589e-06
2623.22	7.54474e-07
2631.9	4.98734e-07
2640.58	2.28958e-07
2649.26	9.79081e-07
2657.94	7.52983e-07
2666.61	1.05334e-06
2675.29	4.69368e-08
2683.97	-1.00851e-07
2692.65	-1.78863e-07
2701.33	-3.10921e-07
2710.01	-1.82843e-07
2718.68	-2.37267e-07
2727.36	-2.4076e-07
2736.04	-1.45423e-07
2744.72	-1.9503e-07
2753.4	-2.37173e-07
2762.07	-1.88992e-07
2770.75	-1.72221e-07
2779.43	-1.93932e-07
2788.11	-1.03689e-07
2796.79	2.17418e-07
2805.47	1.02e-06
2814.14	2.05554e-06
2822.82	2.26804e-06
2831.5	2.24515e-06
2840.18	2.42407e-06
2848.86	1.66337e-06
2857.53	1.3229e-06
2866.21	1.75979e-06
2874.89	2.02408e-06
2883.57	3.59576e-06
2892.25	5.33391e-06
2900.93	6.83512e-06
2909.6	3.12126e-06
2918.28	1.84793e-06
2926.96	5.43626e-07
2935.64	-3.05151e-08
2944.32	-2.14064e-07
2952.99	-1.03005e-07
2961.67	-3.20984e-07
2970.35	-2.13708e-07
2979.03	-4.48632e-08
2987.71	2.32712e-07
2996.39	4.51659e-07
3005.06	1.14329e-06
3013.74	4.07964e-06
3022.42	2.46632e-05
3031.1	0.000113881
3039.78	0.00018757
3048.45	0.000216852
3057.13	0.000214844
3065.81	9.63061e-05
3074.49	0.000103043
3083.17	0.000137575
3091.85	0.000141982
3100.52	0.000147631
3109.2	0.00013242
3117.88	5.59318e-05
3126.56	6.38761e-06
3135.24	1.07016e-06
3143.91	1.75669e-07
3152.59	4.50742e-08
3161.27	-4.6915e-08
3169.95	-1.0318e-07
3178.63	-8.64668e-08
3187.31	-1.05828e-07
3195.98	-1.17353e-07
3204.66	-1.60579e-07
3213.34	-1.85543e-07
3222.02	-1.58105e-07
3230.7	1.45518e-11
3239.37	-6.44281e-08
3248.05	-5.53696e-08
3256.73	-3.48661e-08
3265.41	-8.55937e-08
3274.09	-5.98297e-08
3282.77	-1.69092e-07
3291.44	-2.42331e-07
3300.12	-1.58396e-07
3308.8	-9.75771e-08
3317.48	-2.04271e-07
3326.16	-2.51295e-07
3334.83	-1.90345e-07
3343.51	-1.8384e-07
3352.19	-1.3603e-07
3360.87	-1.38373e-07
3369.55	-1.9514e-07
3378.23	-1.29402e-07
3386.9	-1.17491e-07
3395.58	-4.00829e-08
3404.26	2.03507e-08
3412.94	-3.07916e-08
3421.62	-1.17848e-07
3430.29	7.8798e-09
3438.97	1.09138e-07
3447.65	1.2134e-07
3456.33	4.2954e-07
3465.01	2.01688e-08
3473.69	-5.73341e-09
3482.36	-1.61394e-07
3491.04	-2.26448e-07
3499.72	-1.78565e-07
3508.4	-2.1557e-07
3517.08	-1.52663e-07
3525.75	-1.73392e-07
3534.43	-2.47381e-07
3543.11	-2.49869e-07
3551.79	-2.54824e-07
3560.47	-2.26128e-07
3569.15	-1.37551e-07
3577.82	-2.18684e-07
3586.5	-1.62449e-07
3595.18	-1.38686e-07
3603.86	1.05253e-07
3612.54	2.47984e-07
3621.21	1.0022e-06
3629.89	5.27139e-07
3638.57	7.53179e-07
3647.25	2.23626e-06
3655.93	2.56372e-06
3664.61	7.26048e-07
3673.28	3.96864e-07
3681.96	4.31272e-07
3690.64	9.67797e-07
3699.32	1.67838e-06
3708	1.82309e-06
3716.67	6.94863e-07
3725.35	2.20241e-07
3734.03	3.14319e-08
3742.71	1.90279e-07
3751.39	-3.69616e-08
3760.07	3.75582e-08
3768.74	-1.10739e-07
3777.42	-1.55821e-07
3786.1	-1.52838e-07
3794.78	-1.56374e-07
3803.46	-1.43175e-07
3812.14	-1.8037e-07
3820.81	-4.04249e-08
3829.49	-2.02728e-07
3838.17	5.19427e-08
3846.85	-1.50182e-07
3855.53	-1.77874e-07
3864.2	-1.90287e-07
3872.88	-1.87856e-07
3881.56	-1.62689e-07
3890.24	1.77947e-07
3898.92	-1.95518e-07
3907.6	-2.16778e-07
3916.27	-2.28514e-07
3924.95	1.32421e-08
3933.63	2.00095e-07
3942.31	4.4319e-07
3950.99	8.13598e-07
3959.66	5.12456e-07
3968.34	5.9335e-07
