Infrared Spectrum: Benzene
Formula: C6 H6
CAS: 71-43-2
State: gas
Melting point: 5.5 C
Boiling point: 80.1 C
Class: IUPAC A
Instrument: IFS66V (Bruker)
Instrument parameters: KBr Beam Splitter; MCT Detector; Multipass cell
Sampling: 1 L/min Flow
Resolution: 0.1250
Temperature: 23 C
Pressure: 101.3 Pa
Origin: NIST, Analytical Chemistry Division, 301-975-3108
cm-1	(micromol/mol)-1m-1 (base 10)
575.05	8.89634e-07
583.608	6.75501e-07
592.165	2.06653e-07
600.723	1.33738e-07
609.281	5.39493e-07
617.838	-6.19232e-07
626.396	-1.39879e-07
634.954	3.24701e-06
643.511	3.08171e-05
652.069	0.000163194
660.627	0.000319332
669.184	9.33462e-05
677.742	0.000103994
686.3	0.000356443
694.857	0.000197003
703.415	3.5628e-05
711.973	3.18836e-06
720.53	2.10728e-07
729.088	1.88275e-07
737.645	-1.27932e-07
746.203	1.68501e-08
754.761	7.23185e-09
763.318	7.14687e-07
771.876	6.28429e-07
780.434	1.48253e-06
788.991	6.16235e-07
797.549	1.00236e-06
806.107	-1.57224e-07
814.664	-2.07163e-07
823.222	-4.46716e-08
831.78	-6.16235e-08
840.337	1.25648e-07
848.895	-1.61385e-07
857.453	-1.28267e-07
866.01	-1.7048e-07
874.568	-2.85782e-08
883.126	-1.30421e-07
891.683	-2.67782e-07
900.241	-1.42818e-07
908.799	-2.22689e-07
917.356	-1.02294e-07
925.914	-7.12562e-08
934.472	-3.00027e-07
943.029	-1.1862e-07
951.587	-1.3918e-07
960.145	-1.86035e-07
968.702	4.81929e-08
977.26	-7.52287e-09
985.818	4.8222e-08
994.375	8.02837e-07
1002.93	1.91172e-06
1011.49	8.70441e-06
1020.05	2.78614e-05
1028.61	2.80212e-05
1037.16	8.29163e-05
1045.72	2.3778e-05
1054.28	2.7359e-05
1062.84	7.397e-06
1071.39	4.38916e-07
1079.95	-5.5934e-08
1088.51	-2.77604e-07
1097.07	-3.03956e-07
1105.62	-1.40897e-07
1114.18	7.9594e-08
1122.74	-1.82033e-08
1131.3	-1.9673e-07
1139.86	-1.34946e-07
1148.41	-1.93761e-07
1156.97	-8.42212e-08
1165.53	-1.48231e-07
1174.09	-9.09438e-08
1182.64	3.90112e-08
1191.2	3.24385e-07
1199.76	2.06042e-08
1208.32	-2.86655e-09
1216.87	8.06998e-08
1225.43	2.40848e-07
1233.99	1.03897e-06
1242.55	1.03136e-06
1251.1	1.09461e-06
1259.66	3.76085e-07
1268.22	-1.64615e-07
1276.78	-2.28189e-07
1285.34	-2.89914e-07
1293.89	-2.82377e-07
1302.45	-2.06581e-07
1311.01	-2.70168e-07
1319.57	-1.5603e-07
1328.12	-2.40368e-07
1336.68	-7.60435e-08
1345.24	-2.03845e-07
1353.8	-4.30288e-07
1362.35	-4.39149e-08
1370.91	1.52557e-06
1379.47	3.85439e-06
1388.03	3.58221e-06
1396.59	3.70191e-06
1405.14	1.21657e-06
1413.7	-9.37957e-08
1422.26	-1.63975e-07
1430.82	-9.44796e-08
1439.37	-1.17703e-07
1447.93	5.97246e-07
1456.49	5.52823e-06
1465.05	3.32132e-05
1473.6	6.18755e-05
1482.16	9.19133e-05
1490.72	5.2749e-05
1499.28	4.7849e-05
1507.83	2.01521e-05
1516.39	1.35312e-05
1524.95	1.2315e-05
1533.51	8.24524e-06
1542.07	1.46123e-06
1550.62	-3.10227e-08
1559.18	2.37036e-08
1567.74	-1.41508e-07
1576.3	7.53887e-07
1584.85	-2.48386e-08
1593.41	1.1683e-07
1601.97	3.90956e-07
1610.53	7.07353e-07
1619.08	6.89281e-07
1627.64	5.30166e-07
1636.2	9.73607e-07
1644.76	4.06642e-07
1653.31	1.67478e-06
1661.87	8.22102e-07
1670.43	1.02557e-06
1678.99	1.18668e-06
1687.55	3.98566e-07
1696.1	4.97877e-07
1704.66	5.85823e-08
1713.22	1.08841e-07
1721.78	-7.97249e-08
1730.33	3.11217e-07
1738.89	1.06087e-06
1747.45	8.72303e-07
1756.01	2.35632e-06
1764.56	1.36103e-06
1773.12	1.71053e-06
1781.68	2.71533e-06
1790.24	7.75765e-06
1798.79	2.66393e-05
1807.35	3.10832e-05
1815.91	2.85111e-05
1824.47	2.45479e-05
1833.03	3.20368e-06
1841.58	3.33727e-07
1850.14	9.08128e-08
1858.7	2.64203e-07
1867.26	3.88468e-07
1875.81	4.94385e-07
1884.37	4.66665e-07
1892.93	2.12241e-07
1901.49	1.61458e-07
1910.04	1.74758e-08
1918.6	1.65532e-07
1927.16	1.11616e-06
1935.72	4.87266e-06
1944.28	1.67648e-05
1952.83	2.1503e-05
1961.39	1.85156e-05
1969.95	1.73846e-05
1978.51	2.57521e-06
1987.06	8.83304e-07
1995.62	4.98037e-07
2004.18	7.92622e-07
2012.74	4.32616e-07
2021.29	6.70059e-07
2029.85	1.1213e-07
2038.41	-3.49224e-08
2046.97	-9.73462e-08
2055.52	-1.27598e-07
2064.08	-6.2191e-08
2072.64	-2.93261e-07
2081.2	-6.79532e-08
2089.76	-1.54153e-07
2098.31	-1.65809e-07
2106.87	-1.85933e-07
2115.43	-6.56541e-08
2123.99	-1.99145e-07
2132.54	-1.05989e-07
2141.1	-1.28223e-07
2149.66	-1.85889e-07
2158.22	1.77639e-07
2166.77	-8.25478e-08
2175.33	-2.09272e-07
2183.89	-2.88401e-08
2192.45	1.41421e-07
2201	9.74422e-07
2209.56	2.98636e-06
2218.12	3.21647e-06
2226.68	6.88801e-07
2235.24	-1.33869e-08
2243.79	-1.06077e-07
2252.35	-1.50719e-07
2260.91	-5.25873e-08
2269.47	1.39369e-07
2278.02	1.1133e-07
2286.58	1.38438e-07
2295.14	5.91789e-08
2303.7	4.18763e-07
2312.25	2.75282e-06
2320.81	3.83444e-06
2329.37	4.29947e-06
2337.93	3.78872e-06
2346.49	8.03375e-07
2355.04	1.6949e-07
2363.6	5.74372e-07
2372.16	7.34229e-07
2380.72	8.16689e-07
2389.27	6.42849e-07
2397.83	1.14575e-06
2406.39	9.30333e-07
2414.95	3.34367e-07
2423.5	4.49524e-07
2432.06	5.40715e-08
2440.62	3.57809e-08
2449.18	3.39911e-08
2457.73	1.74321e-08
2466.29	3.52571e-08
2474.85	5.05356e-08
2483.41	1.7048e-07
2491.97	4.08301e-08
2500.52	-1.02439e-07
2509.08	-6.97575e-08
2517.64	-1.89003e-07
2526.2	-1.90807e-07
2534.75	-1.40272e-07
2543.31	-3.07899e-08
2551.87	6.45482e-08
2560.43	9.77682e-08
2568.98	-5.20926e-08
2577.54	7.48358e-08
2586.1	3.37016e-07
2594.66	8.25653e-07
2603.21	1.50562e-06
2611.77	2.2434e-06
2620.33	7.04036e-07
2628.89	5.55135e-07
2637.45	3.10155e-07
2646	5.305e-07
2654.56	8.91889e-07
2663.12	1.20446e-06
2671.68	2.37851e-07
2680.23	-4.06846e-08
2688.79	-1.17936e-07
2697.35	-1.99523e-07
2705.91	-2.49652e-07
2714.46	-2.46508e-07
2723.02	-1.71411e-07
2731.58	-2.9556e-07
2740.14	-1.27263e-07
2748.69	-3.77337e-07
2757.25	-1.1683e-07
2765.81	-2.73719e-07
2774.37	-1.08943e-07
2782.93	-1.1552e-07
2791.48	-1.08128e-07
2800.04	4.49088e-07
2808.6	1.26883e-06
2817.16	2.18782e-06
2825.71	2.698e-06
2834.27	2.16499e-06
2842.83	2.16021e-06
2851.39	1.6857e-06
2859.94	1.1791e-06
2868.5	1.85567e-06
2877.06	2.45001e-06
2885.62	3.71184e-06
2894.18	6.32237e-06
2902.73	5.22538e-06
2911.29	2.84588e-06
2919.85	1.4495e-06
2928.41	1.92481e-07
2936.96	6.3777e-08
2945.52	-2.09403e-07
2954.08	-1.14225e-07
2962.64	-4.02859e-07
2971.19	-2.18018e-07
2979.75	-1.95726e-07
2988.31	1.76533e-07
2996.87	2.52751e-07
3005.42	9.75543e-07
3013.98	3.6827e-06
3022.54	2.43577e-05
3031.1	0.000114187
3039.66	0.000189166
3048.21	0.000228009
3056.77	0.000218449
3065.33	9.92827e-05
3073.89	0.000104463
3082.44	0.00014105
3091	0.000143394
3099.56	0.000139684
3108.12	0.00012954
3116.67	7.06639e-05
3125.23	7.93299e-06
3133.79	1.07705e-06
3142.35	2.90147e-08
3150.9	-1.48289e-07
3159.46	-1.94358e-07
3168.02	-5.11613e-08
3176.58	-3.16077e-07
3185.14	-2.76978e-07
3193.69	-3.06299e-07
3202.25	-1.22505e-07
3210.81	-1.47838e-07
3219.37	-2.88735e-07
3227.92	-1.85787e-07
3236.48	-3.60647e-07
3245.04	-8.7597e-08
3253.6	-3.60428e-08
3262.15	-2.77517e-07
3270.71	-2.12634e-07
3279.27	-2.48735e-07
3287.83	-3.75474e-07
3296.38	-2.32583e-07
3304.94	-1.27976e-07
3313.5	-5.21653e-08
3322.06	-1.63393e-07
3330.62	-3.66045e-07
3339.17	-1.7045e-07
3347.73	-8.76261e-08
3356.29	-6.62071e-08
3364.85	-3.2811e-07
3373.4	6.5334e-09
3381.96	-2.68844e-07
3390.52	-2.92111e-07
3399.08	-1.58999e-07
3407.63	1.07037e-07
3416.19	1.17819e-07
3424.75	-1.28631e-07
3433.31	1.28514e-07
3441.87	1.54299e-07
3450.42	8.65202e-08
3458.98	-3.78763e-08
3467.54	-3.78035e-08
3476.1	-3.0432e-07
3484.65	-1.1603e-07
3493.21	-1.81713e-07
3501.77	-6.43736e-08
3510.33	-9.60948e-08
3518.88	-3.02806e-08
3527.44	-2.89623e-07
3536	-4.24351e-07
3544.56	-1.90443e-07
3553.11	-2.52795e-07
3561.67	-1.57558e-07
3570.23	-2.57858e-07
3578.79	-2.03525e-07
3587.35	-1.7176e-07
3595.9	-2.24624e-07
3604.46	1.20235e-07
3613.02	1.76023e-07
3621.58	1.09309e-06
3630.13	4.14922e-07
3638.69	8.29422e-07
3647.25	2.28243e-06
3655.81	2.34932e-06
3664.36	7.61919e-07
3672.92	3.01759e-07
3681.48	1.04214e-07
3690.04	7.69704e-07
3698.59	1.5929e-06
3707.15	1.80408e-06
3715.71	8.63122e-07
3724.27	3.06473e-07
3732.83	1.17441e-07
3741.38	1.95565e-07
3749.94	-1.0321e-07
3758.5	8.85428e-08
3767.06	-8.07872e-08
3775.61	-1.79399e-07
3784.17	3.34673e-08
3792.73	-6.31222e-08
3801.29	4.59171e-07
3809.84	-2.14263e-07
3818.4	-2.73224e-07
3826.96	-3.85107e-07
3835.52	-2.32801e-07
3844.08	-3.16775e-08
3852.63	-1.0257e-07
3861.19	-8.49342e-08
3869.75	-1.24411e-07
3878.31	-3.25142e-07
3886.86	-1.33258e-07
3895.42	-2.65105e-07
3903.98	-2.69877e-07
3912.54	6.58869e-08
3921.09	2.02986e-08
3929.65	-2.76178e-08
3938.21	3.74339e-07
3946.77	8.29727e-07
3955.32	5.03435e-07
3963.88	5.03697e-07
3972.44	8.22743e-07
