Infrared Spectrum: Benzene
Formula: C6 H6
CAS: 71-43-2
State: gas
Melting point: 5.5 C
Boiling point: 80.1 C
Class: IUPAC A
Instrument: IFS66V (Bruker)
Instrument parameters: KBr Beam Splitter; MCT Detector; Multipass cell
Sampling: 1 L/min Flow
Resolution: 0.1250
Temperature: 23 C
Pressure: 101.3 Pa
Origin: NIST, Analytical Chemistry Division, 301-975-3108
cm-1	(micromol/mol)-1m-1 (base 10)
575.05	3.09718e-07
583.608	1.32286e-06
592.165	3.36419e-07
600.723	7.44458e-07
609.281	9.67249e-07
617.838	-7.17131e-07
626.396	-2.23853e-07
634.954	3.74717e-06
643.511	3.02408e-05
652.069	0.000163725
660.627	0.000323172
669.184	9.28359e-05
677.742	0.000108171
686.3	0.000356983
694.857	0.000198563
703.415	3.57309e-05
711.973	3.20064e-06
720.53	2.42594e-07
729.088	1.50355e-07
737.645	-4.54137e-08
746.203	1.1117e-08
754.761	-1.68355e-08
763.318	6.6453e-07
771.876	8.23863e-07
780.434	1.38737e-06
788.991	7.49959e-07
797.549	9.57339e-07
806.107	-4.28178e-07
814.664	-2.1016e-07
823.222	-5.05065e-08
831.78	-2.13885e-07
840.337	6.22055e-08
848.895	-5.7069e-08
857.453	-1.19478e-07
866.01	-1.37551e-07
874.568	-8.43376e-08
883.126	-1.84318e-07
891.683	-3.95147e-07
900.241	-2.34926e-07
908.799	-8.29116e-08
917.356	-1.04985e-07
925.914	3.72506e-08
934.472	-5.05851e-07
943.029	-7.01067e-08
951.587	-6.4199e-08
960.145	-2.59604e-07
968.702	1.46892e-07
977.26	-5.01136e-08
985.818	3.37729e-08
994.375	1.00975e-06
1002.93	1.7957e-06
1011.49	8.72906e-06
1020.05	2.76329e-05
1028.61	2.79716e-05
1037.16	8.28847e-05
1045.72	2.37559e-05
1054.28	2.75415e-05
1062.84	7.52441e-06
1071.39	4.62227e-07
1079.95	-1.43662e-07
1088.51	-4.13219e-07
1097.07	-5.0409e-07
1105.62	-1.96017e-07
1114.18	1.01857e-07
1122.74	-7.35408e-08
1131.3	-1.54342e-07
1139.86	-7.25804e-08
1148.41	-3.16644e-07
1156.97	-1.63117e-08
1165.53	-2.84865e-07
1174.09	-1.4842e-09
1182.64	6.1769e-08
1191.2	3.94652e-07
1199.76	8.2897e-08
1208.32	-1.01682e-07
1216.87	-1.36634e-08
1225.43	3.61592e-08
1233.99	1.05167e-06
1242.55	9.57834e-07
1251.1	1.06008e-06
1259.66	4.21455e-07
1268.22	-6.23656e-08
1276.78	-3.18347e-07
1285.34	-3.58769e-07
1293.89	-4.10658e-07
1302.45	-1.37114e-07
1311.01	-2.73908e-07
1319.57	-1.74976e-07
1328.12	-1.69999e-07
1336.68	6.83751e-08
1345.24	-1.81378e-07
1353.8	-5.45226e-07
1362.35	-7.97686e-08
1370.91	1.52138e-06
1379.47	3.73425e-06
1388.03	3.6564e-06
1396.59	3.67916e-06
1405.14	1.25223e-06
1413.7	-1.44055e-08
1422.26	-2.39029e-07
1430.82	-1.20555e-07
1439.37	-1.42716e-07
1447.93	6.38993e-07
1456.49	5.69856e-06
1465.05	3.32951e-05
1473.6	6.18436e-05
1482.16	9.16453e-05
1490.72	5.25486e-05
1499.28	4.78597e-05
1507.83	2.00884e-05
1516.39	1.35464e-05
1524.95	1.22739e-05
1533.51	8.27998e-06
1542.07	1.46013e-06
1550.62	-3.95205e-08
1559.18	4.54864e-08
1567.74	-2.54803e-07
1576.3	6.68997e-07
1584.85	-7.42683e-08
1593.41	1.94721e-07
1601.97	4.4481e-07
1610.53	6.49222e-07
1619.08	6.41612e-07
1627.64	5.45735e-07
1636.2	9.72531e-07
1644.76	3.9925e-07
1653.31	1.6982e-06
1661.87	7.89246e-07
1670.43	1.05556e-06
1678.99	1.21534e-06
1687.55	4.86513e-07
1696.1	4.16028e-07
1704.66	1.83925e-08
1713.22	1.86573e-07
1721.78	-1.02817e-07
1730.33	3.10926e-07
1738.89	1.14385e-06
1747.45	7.93451e-07
1756.01	2.36914e-06
1764.56	1.34159e-06
1773.12	1.64447e-06
1781.68	2.72047e-06
1790.24	7.67965e-06
1798.79	2.66867e-05
1807.35	3.12438e-05
1815.91	2.84428e-05
1824.47	2.46518e-05
1833.03	3.16672e-06
1841.58	3.49239e-07
1850.14	1.04287e-07
1858.7	3.00886e-07
1867.26	3.22261e-07
1875.81	3.68693e-07
1884.37	4.83908e-07
1892.93	1.57078e-07
1901.49	2.5358e-07
1910.04	7.38172e-08
1918.6	2.1892e-07
1927.16	1.16661e-06
1935.72	4.92385e-06
1944.28	1.67714e-05
1952.83	2.14552e-05
1961.39	1.85656e-05
1969.95	1.73953e-05
1978.51	2.57886e-06
1987.06	8.77673e-07
1995.62	4.87037e-07
2004.18	7.53465e-07
2012.74	4.03106e-07
2021.29	6.10327e-07
2029.85	4.80765e-08
2038.41	5.35477e-09
2046.97	-5.29365e-08
2055.52	-1.41508e-07
2064.08	-7.63636e-08
2072.64	-2.80456e-07
2081.2	-5.2369e-08
2089.76	-2.50204e-07
2098.31	-1.45714e-07
2106.87	-1.87344e-07
2115.43	-1.42891e-08
2123.99	-1.88203e-07
2132.54	-6.8346e-08
2141.1	-2.03627e-07
2149.66	-1.75223e-07
2158.22	7.88519e-08
2166.77	4.06846e-08
2175.33	-2.27883e-07
2183.89	-6.01393e-08
2192.45	1.78977e-07
2201	1.00152e-06
2209.56	3.0424e-06
2218.12	3.20736e-06
2226.68	7.07353e-07
2235.24	-6.97284e-08
2243.79	-1.48769e-07
2252.35	-1.4113e-07
2260.91	-5.03756e-08
2269.47	1.73914e-07
2278.02	7.87064e-08
2286.58	1.59624e-07
2295.14	6.43154e-09
2303.7	4.80227e-07
2312.25	2.63711e-06
2320.81	3.744e-06
2329.37	4.26347e-06
2337.93	3.7699e-06
2346.49	8.97578e-07
2355.04	2.52707e-07
2363.6	5.46506e-07
2372.16	7.81985e-07
2380.72	8.51364e-07
2389.27	5.96984e-07
2397.83	1.17047e-06
2406.39	9.35251e-07
2414.95	3.25579e-07
2423.5	3.41803e-07
2432.06	4.6214e-08
2440.62	2.63519e-08
2449.18	7.74841e-08
2457.73	5.18161e-08
2466.29	-1.1699e-08
2474.85	-2.35726e-09
2483.41	1.67628e-07
2491.97	8.00305e-09
2500.52	-7.37299e-08
2509.08	7.17073e-08
2517.64	-2.28713e-07
2526.2	-2.01008e-07
2534.75	-5.02155e-08
2543.31	2.04151e-08
2551.87	1.04767e-07
2560.43	6.24674e-08
2568.98	-1.93805e-07
2577.54	2.12154e-08
2586.1	2.64552e-07
2594.66	7.34258e-07
2603.21	1.42747e-06
2611.77	2.222e-06
2620.33	6.58506e-07
2628.89	5.54044e-07
2637.45	2.91209e-07
2646	5.23938e-07
2654.56	7.88024e-07
2663.12	1.11517e-06
2671.68	2.32438e-07
2680.23	-5.95427e-08
2688.79	-1.16568e-07
2697.35	-2.37894e-07
2705.91	-3.48715e-07
2714.46	-2.87266e-07
2723.02	-1.54619e-07
2731.58	-2.65541e-07
2740.14	-1.69752e-07
2748.69	-4.48855e-07
2757.25	-1.74292e-07
2765.81	-3.57082e-07
2774.37	-1.31206e-07
2782.93	-1.27336e-07
2791.48	-1.90342e-07
2800.04	5.59792e-07
2808.6	1.06652e-06
2817.16	2.10327e-06
2825.71	2.65962e-06
2834.27	2.18626e-06
2842.83	2.11697e-06
2851.39	1.80982e-06
2859.94	1.17777e-06
2868.5	1.92181e-06
2877.06	2.58464e-06
2885.62	3.7289e-06
2894.18	6.31423e-06
2902.73	5.30802e-06
2911.29	2.90613e-06
2919.85	1.37165e-06
2928.41	1.47503e-07
2936.96	2.37851e-07
2945.52	-3.26801e-07
2954.08	-2.55647e-07
2962.64	-4.04372e-07
2971.19	-1.86689e-07
2979.75	-2.68611e-07
2988.31	1.95333e-07
2996.87	2.30139e-07
3005.42	9.97878e-07
3013.98	3.5271e-06
3022.54	2.45252e-05
3031.1	0.000114109
3039.66	0.000189461
3048.21	0.000227902
3056.77	0.000218788
3065.33	9.9366e-05
3073.89	0.000104417
3082.44	0.0001413
3091	0.000142891
3099.56	0.000139362
3108.12	0.000129439
3116.67	7.04768e-05
3125.23	8.07698e-06
3133.79	1.10624e-06
3142.35	1.02846e-07
3150.9	-1.66929e-07
3159.46	-2.07817e-07
3168.02	3.37583e-09
3176.58	-3.58755e-07
3185.14	-2.86451e-07
3193.69	-4.32005e-07
3202.25	8.52107e-08
3210.81	-1.34029e-07
3219.37	-3.17357e-07
3227.92	-2.18774e-07
3236.48	-4.18821e-07
3245.04	-1.92553e-07
3253.6	-4.03208e-08
3262.15	-4.55606e-07
3270.71	-2.39568e-07
3279.27	-1.26244e-07
3287.83	-5.51206e-07
3296.38	-1.59101e-07
3304.94	4.88477e-08
3313.5	1.003e-07
3322.06	-1.6348e-07
3330.62	-4.30055e-07
3339.17	-2.06086e-07
3347.73	-1.46369e-07
3356.29	7.65674e-08
3364.85	-4.7704e-07
3373.4	1.48144e-07
3381.96	-4.59957e-07
3390.52	-2.39626e-07
3399.08	-2.86655e-07
3407.63	1.43022e-07
3416.19	1.84652e-08
3424.75	-1.16801e-07
3433.31	3.16557e-07
3441.87	-9.99654e-09
3450.42	1.98417e-07
3458.98	-4.93424e-08
3467.54	-9.02453e-08
3476.1	-4.44169e-07
3484.65	-7.54178e-08
3493.21	-5.86696e-08
3501.77	-2.50001e-07
3510.33	-5.72e-08
3518.88	9.9849e-08
3527.44	-1.47591e-07
3536	-3.07608e-07
3544.56	-2.87091e-07
3553.11	-2.62937e-07
3561.67	-6.30204e-08
3570.23	-3.5989e-07
3578.79	-4.11531e-07
3587.35	-1.3256e-08
3595.9	-2.08821e-07
3604.46	8.63456e-08
3613.02	1.4292e-07
3621.58	1.31746e-06
3630.13	3.50839e-07
3638.69	8.59382e-07
3647.25	2.40128e-06
3655.81	2.18349e-06
3664.36	7.63345e-07
3672.92	1.22258e-07
3681.48	1.01028e-07
3690.04	7.48751e-07
3698.59	1.63949e-06
3707.15	1.74072e-06
3715.71	9.0887e-07
3724.27	3.18885e-07
3732.83	1.9411e-08
3741.38	2.25541e-07
3749.94	-1.22971e-07
3758.5	1.11199e-07
3767.06	-2.23925e-07
3775.61	-2.49782e-07
3784.17	5.70981e-08
3792.73	9.48725e-09
3801.29	4.37156e-07
3809.84	-3.00769e-07
3818.4	-3.12599e-07
3826.96	-5.09983e-07
3835.52	-2.664e-07
3844.08	-6.83751e-08
3852.63	-9.57456e-09
3861.19	-3.11391e-09
3869.75	-1.2591e-07
3878.31	-3.58566e-07
3886.86	1.09642e-07
3895.42	-3.66816e-07
3903.98	-4.36967e-07
3912.54	1.3579e-07
3921.09	4.54428e-08
3929.65	-5.77093e-08
3938.21	3.33349e-07
3946.77	8.72041e-07
3955.32	5.68988e-07
3963.88	4.93686e-07
3972.44	9.38161e-07
