Infrared Spectrum: Benzene
Formula: C6 H6
CAS: 71-43-2
State: gas
Melting point: 5.5 C
Boiling point: 80.1 C
Class: IUPAC A
Instrument: IFS66V (Bruker)
Instrument parameters: KBr Beam Splitter; MCT Detector; Multipass cell
Sampling: 1 L/min Flow
Resolution: 1.9290
Temperature: 23 C
Pressure: 101.3 Pa
Origin: NIST, Analytical Chemistry Division, 301-975-3108
cm-1	(micromol/mol)-1m-1 (base 10)
575.653	-3.58053e-07
584.331	2.1209e-08
593.009	-1.30091e-07
601.688	2.63424e-07
610.366	-2.4084e-07
619.044	4.11541e-07
627.722	-8.30714e-08
636.4	5.0431e-06
645.079	4.49299e-05
653.757	0.000200535
662.435	0.00028225
671.113	0.000371025
679.791	0.000173719
688.469	0.000338666
697.148	0.000133662
705.826	1.87683e-05
714.504	1.86509e-06
723.182	-1.16555e-07
731.86	2.33746e-07
740.539	-2.62263e-07
749.217	5.1509e-08
757.895	2.52347e-07
766.573	9.28079e-07
775.251	4.68787e-07
783.93	6.46171e-07
792.608	7.33004e-07
801.286	4.59099e-07
809.964	-3.58624e-08
818.642	-9.29556e-08
827.32	-1.99779e-07
835.999	-1.64255e-07
844.677	-2.2169e-07
853.355	-8.28423e-08
862.033	-1.95071e-07
870.711	-1.85879e-07
879.39	-1.6113e-07
888.068	-1.65936e-07
896.746	-1.95039e-07
905.424	-1.93162e-07
914.102	-1.58933e-07
922.781	-1.83969e-07
931.459	-1.22681e-07
940.137	-1.88145e-07
948.815	-1.52777e-07
957.493	-1.66616e-07
966.171	-4.24798e-08
974.85	-8.45375e-08
983.528	1.19734e-07
992.206	4.78169e-07
1000.88	1.46851e-06
1009.56	6.38968e-06
1018.24	2.38189e-05
1026.92	3.09895e-05
1035.6	5.19553e-05
1044.28	1.93755e-05
1052.95	2.9113e-05
1061.63	9.46443e-06
1070.31	9.21098e-07
1078.99	-7.2296e-08
1087.67	-1.01261e-07
1096.34	-1.34366e-07
1105.02	-1.28338e-07
1113.7	-1.43915e-07
1122.38	-1.21953e-07
1131.06	-2.11642e-07
1139.74	-1.88963e-07
1148.41	-1.70126e-07
1157.09	-1.20851e-07
1165.77	-1.66183e-07
1174.45	-5.74534e-08
1183.13	-6.41253e-08
1191.8	3.63237e-07
1200.48	-3.76013e-08
1209.16	3.71029e-08
1217.84	5.84501e-08
1226.52	5.87212e-07
1235.2	1.12581e-06
1243.87	1.0296e-06
1252.55	1.03728e-06
1261.23	2.02737e-07
1269.91	-1.76511e-07
1278.59	-1.632e-07
1287.26	-2.41411e-07
1295.94	-1.62541e-07
1304.62	-2.18627e-07
1313.3	-1.76267e-07
1321.98	-2.80442e-07
1330.66	-1.93551e-07
1339.33	-2.41993e-07
1348.01	-1.60377e-07
1356.69	-1.97407e-07
1365.37	3.37419e-07
1374.05	2.60762e-06
1382.72	3.71023e-06
1391.4	3.26078e-06
1400.08	3.17012e-06
1408.76	3.00814e-07
1417.44	-6.43217e-08
1426.12	-2.0059e-07
1434.79	-6.01381e-08
1443.47	-2.58327e-08
1452.15	1.48135e-06
1460.83	1.49079e-05
1469.51	5.47439e-05
1478.18	5.6093e-05
1486.86	5.49919e-05
1495.54	6.12541e-05
1504.22	2.68683e-05
1512.9	1.56216e-05
1521.58	1.23964e-05
1530.25	1.1993e-05
1538.93	2.73202e-06
1547.61	5.92541e-08
1556.29	-2.55126e-08
1564.97	-4.97592e-08
1573.64	4.0508e-08
1582.32	-3.57205e-08
1591	1.25609e-07
1599.68	2.33531e-07
1608.36	7.1412e-07
1617.04	5.98675e-07
1625.71	5.29278e-07
1634.39	9.38524e-07
1643.07	4.52839e-07
1651.75	4.87933e-07
1660.43	9.16063e-07
1669.1	9.93041e-07
1677.78	1.18259e-06
1686.46	4.75219e-07
1695.14	3.16072e-07
1703.82	-1.57121e-08
1712.5	-3.11768e-09
1721.17	-7.89533e-08
1729.85	3.48846e-07
1738.53	9.72913e-07
1747.21	9.87719e-07
1755.89	2.35658e-06
1764.56	1.34474e-06
1773.24	1.73195e-06
1781.92	2.81113e-06
1790.6	8.36664e-06
1799.28	2.76058e-05
1807.96	3.06107e-05
1816.63	2.96347e-05
1825.31	2.14771e-05
1833.99	2.58824e-06
1842.67	1.81338e-07
1851.35	1.35723e-07
1860.02	2.07444e-07
1868.7	5.8496e-07
1877.38	5.12351e-07
1886.06	7.67171e-07
1894.74	1.24955e-07
1903.42	7.13501e-08
1912.09	4.47353e-08
1920.77	3.38052e-07
1929.45	1.60657e-06
1938.13	7.33183e-06
1946.81	2.01629e-05
1955.48	2.10115e-05
1964.16	2.11556e-05
1972.84	1.07177e-05
1981.52	1.12306e-06
1990.2	1.13599e-06
1998.88	6.34875e-07
2007.55	1.02524e-06
2016.23	6.10636e-07
2024.91	6.17279e-07
2033.59	5.94033e-08
2042.27	4.63105e-09
2050.94	-1.28392e-07
2059.62	-6.78105e-08
2068.3	-2.26055e-07
2076.98	-9.17042e-08
2085.66	-1.78537e-07
2094.34	-4.60267e-08
2103.01	-1.39444e-07
2111.69	-1.1212e-08
2120.37	-1.60893e-07
2129.05	-8.96524e-08
2137.73	-6.27538e-09
2146.41	-1.00064e-07
2155.08	-1.58933e-07
2163.76	-1.26439e-07
2172.44	-1.20247e-07
2181.12	-8.16199e-08
2189.8	-2.37664e-08
2198.47	5.61917e-07
2207.15	2.40877e-06
2215.83	2.31641e-06
2224.51	1.02063e-06
2233.19	1.90077e-07
2241.87	-1.81055e-07
2250.54	-7.96773e-08
2259.22	-1.54396e-07
2267.9	1.28356e-07
2276.58	3.26611e-08
2285.26	1.31335e-07
2293.93	-2.02122e-08
2302.61	2.70958e-07
2311.29	2.29576e-06
2319.97	4.01992e-06
2328.65	4.57304e-06
2337.33	4.08571e-06
2346	8.55059e-07
2354.68	3.34152e-07
2363.36	6.90561e-07
2372.04	7.623e-07
2380.72	6.09203e-07
2389.39	8.27782e-07
2398.07	1.04751e-06
2406.75	1.06185e-06
2415.43	3.57867e-07
2424.11	5.38726e-07
2432.79	1.91244e-08
2441.46	2.07215e-08
2450.14	-1.3163e-07
2458.82	2.87758e-08
2467.5	-4.81076e-08
2476.18	2.17728e-07
2484.85	1.11593e-07
2493.53	1.79599e-07
2502.21	-1.46549e-07
2510.89	-1.27101e-07
2519.57	-2.07466e-07
2528.25	-1.12666e-07
2536.92	-2.12173e-07
2545.6	8.36717e-10
2554.28	6.65554e-08
2562.96	1.03109e-07
2571.64	3.87182e-08
2580.31	1.88672e-07
2588.99	5.19787e-07
2597.67	1.03489e-06
2606.35	1.6619e-06
2615.03	1.52149e-06
2623.71	6.71305e-07
2632.38	5.00109e-07
2641.06	1.89516e-07
2649.74	1.05427e-06
2658.42	6.89666e-07
2667.1	1.07187e-06
2675.77	-4.91735e-08
2684.45	-5.77553e-08
2693.13	-2.56206e-07
2701.81	-2.49007e-07
2710.49	-2.0807e-07
2719.17	-1.70876e-07
2727.84	-2.80646e-07
2736.52	-1.25988e-07
2745.2	-2.75786e-07
2753.88	-1.90011e-07
2762.56	-2.56647e-07
2771.23	-1.2801e-07
2779.91	-2.65854e-07
2788.59	-3.58952e-08
2797.27	1.7809e-07
2805.95	1.1329e-06
2814.63	2.03763e-06
2823.3	2.40754e-06
2831.98	2.1093e-06
2840.66	2.48285e-06
2849.34	1.54732e-06
2858.02	1.30996e-06
2866.69	1.69063e-06
2875.37	2.0968e-06
2884.05	3.5643e-06
2892.73	5.60354e-06
2901.41	6.35394e-06
2910.09	3.06707e-06
2918.76	1.71674e-06
2927.44	5.34928e-07
2936.12	-1.35643e-07
2944.8	-1.84813e-07
2953.48	-2.12854e-07
2962.15	-2.98515e-07
2970.83	-3.18847e-07
2979.51	-8.74588e-08
2988.19	-5.6533e-09
2996.87	2.79129e-07
3005.55	8.17567e-07
3014.22	4.00374e-06
3022.9	2.6383e-05
3031.58	0.000121632
3040.26	0.000187947
3048.94	0.000210481
3057.61	0.000214411
3066.29	9.2082e-05
3074.97	0.000100938
3083.65	0.000137148
3092.33	0.000141759
3101.01	0.00013776
3109.68	0.000134021
3118.36	5.02515e-05
3127.04	4.98062e-06
3135.72	7.09423e-07
3144.4	-9.16969e-08
3153.07	-4.19086e-08
3161.75	-1.96076e-07
3170.43	-1.08184e-07
3179.11	-2.18761e-07
3187.79	-6.89455e-08
3196.47	-2.60084e-07
3205.14	-1.28865e-07
3213.82	-3.02419e-07
3222.5	-9.22753e-08
3231.18	-1.65193e-07
3239.86	7.21396e-09
3248.53	-1.50547e-07
3257.21	-2.32826e-10
3265.89	-1.66816e-07
3274.57	-6.62425e-08
3283.25	-2.57974e-07
3291.93	-1.59027e-07
3300.6	-2.78267e-07
3309.28	-1.1248e-07
3317.96	-3.08468e-07
3326.64	-1.66721e-07
3335.32	-3.08345e-07
3343.99	-1.2972e-07
3352.67	-2.74836e-07
3361.35	-1.10629e-07
3370.03	-2.60947e-07
3378.71	-8.80372e-08
3387.39	-1.69603e-07
3396.06	2.8452e-08
3404.74	-4.21633e-08
3413.42	2.27514e-08
3422.1	-1.92991e-07
3430.78	6.69774e-08
3439.46	3.8187e-08
3448.13	1.80836e-07
3456.81	1.86137e-07
3465.49	1.00261e-07
3474.17	-8.96415e-08
3482.85	-9.17296e-08
3491.52	-3.09425e-07
3500.2	-1.37713e-07
3508.88	-2.51124e-07
3517.56	-1.03167e-07
3526.24	-2.66174e-07
3534.92	-1.58274e-07
3543.59	-3.03535e-07
3552.27	-1.769e-07
3560.95	-2.77979e-07
3569.63	-9.03691e-08
3578.31	-3.14122e-07
3586.98	-1.26312e-07
3595.66	-1.86621e-07
3604.34	1.59202e-07
3613.02	1.33063e-07
3621.7	1.04285e-06
3630.38	3.84733e-07
3639.05	8.76614e-07
3647.73	2.21518e-06
3656.41	2.86581e-06
3665.09	6.06656e-07
3673.77	4.6337e-07
3682.44	3.67122e-07
3691.12	1.12941e-06
3699.8	1.66972e-06
3708.48	1.94894e-06
3717.16	5.48272e-07
3725.84	2.758e-07
3734.51	1.71563e-08
3743.19	4.64924e-07
3751.87	6.47983e-08
3760.55	3.75359e-08
3769.23	-1.59165e-07
3777.9	-4.86787e-08
3786.58	-2.23174e-07
3795.26	-6.31503e-08
3803.94	-2.23425e-07
3812.62	-9.91291e-08
3821.3	-1.27614e-07
3829.97	-1.41343e-07
3838.65	-1.3883e-07
3847.33	-1.15027e-07
3856.01	-2.68535e-07
3864.69	-8.84228e-08
3873.36	-2.55541e-07
3882.04	-9.59132e-08
3890.72	-5.26113e-08
3899.4	-7.23542e-08
3908.08	-3.02026e-07
3916.76	-1.04677e-07
3925.43	-7.29435e-08
3934.11	3.02455e-07
3942.79	4.2829e-07
3951.47	9.52275e-07
3960.15	4.51409e-07
3968.82	6.58507e-07
