Infrared Spectrum: Benzene
Formula: C6 H6
CAS: 71-43-2
State: gas
Melting point: 5.5 C
Boiling point: 80.1 C
Class: IUPAC A
Instrument: IFS66V (Bruker)
Instrument parameters: KBr Beam Splitter; MCT Detector; Multipass cell
Sampling: 1 L/min Flow
Resolution: 0.4820
Temperature: 23 C
Pressure: 101.3 Pa
Origin: NIST, Analytical Chemistry Division, 301-975-3108
cm-1	(micromol/mol)-1m-1 (base 10)
575.171	-2.83986e-07
583.849	-2.13395e-07
592.527	-1.48843e-07
601.206	-7.27299e-08
609.884	-4.32552e-08
618.562	-3.15439e-07
627.24	-1.20052e-08
635.918	3.32007e-06
644.597	3.97994e-05
653.275	0.000187762
661.953	0.000288847
670.631	0.000179465
679.309	0.000156212
687.987	0.000347629
696.666	0.000144806
705.344	2.23072e-05
714.022	2.30503e-06
722.7	4.43648e-07
731.378	5.52808e-07
740.057	1.621e-07
748.735	2.60324e-07
757.413	6.14188e-07
766.091	1.10609e-06
774.769	5.15759e-07
783.448	8.44055e-07
792.126	1.10494e-06
800.804	5.96362e-07
809.482	2.11649e-07
818.16	-2.20387e-08
826.838	8.71435e-08
835.517	-1.24563e-08
844.195	-3.78929e-08
852.873	8.05733e-08
861.551	-3.34109e-08
870.229	-5.08731e-08
878.908	-4.96144e-08
887.586	2.16094e-09
896.264	-1.01601e-07
904.942	-8.59575e-08
913.62	-6.37005e-08
922.299	-1.00007e-07
930.977	-8.00931e-08
939.655	-1.58265e-07
948.333	-2.81505e-08
957.011	-9.9869e-08
965.689	3.1119e-08
974.368	5.54787e-08
983.046	1.71449e-07
991.724	5.6672e-07
1000.4	1.40967e-06
1009.08	5.89768e-06
1017.76	2.26194e-05
1026.44	3.19047e-05
1035.11	4.46585e-05
1043.79	1.78195e-05
1052.47	2.99507e-05
1061.15	1.03995e-05
1069.83	1.17676e-06
1078.51	-8.25815e-09
1087.18	-5.44237e-09
1095.86	4.03085e-08
1104.54	-1.41735e-07
1113.22	-8.25815e-08
1121.9	-5.52386e-08
1130.58	-1.16494e-07
1139.25	-1.35179e-07
1147.93	-8.78492e-08
1156.61	-1.02721e-07
1165.29	-1.18648e-07
1173.97	-8.31272e-08
1182.64	6.05355e-09
1191.32	3.32669e-07
1200	2.94674e-08
1208.68	8.09298e-08
1217.36	1.12282e-07
1226.04	5.40774e-07
1234.71	1.20006e-06
1243.39	1.04578e-06
1252.07	1.10998e-06
1260.75	2.4292e-07
1269.43	-1.14712e-07
1278.1	-1.71435e-07
1286.78	-2.52823e-07
1295.46	-1.82109e-07
1304.14	-1.49418e-07
1312.82	-1.9717e-07
1321.5	-2.50044e-07
1330.17	-2.05573e-07
1338.85	-1.96289e-07
1347.53	-1.41924e-07
1356.21	-7.68335e-08
1364.89	2.66873e-07
1373.56	2.45843e-06
1382.24	3.7186e-06
1390.92	3.34648e-06
1399.6	3.29186e-06
1408.28	3.62464e-07
1416.96	-7.70591e-08
1425.63	-9.71114e-08
1434.31	-1.07531e-07
1442.99	2.7401e-08
1451.67	1.27616e-06
1460.35	1.33806e-05
1469.02	5.2933e-05
1477.7	5.61509e-05
1486.38	5.78877e-05
1495.06	6.22136e-05
1503.74	2.8117e-05
1512.42	1.62559e-05
1521.09	1.28412e-05
1529.77	1.25466e-05
1538.45	2.83031e-06
1547.13	1.37405e-07
1555.81	-7.79467e-08
1564.48	-6.00262e-09
1573.16	3.3702e-08
1581.84	4.04322e-08
1590.52	8.36001e-08
1599.2	3.07501e-07
1607.88	6.85135e-07
1616.55	9.59051e-07
1625.23	5.95874e-07
1633.91	9.06825e-07
1642.59	4.4375e-07
1651.27	3.31395e-07
1659.94	8.81453e-07
1668.62	9.77263e-07
1677.3	1.15601e-06
1685.98	5.83993e-07
1694.66	1.23538e-07
1703.34	-2.02707e-08
1712.01	-9.61437e-08
1720.69	-2.52401e-08
1729.37	2.54693e-07
1738.05	9.94579e-07
1746.73	9.96726e-07
1755.4	2.42474e-06
1764.08	1.21048e-06
1772.76	2.1158e-06
1781.44	2.67736e-06
1790.12	7.67661e-06
1798.8	2.64903e-05
1807.47	3.08744e-05
1816.15	2.8801e-05
1824.83	2.32346e-05
1833.51	2.88836e-06
1842.19	2.8173e-07
1850.86	8.74199e-08
1859.54	2.3181e-07
1868.22	5.53027e-07
1876.9	6.09975e-07
1885.58	6.84335e-07
1894.26	2.29831e-07
1902.93	2.63242e-08
1911.61	7.61277e-08
1920.29	2.40468e-07
1928.97	1.55057e-06
1937.65	6.67215e-06
1946.32	1.97419e-05
1955	2.11437e-05
1963.68	2.07842e-05
1972.36	1.17214e-05
1981.04	1.32609e-06
1989.72	1.91024e-06
1998.39	5.38147e-07
2007.07	6.12522e-07
2015.75	6.21682e-07
2024.43	5.70503e-07
2033.11	1.68066e-07
2041.78	-4.48923e-08
2050.46	-5.08003e-08
2059.14	-1.33942e-07
2067.82	-1.40912e-07
2076.5	-1.3189e-07
2085.18	-1.60215e-07
2093.85	-1.25233e-07
2102.53	-1.38999e-07
2111.21	-5.46929e-08
2119.89	2.58949e-08
2128.57	-1.42455e-07
2137.24	-3.13882e-08
2145.92	-1.69514e-07
2154.6	5.22046e-08
2163.28	-1.32632e-07
2171.96	-1.64064e-07
2180.64	-1.66371e-07
2189.31	-2.7874e-08
2197.99	4.24105e-07
2206.67	2.326e-06
2215.35	2.04035e-06
2224.03	1.19122e-06
2232.7	1.56948e-07
2241.38	-1.25618e-07
2250.06	-1.25218e-07
2258.74	-9.69368e-08
2267.42	2.52183e-08
2276.1	9.74898e-08
2284.77	7.16094e-08
2293.45	4.42375e-08
2302.13	1.71326e-07
2310.81	2.13457e-06
2319.49	4.07406e-06
2328.16	4.66803e-06
2336.84	4.00818e-06
2345.52	9.45234e-07
2354.2	3.86452e-07
2362.88	9.29322e-07
2371.56	7.95438e-07
2380.23	5.74134e-07
2388.91	7.30653e-07
2397.59	1.08644e-06
2406.27	9.3993e-07
2414.95	3.97228e-07
2423.62	4.61721e-07
2432.3	9.0956e-08
2440.98	-8.03187e-08
2449.66	-9.02648e-08
2458.34	-1.48283e-08
2467.02	2.99039e-09
2475.69	1.52903e-07
2484.37	1.91072e-07
2493.05	1.3221e-07
2501.73	-3.79365e-08
2510.41	-1.51091e-07
2519.09	-1.3053e-07
2527.76	-1.08273e-07
2536.44	-1.83258e-07
2545.12	-5.55369e-08
2553.8	6.52939e-08
2562.48	1.22381e-08
2571.15	1.10208e-07
2579.83	1.66313e-07
2588.51	5.29496e-07
2597.19	9.84851e-07
2605.87	1.55295e-06
2614.55	1.60837e-06
2623.22	7.38045e-07
2631.9	5.06817e-07
2640.58	2.16764e-07
2649.26	1.03822e-06
2657.94	7.49469e-07
2666.61	1.03729e-06
2675.29	2.92418e-08
2683.97	-9.53507e-08
2692.65	-2.06577e-07
2701.33	-3.41705e-07
2710.01	-1.81847e-07
2718.68	-2.6127e-07
2727.36	-2.67244e-07
2736.04	-1.35841e-07
2744.72	-1.86438e-07
2753.4	-2.26753e-07
2762.07	-2.21005e-07
2770.75	-1.87253e-07
2779.43	-2.30195e-07
2788.11	-1.50793e-07
2796.79	1.76957e-07
2805.47	1.00216e-06
2814.14	2.04108e-06
2822.82	2.22844e-06
2831.5	2.18329e-06
2840.18	2.41885e-06
2848.86	1.63195e-06
2857.53	1.29245e-06
2866.21	1.73022e-06
2874.89	2.00213e-06
2883.57	3.59034e-06
2892.25	5.26744e-06
2900.93	6.86234e-06
2909.6	3.09341e-06
2918.28	1.77784e-06
2926.96	4.48916e-07
2935.64	-1.12129e-07
2944.32	-3.19987e-07
2952.99	-1.43597e-07
2961.67	-4.27619e-07
2970.35	-3.48574e-07
2979.03	-2.215e-07
2987.71	1.27896e-07
2996.39	2.8547e-07
3005.06	8.38438e-07
3013.74	3.49871e-06
3022.42	2.36814e-05
3031.1	0.000114154
3039.78	0.000189037
3048.45	0.000219467
3057.13	0.000217751
3065.81	9.48026e-05
3074.49	0.000103562
3083.17	0.000138993
3091.85	0.000143015
3100.52	0.000158394
3109.2	0.000133963
3117.88	5.54182e-05
3126.56	5.67698e-06
3135.24	7.36532e-07
3143.91	-6.7484e-08
3152.59	-6.92884e-08
3161.27	-1.93102e-07
3169.95	-1.64777e-07
3178.63	-1.63351e-07
3187.31	-2.06956e-07
3195.98	-1.14457e-07
3204.66	-1.98887e-07
3213.34	-2.75131e-07
3222.02	-2.36008e-07
3230.7	-1.07683e-08
3239.37	-1.26288e-07
3248.05	-1.2759e-07
3256.73	-7.16894e-08
3265.41	-1.17091e-07
3274.09	-3.4073e-08
3282.77	-1.9917e-07
3291.44	-2.72031e-07
3300.12	-2.10332e-07
3308.8	-3.51353e-08
3317.48	-2.50713e-07
3326.16	-3.08018e-07
3334.83	-2.13133e-07
3343.51	-1.68939e-07
3352.19	-1.16276e-07
3360.87	-1.46493e-07
3369.55	-2.2142e-07
3378.23	-9.72206e-08
3386.9	-9.89231e-08
3395.58	-5.38053e-08
3404.26	-4.81665e-09
3412.94	-1.42971e-08
3421.62	-1.16233e-07
3430.29	1.76077e-08
3438.97	3.12282e-08
3447.65	8.45532e-08
3456.33	3.26993e-07
3465.01	5.09313e-11
3473.69	-5.45692e-10
3482.36	-2.01055e-07
3491.04	-2.44041e-07
3499.72	-1.63155e-07
3508.4	-2.8368e-07
3517.08	-1.94587e-07
3525.75	-1.85419e-07
3534.43	-2.92062e-07
3543.11	-2.49592e-07
3551.79	-2.94106e-07
3560.47	-2.8953e-07
3569.15	-1.60885e-07
3577.82	-2.39515e-07
3586.5	-2.14166e-07
3595.18	-1.70787e-07
3603.86	1.3149e-07
3612.54	2.75204e-07
3621.21	1.17103e-06
3629.89	5.26928e-07
3638.57	7.39697e-07
3647.25	2.29352e-06
3655.93	2.56067e-06
3664.61	6.10754e-07
3673.28	3.8002e-07
3681.96	4.22963e-07
3690.64	9.49934e-07
3699.32	1.64503e-06
3708	1.83695e-06
3716.67	6.39151e-07
3725.35	1.90163e-07
3734.03	-7.25989e-08
3742.71	1.68452e-07
3751.39	-1.16123e-07
3760.07	6.29074e-08
3768.74	-1.28245e-07
3777.42	-2.07676e-07
3786.1	-1.73705e-07
3794.78	-2.06155e-07
3803.46	-1.97191e-07
3812.13	-2.29555e-07
3820.81	1.82625e-09
3829.49	-2.44441e-07
3838.17	-5.04947e-09
3846.85	-1.79526e-07
3855.53	-2.10666e-07
3864.2	-2.12078e-07
3872.88	-2.34248e-07
3881.56	-2.04045e-07
3890.24	3.09553e-07
3898.92	-2.79838e-07
3907.6	-2.41283e-07
3916.27	-3.45292e-07
3924.95	-3.04133e-08
3933.63	1.44485e-07
3942.31	4.16378e-07
3950.99	7.56766e-07
3959.66	4.31039e-07
3968.34	5.28354e-07
