Infrared Spectrum: Benzene
Formula: C6 H6
CAS: 71-43-2
State: gas
Melting point: 5.5 C
Boiling point: 80.1 C
Class: IUPAC A
Instrument: IFS66V (Bruker)
Instrument parameters: KBr Beam Splitter; MCT Detector; Multipass cell
Sampling: 1 L/min Flow
Resolution: 0.4820
Temperature: 23 C
Pressure: 101.3 Pa
Origin: NIST, Analytical Chemistry Division, 301-975-3108
cm-1	(micromol/mol)-1m-1 (base 10)
575.171	-2.49614e-07
583.849	-1.74833e-07
592.527	-1.15068e-07
601.206	-2.37485e-08
609.884	7.02852e-09
618.562	-2.58374e-07
627.24	6.1867e-08
635.918	3.40257e-06
644.597	3.99108e-05
653.275	0.000187918
661.953	0.000289126
670.631	0.000181043
679.309	0.000155647
687.987	0.000347423
696.666	0.000144668
705.344	2.22059e-05
714.022	2.22573e-06
722.7	3.78398e-07
731.378	4.98101e-07
740.057	1.1397e-07
748.735	2.18735e-07
757.413	5.75124e-07
766.091	1.07204e-06
774.769	4.83222e-07
783.448	8.13649e-07
792.126	1.07859e-06
800.804	5.73123e-07
809.482	1.88861e-07
818.16	-4.5518e-08
826.838	6.82479e-08
835.517	-3.04715e-08
844.195	-5.82436e-08
852.873	6.23908e-08
861.551	-4.94325e-08
870.229	-6.672e-08
878.908	-6.50538e-08
887.586	-1.26746e-08
896.264	-1.15527e-07
904.942	-1.00728e-07
913.62	-7.67025e-08
922.299	-1.13278e-07
930.977	-9.31388e-08
939.655	-1.70976e-07
948.333	-3.96755e-08
957.011	-1.12093e-07
965.689	2.00233e-08
974.368	4.47686e-08
983.046	1.61234e-07
991.724	5.57239e-07
1000.4	1.39902e-06
1009.08	5.88745e-06
1017.76	2.26097e-05
1026.44	3.18956e-05
1035.11	4.46287e-05
1043.79	1.78094e-05
1052.47	2.99428e-05
1061.15	1.03911e-05
1069.83	1.17026e-06
1078.51	-1.59924e-08
1087.18	-1.13504e-08
1095.86	3.40949e-08
1104.54	-1.49971e-07
1113.22	-8.91443e-08
1121.9	-6.06956e-08
1130.58	-1.23778e-07
1139.25	-1.40971e-07
1147.93	-9.37645e-08
1156.61	-1.09699e-07
1165.29	-1.24993e-07
1173.97	-9.0112e-08
1182.64	-1.03318e-09
1191.32	3.27932e-07
1200	2.39159e-08
1208.68	7.61205e-08
1217.36	1.05886e-07
1226.04	5.36037e-07
1234.71	1.1939e-06
1243.39	1.04028e-06
1252.07	1.1046e-06
1260.75	2.3782e-07
1269.43	-1.20794e-07
1278.1	-1.7647e-07
1286.78	-2.58898e-07
1295.46	-1.87049e-07
1304.14	-1.53631e-07
1312.82	-2.0235e-07
1321.5	-2.54722e-07
1330.17	-2.10485e-07
1338.85	-2.01448e-07
1347.53	-1.45394e-07
1356.21	-8.06897e-08
1364.89	2.63489e-07
1373.56	2.45334e-06
1382.24	3.71427e-06
1390.92	3.34192e-06
1399.6	3.28649e-06
1408.28	3.56985e-07
1416.96	-8.06315e-08
1425.63	-1.00757e-07
1434.31	-1.11983e-07
1442.99	2.37558e-08
1451.67	1.2727e-06
1460.35	1.3376e-05
1469.02	5.29312e-05
1477.7	5.61455e-05
1486.38	5.78742e-05
1495.06	6.2214e-05
1503.74	2.81137e-05
1512.42	1.6255e-05
1521.09	1.284e-05
1529.77	1.25446e-05
1538.45	2.82311e-06
1547.13	1.34313e-07
1555.81	-8.12573e-08
1564.48	-9.64057e-09
1573.16	3.11991e-08
1581.84	3.74854e-08
1590.52	8.03041e-08
1599.2	3.04817e-07
1607.88	6.82108e-07
1616.55	9.6143e-07
1625.23	5.93211e-07
1633.91	9.03841e-07
1642.59	4.41065e-07
1651.27	3.2815e-07
1659.94	8.78747e-07
1668.62	9.74941e-07
1677.3	1.15367e-06
1685.98	5.81002e-07
1694.66	1.22111e-07
1703.34	-2.37995e-08
1712.01	-9.87121e-08
1720.69	-2.70663e-08
1729.37	2.51382e-07
1738.05	9.93015e-07
1746.73	9.94899e-07
1755.4	2.41603e-06
1764.08	1.20731e-06
1772.76	2.11771e-06
1781.44	2.67576e-06
1790.12	7.67449e-06
1798.8	2.64897e-05
1807.47	3.08712e-05
1816.15	2.87976e-05
1824.83	2.32323e-05
1833.51	2.88681e-06
1842.19	2.80006e-07
1850.86	8.59211e-08
1859.54	2.29817e-07
1868.22	5.5155e-07
1876.9	6.08695e-07
1885.58	6.82421e-07
1894.26	2.28754e-07
1902.93	2.41996e-08
1911.61	7.43233e-08
1920.29	2.39122e-07
1928.97	1.54906e-06
1937.65	6.67015e-06
1946.32	1.97399e-05
1955	2.11437e-05
1963.68	2.07835e-05
1972.36	1.17197e-05
1981.04	1.3251e-06
1989.72	1.91516e-06
1998.39	5.36401e-07
2007.07	6.08651e-07
2015.75	6.2019e-07
2024.43	5.68946e-07
2033.11	1.67564e-07
2041.78	-4.56417e-08
2050.46	-5.21245e-08
2059.14	-1.35885e-07
2067.82	-1.41946e-07
2076.5	-1.32792e-07
2085.18	-1.62122e-07
2093.85	-1.26288e-07
2102.53	-1.40243e-07
2111.21	-5.58207e-08
2119.89	2.70081e-08
2128.57	-1.43139e-07
2137.24	-3.33163e-08
2145.92	-1.70896e-07
2154.6	5.31213e-08
2163.28	-1.32458e-07
2171.96	-1.64486e-07
2180.64	-1.66785e-07
2189.31	-2.87762e-08
2197.99	4.23617e-07
2206.67	2.32466e-06
2215.35	2.03988e-06
2224.03	1.19e-06
2232.7	1.56126e-07
2241.38	-1.27074e-07
2250.06	-1.26113e-07
2258.74	-9.73734e-08
2267.42	2.3523e-08
2276.1	9.61801e-08
2284.77	7.04162e-08
2293.45	4.31388e-08
2302.13	1.70314e-07
2310.81	2.13344e-06
2319.49	4.07344e-06
2328.16	4.66478e-06
2336.84	4.00819e-06
2345.52	9.4236e-07
2354.2	3.88591e-07
2362.88	9.33665e-07
2371.56	7.96711e-07
2380.23	5.7225e-07
2388.91	7.297e-07
2397.59	1.08632e-06
2406.27	9.39275e-07
2414.95	3.96711e-07
2423.62	4.60826e-07
2432.3	9.08614e-08
2440.98	-8.16647e-08
2449.66	-9.07232e-08
2458.34	-1.48792e-08
2467.02	1.75349e-09
2475.69	1.52707e-07
2484.37	1.90949e-07
2493.05	1.32429e-07
2501.73	-3.74054e-08
2510.41	-1.51171e-07
2519.09	-1.3053e-07
2527.76	-1.07814e-07
2536.44	-1.83185e-07
2545.12	-5.46347e-08
2553.8	6.48355e-08
2562.48	1.13359e-08
2571.15	1.10666e-07
2579.83	1.67237e-07
2588.51	5.29067e-07
2597.19	9.85586e-07
2605.87	1.55135e-06
2614.55	1.60908e-06
2623.22	7.37434e-07
2631.9	5.07028e-07
2640.58	2.17586e-07
2649.26	1.03992e-06
2657.94	7.49127e-07
2666.61	1.03691e-06
2675.29	2.90745e-08
2683.97	-9.47613e-08
2692.65	-2.06708e-07
2701.33	-3.41851e-07
2710.01	-1.82181e-07
2718.68	-2.61329e-07
2727.36	-2.66429e-07
2736.04	-1.35215e-07
2744.72	-1.85776e-07
2753.4	-2.25167e-07
2762.07	-2.21631e-07
2770.75	-1.87427e-07
2779.43	-2.30195e-07
2788.11	-1.49942e-07
2796.79	1.77168e-07
2805.47	1.00256e-06
2814.14	2.04084e-06
2822.82	2.2279e-06
2831.5	2.18292e-06
2840.18	2.41964e-06
2848.86	1.63188e-06
2857.53	1.29384e-06
2866.21	1.73011e-06
2874.89	2.0032e-06
2883.57	3.59165e-06
2892.25	5.26695e-06
2900.93	6.86311e-06
2909.6	3.09398e-06
2918.28	1.77752e-06
2926.96	4.48159e-07
2935.64	-1.11489e-07
2944.32	-3.20278e-07
2952.99	-1.41836e-07
2961.67	-4.28478e-07
2970.35	-3.49345e-07
2979.03	-2.22133e-07
2987.71	1.29278e-07
2996.39	2.87718e-07
3005.06	8.39777e-07
3013.74	3.49977e-06
3022.42	2.36806e-05
3031.1	0.000114153
3039.78	0.000189042
3048.45	0.000219495
3057.13	0.000217755
3065.81	9.47992e-05
3074.49	0.000103567
3083.17	0.000139004
3091.85	0.000143025
3100.52	0.000158692
3109.2	0.00013397
3117.88	5.54174e-05
3126.56	5.67802e-06
3135.24	7.37689e-07
3143.91	-6.72293e-08
3152.59	-6.66836e-08
3161.27	-1.92666e-07
3169.95	-1.63875e-07
3178.63	-1.62813e-07
3187.31	-2.06461e-07
3195.98	-1.12871e-07
3204.66	-1.96682e-07
3213.34	-2.74578e-07
3222.02	-2.35994e-07
3230.7	-9.24767e-09
3239.37	-1.25873e-07
3248.05	-1.26841e-07
3256.73	-6.9936e-08
3265.41	-1.1437e-07
3274.09	-3.08425e-08
3282.77	-1.98072e-07
3291.44	-2.71413e-07
3300.12	-2.1159e-07
3308.8	-3.17666e-08
3317.48	-2.50102e-07
3326.16	-3.06854e-07
3334.83	-2.12216e-07
3343.51	-1.65585e-07
3352.19	-1.14574e-07
3360.87	-1.44739e-07
3369.55	-2.19376e-07
3378.23	-9.4594e-08
3386.9	-9.86103e-08
3395.58	-5.29904e-08
3404.26	-2.92491e-09
3412.94	-1.11758e-08
3421.62	-1.12158e-07
3430.29	1.97832e-08
3438.97	3.2014e-08
3447.65	8.49025e-08
3456.33	3.25393e-07
3465.01	1.91356e-09
3473.69	1.77532e-09
3482.36	-1.99738e-07
3491.04	-2.42637e-07
3499.72	-1.60055e-07
3508.4	-2.8296e-07
3517.08	-1.92622e-07
3525.75	-1.82945e-07
3534.43	-2.90418e-07
3543.11	-2.46282e-07
3551.79	-2.92367e-07
3560.47	-2.88795e-07
3569.15	-1.58316e-07
3577.82	-2.37063e-07
3586.5	-2.11838e-07
3595.18	-1.68415e-07
3603.86	1.34291e-07
3612.54	2.78325e-07
3621.21	1.17791e-06
3629.89	5.30515e-07
3638.57	7.42498e-07
3647.25	2.29702e-06
3655.93	2.56184e-06
3664.61	6.11336e-07
3673.28	3.82909e-07
3681.96	4.27525e-07
3690.64	9.52495e-07
3699.32	1.64783e-06
3708	1.84171e-06
3716.67	6.42025e-07
3725.35	1.93757e-07
3734.03	-6.96595e-08
3742.71	1.72082e-07
3751.39	-1.13577e-07
3760.07	6.72075e-08
3768.74	-1.24847e-07
3777.42	-2.04897e-07
3786.1	-1.70474e-07
3794.78	-2.03791e-07
3803.46	-1.94521e-07
3812.13	-2.27721e-07
3820.81	6.77386e-09
3829.49	-2.40192e-07
3838.17	-1.22235e-09
3846.85	-1.75284e-07
3855.53	-2.08527e-07
3864.2	-2.08513e-07
3872.88	-2.29453e-07
3881.56	-2.01004e-07
3890.24	3.17768e-07
3898.92	-2.77532e-07
3907.6	-2.37456e-07
3916.27	-3.43881e-07
3924.95	-2.59604e-08
3933.63	1.49112e-07
3942.31	4.20678e-07
3950.99	7.60215e-07
3959.66	4.34822e-07
3968.34	5.31075e-07
