Infrared Spectrum: Benzene
Formula: C6 H6
CAS: 71-43-2
State: gas
Melting point: 5.5 C
Boiling point: 80.1 C
Class: IUPAC A
Instrument: IFS66V (Bruker)
Instrument parameters: KBr Beam Splitter; MCT Detector; Multipass cell
Sampling: 1 L/min Flow
Resolution: 0.4820
Temperature: 23 C
Pressure: 101.3 Pa
Origin: NIST, Analytical Chemistry Division, 301-975-3108
cm-1	(micromol/mol)-1m-1 (base 10)
575.171	-1.11903e-08
583.849	-3.1541e-08
592.527	6.33149e-08
601.206	2.06919e-07
609.884	2.37464e-07
618.562	6.9594e-08
627.24	4.07305e-07
635.918	3.90999e-06
644.597	4.05307e-05
653.275	0.000188794
661.953	0.000290791
670.631	0.000179635
679.309	0.000152733
687.987	0.000345973
696.666	0.000143861
705.344	2.16259e-05
714.022	1.78687e-06
722.7	2.41269e-08
731.378	1.63868e-07
740.057	-1.51295e-07
748.735	-2.54511e-08
757.413	3.65861e-07
766.091	8.77896e-07
774.769	3.23617e-07
783.448	6.67615e-07
792.126	9.0785e-07
800.804	4.27117e-07
809.482	5.93495e-08
818.16	-1.45387e-07
826.838	-7.91254e-08
835.517	-1.51019e-07
844.195	-1.64646e-07
852.873	-6.55922e-08
861.551	-1.50786e-07
870.229	-1.58629e-07
878.908	-1.48814e-07
887.586	-1.00335e-07
896.264	-1.89326e-07
904.942	-1.84626e-07
913.62	-1.47126e-07
922.299	-1.72926e-07
930.977	-1.53172e-07
939.655	-2.2329e-07
948.333	-1.14741e-07
957.011	-1.54438e-07
965.689	-4.60128e-08
974.368	-2.94892e-08
983.046	1.09138e-07
991.724	4.96245e-07
1000.4	1.33981e-06
1009.08	5.83306e-06
1017.76	2.25548e-05
1026.44	3.18426e-05
1035.11	4.47128e-05
1043.79	1.77836e-05
1052.47	2.98964e-05
1061.15	1.0364e-05
1069.83	1.11067e-06
1078.51	-6.01571e-08
1087.18	-6.00553e-08
1095.86	-1.90338e-08
1104.54	-1.73836e-07
1113.22	-1.31803e-07
1121.9	-1.15323e-07
1130.58	-1.63642e-07
1139.25	-1.94805e-07
1147.93	-1.27721e-07
1156.61	-1.52677e-07
1165.29	-1.58578e-07
1173.97	-1.18721e-07
1182.64	-3.34837e-08
1191.32	2.83738e-07
1200	-1.50393e-08
1208.68	4.38955e-08
1217.36	7.73428e-08
1226.04	5.09626e-07
1234.71	1.16078e-06
1243.39	1.01464e-06
1252.07	1.07575e-06
1260.75	2.12027e-07
1269.43	-1.52976e-07
1278.1	-2.01317e-07
1286.78	-2.66065e-07
1295.46	-2.09473e-07
1304.14	-1.81272e-07
1312.82	-2.23217e-07
1321.5	-2.72417e-07
1330.17	-2.41589e-07
1338.85	-2.1859e-07
1347.53	-1.88097e-07
1356.21	-1.15847e-07
1364.89	2.35666e-07
1373.56	2.44195e-06
1382.24	3.69656e-06
1390.92	3.31883e-06
1399.6	3.28252e-06
1408.28	3.48428e-07
1416.96	-9.25203e-08
1425.63	-1.30981e-07
1434.31	-1.27183e-07
1442.99	4.82392e-09
1451.67	1.25473e-06
1460.35	1.33518e-05
1469.02	5.29079e-05
1477.7	5.61401e-05
1486.38	5.79863e-05
1495.06	6.21445e-05
1503.74	2.80917e-05
1512.42	1.62095e-05
1521.09	1.27891e-05
1529.77	1.25251e-05
1538.45	2.82901e-06
1547.13	1.23501e-07
1555.81	-9.91487e-08
1564.48	-1.3686e-08
1573.16	1.59779e-08
1581.84	2.39159e-08
1590.52	6.00626e-08
1599.2	2.82865e-07
1607.88	6.70576e-07
1616.55	9.07989e-07
1625.23	5.76077e-07
1633.91	8.94652e-07
1642.59	4.35848e-07
1651.27	3.16254e-07
1659.94	8.56235e-07
1668.62	9.6987e-07
1677.3	1.14005e-06
1685.98	5.63075e-07
1694.66	1.08957e-07
1703.34	-3.06388e-08
1712.01	-1.0967e-07
1720.69	-3.57829e-08
1729.37	2.39755e-07
1738.05	9.83731e-07
1746.73	9.80915e-07
1755.4	2.47924e-06
1764.08	1.20194e-06
1772.76	2.03144e-06
1781.44	2.65714e-06
1790.12	7.66526e-06
1798.8	2.64666e-05
1807.47	3.08674e-05
1816.15	2.88123e-05
1824.83	2.32247e-05
1833.51	2.873e-06
1842.19	2.60914e-07
1850.86	7.74956e-08
1859.54	2.21398e-07
1868.22	5.37165e-07
1876.9	5.95169e-07
1885.58	6.70751e-07
1894.26	2.12507e-07
1902.93	1.61962e-08
1911.61	6.38096e-08
1920.29	2.28529e-07
1928.97	1.53468e-06
1937.65	6.66958e-06
1946.32	1.97198e-05
1955	2.11161e-05
1963.68	2.07625e-05
1972.36	1.17161e-05
1981.04	1.31576e-06
1989.72	1.8446e-06
1998.39	5.45831e-07
2007.07	5.94834e-07
2015.75	6.16844e-07
2024.43	5.69477e-07
2033.11	1.53572e-07
2041.78	-5.79307e-08
2050.46	-6.18306e-08
2059.14	-1.42113e-07
2067.82	-1.49622e-07
2076.5	-1.47177e-07
2085.18	-1.68728e-07
2093.85	-1.29598e-07
2102.53	-1.48799e-07
2111.21	-4.23967e-08
2119.89	2.39741e-08
2128.57	-1.51783e-07
2137.24	-2.79467e-08
2145.92	-1.70423e-07
2154.6	1.15469e-08
2163.28	-1.51135e-07
2171.96	-1.63671e-07
2180.64	-1.68001e-07
2189.31	-2.97293e-08
2197.99	4.17331e-07
2206.67	2.33132e-06
2215.35	2.04493e-06
2224.03	1.18511e-06
2232.7	1.49476e-07
2241.38	-1.20576e-07
2250.06	-1.29366e-07
2258.74	-1.06061e-07
2267.42	2.63169e-08
2276.1	9.12616e-08
2284.77	5.92913e-08
2293.45	4.4805e-08
2302.13	1.66152e-07
2310.81	2.14245e-06
2319.49	4.08243e-06
2328.16	4.70391e-06
2336.84	4.01993e-06
2345.52	9.54365e-07
2354.2	3.72504e-07
2362.88	8.54991e-07
2371.56	7.69332e-07
2380.23	5.86358e-07
2388.91	7.3133e-07
2397.59	1.09883e-06
2406.27	9.38147e-07
2414.95	3.8806e-07
2423.62	4.59175e-07
2432.3	8.54918e-08
2440.98	-6.90119e-08
2449.66	-8.32508e-08
2458.34	-2.35375e-08
2467.02	-2.17549e-09
2475.69	1.48872e-07
2484.37	1.84211e-07
2493.05	1.28602e-07
2501.73	-4.93233e-08
2510.41	-1.63038e-07
2519.09	-1.36911e-07
2527.76	-1.15854e-07
2536.44	-1.82902e-07
2545.12	-5.99971e-08
2553.8	7.09764e-08
2562.48	1.65527e-08
2571.15	1.0299e-07
2579.83	1.58127e-07
2588.51	5.34153e-07
2597.19	9.86175e-07
2605.87	1.55946e-06
2614.55	1.601e-06
2623.22	7.39435e-07
2631.9	5.05988e-07
2640.58	2.13657e-07
2649.26	1.02077e-06
2657.94	7.45183e-07
2666.61	1.05256e-06
2675.29	2.68699e-08
2683.97	-9.97744e-08
2692.65	-1.95365e-07
2701.33	-3.33891e-07
2710.01	-1.89275e-07
2718.68	-2.57174e-07
2727.36	-2.57843e-07
2736.04	-1.38118e-07
2744.72	-1.92084e-07
2753.4	-2.31585e-07
2762.07	-2.12835e-07
2770.75	-1.82887e-07
2779.43	-2.20554e-07
2788.11	-1.31759e-07
2796.79	1.86307e-07
2805.47	1.00744e-06
2814.14	2.04753e-06
2822.82	2.22818e-06
2831.5	2.1908e-06
2840.18	2.42371e-06
2848.86	1.63074e-06
2857.53	1.29411e-06
2866.21	1.7373e-06
2874.89	2.0022e-06
2883.57	3.5945e-06
2892.25	5.28964e-06
2900.93	6.88318e-06
2909.6	3.09853e-06
2918.28	1.79537e-06
2926.96	4.67549e-07
2935.64	-9.57654e-08
2944.32	-2.98748e-07
2952.99	-1.44136e-07
2961.67	-4.22592e-07
2970.35	-3.32094e-07
2979.03	-1.93364e-07
2987.71	1.13941e-07
2996.39	2.84808e-07
3005.06	8.426e-07
3013.74	3.50587e-06
3022.42	2.36986e-05
3031.1	0.000114171
3039.78	0.000189049
3048.45	0.000219541
3057.13	0.000217653
3065.81	9.48115e-05
3074.49	0.000103547
3083.17	0.000138885
3091.85	0.000142948
3100.52	0.000155483
3109.2	0.000133955
3117.88	5.54611e-05
3126.56	5.68792e-06
3135.24	7.37522e-07
3143.91	-5.50931e-08
3152.59	-7.03216e-08
3161.27	-1.75313e-07
3169.95	-1.78623e-07
3178.63	-1.59291e-07
3187.31	-1.84422e-07
3195.98	-1.36227e-07
3204.66	-1.91291e-07
3213.34	-2.48523e-07
3222.02	-2.14668e-07
3230.7	-4.53289e-09
3239.37	-1.08389e-07
3248.05	-1.00356e-07
3256.73	-5.45838e-08
3265.41	-1.01608e-07
3274.09	-3.67651e-08
3282.77	-1.87784e-07
3291.44	-2.69936e-07
3300.12	-1.9172e-07
3308.8	-4.97817e-08
3317.48	-2.30893e-07
3326.16	-2.86358e-07
3334.83	-2.05115e-07
3343.51	-1.68168e-07
3352.19	-1.19616e-07
3360.87	-1.35281e-07
3369.55	-2.09313e-07
3378.23	-1.08833e-07
3386.9	-1.15083e-07
3395.58	-4.73225e-08
3404.26	9.51688e-09
3412.94	-2.28827e-08
3421.62	-1.10957e-07
3430.29	1.34604e-08
3438.97	6.8408e-08
3447.65	9.94761e-08
3456.33	3.32399e-07
3465.01	7.73428e-09
3473.69	1.6007e-10
3482.36	-1.85666e-07
3491.04	-2.38198e-07
3499.72	-1.61685e-07
3508.4	-2.51928e-07
3517.08	-1.72563e-07
3525.75	-1.75909e-07
3534.43	-2.71005e-07
3543.11	-2.50102e-07
3551.79	-2.72788e-07
3560.47	-2.58425e-07
3569.15	-1.39392e-07
3577.82	-2.219e-07
3586.5	-1.77088e-07
3595.18	-1.51135e-07
3603.86	1.2532e-07
3612.54	2.76994e-07
3621.21	1.14157e-06
3629.89	5.45285e-07
3638.57	7.46427e-07
3647.25	2.30205e-06
3655.93	2.60214e-06
3664.61	6.57814e-07
3673.28	3.87318e-07
3681.96	4.37755e-07
3690.64	9.60935e-07
3699.32	1.66999e-06
3708	1.85581e-06
3716.67	6.70096e-07
3725.35	2.133e-07
3734.03	-2.17331e-08
3742.71	1.71457e-07
3751.39	-8.25305e-08
3760.07	6.98705e-08
3768.74	-1.12565e-07
3777.42	-1.78376e-07
3786.1	-1.61583e-07
3794.78	-1.78652e-07
3803.46	-1.68961e-07
3812.13	-2.02088e-07
3820.81	6.50465e-09
3829.49	-2.11445e-07
3838.17	5.21027e-08
3846.85	-1.46398e-07
3855.53	-1.98938e-07
3864.2	-1.92309e-07
3872.88	-1.99753e-07
3881.56	-1.74585e-07
3890.24	2.96435e-07
3898.92	-2.35346e-07
3907.6	-2.219e-07
3916.27	-2.96849e-07
3924.95	4.49651e-09
3933.63	1.86016e-07
3942.31	4.39341e-07
3950.99	7.99723e-07
3959.66	4.80842e-07
3968.34	5.69208e-07
