Infrared Spectrum: Benzene
Formula: C6 H6
CAS: 71-43-2
State: gas
Melting point: 5.5 C
Boiling point: 80.1 C
Class: IUPAC A
Instrument: IFS66V (Bruker)
Instrument parameters: KBr Beam Splitter; MCT Detector; Multipass cell
Sampling: 1 L/min Flow
Resolution: 0.1250
Temperature: 23 C
Pressure: 101.3 Pa
Origin: NIST, Analytical Chemistry Division, 301-975-3108
cm-1	(micromol/mol)-1m-1 (base 10)
575.05	8.73016e-07
583.608	6.56236e-07
592.165	1.98025e-07
600.723	1.45786e-07
609.281	5.40133e-07
617.838	-6.0001e-07
626.396	-1.37856e-07
634.954	3.24754e-06
643.511	3.08169e-05
652.069	0.000163175
660.627	0.000318979
669.184	9.34984e-05
677.742	0.000103892
686.3	0.000356296
694.857	0.000196883
703.415	3.56162e-05
711.973	3.18993e-06
720.53	2.13594e-07
729.088	1.88596e-07
737.645	-1.25444e-07
746.203	1.669e-08
754.761	1.05931e-08
763.318	7.11835e-07
771.876	6.28778e-07
780.434	1.48129e-06
788.991	6.1721e-07
797.549	1.00006e-06
806.107	-1.55972e-07
814.664	-2.05489e-07
823.222	-4.27508e-08
831.78	-6.67745e-08
840.337	1.22403e-07
848.895	-1.61181e-07
857.453	-1.27845e-07
866.01	-1.69155e-07
874.568	-2.90147e-08
883.126	-1.30901e-07
891.683	-2.69732e-07
900.241	-1.41843e-07
908.799	-2.22368e-07
917.356	-1.0388e-07
925.914	-7.25367e-08
934.472	-3.02486e-07
943.029	-1.19013e-07
951.587	-1.3822e-07
960.145	-1.85598e-07
968.702	4.56028e-08
977.26	-8.57054e-09
985.818	4.95607e-08
994.375	8.0192e-07
1002.93	1.91218e-06
1011.49	8.70503e-06
1020.05	2.78665e-05
1028.61	2.80231e-05
1037.16	8.29093e-05
1045.72	2.37776e-05
1054.28	2.73504e-05
1062.84	7.39661e-06
1071.39	4.38363e-07
1079.95	-5.72e-08
1088.51	-2.74694e-07
1097.07	-3.05033e-07
1105.62	-1.42134e-07
1114.18	7.61599e-08
1122.74	-1.98476e-08
1131.3	-1.95493e-07
1139.86	-1.37187e-07
1148.41	-1.94707e-07
1156.97	-8.48178e-08
1165.53	-1.48842e-07
1174.09	-9.10311e-08
1182.64	3.86184e-08
1191.2	3.24036e-07
1199.76	2.10989e-08
1208.32	-1.55696e-09
1216.87	8.12673e-08
1225.43	2.42274e-07
1233.99	1.04121e-06
1242.55	1.03143e-06
1251.1	1.09636e-06
1259.66	3.76725e-07
1268.22	-1.64281e-07
1276.78	-2.28203e-07
1285.34	-2.88299e-07
1293.89	-2.82828e-07
1302.45	-2.06799e-07
1311.01	-2.68189e-07
1319.57	-1.55754e-07
1328.12	-2.39408e-07
1336.68	-7.65965e-08
1345.24	-2.04427e-07
1353.8	-4.28425e-07
1362.35	-4.21688e-08
1370.91	1.525e-06
1379.47	3.85524e-06
1388.03	3.5824e-06
1396.59	3.70234e-06
1405.14	1.21603e-06
1413.7	-9.30973e-08
1422.26	-1.64703e-07
1430.82	-9.47416e-08
1439.37	-1.16554e-07
1447.93	5.94859e-07
1456.49	5.52605e-06
1465.05	3.32151e-05
1473.6	6.18773e-05
1482.16	9.19028e-05
1490.72	5.27522e-05
1499.28	4.78449e-05
1507.83	2.01504e-05
1516.39	1.35319e-05
1524.95	1.23163e-05
1533.51	8.24508e-06
1542.07	1.46083e-06
1550.62	-3.13283e-08
1559.18	2.2263e-08
1567.74	-1.40912e-07
1576.3	7.54717e-07
1584.85	-2.45766e-08
1593.41	1.16495e-07
1601.97	3.9116e-07
1610.53	7.05782e-07
1619.08	6.90489e-07
1627.64	5.30399e-07
1636.2	9.73345e-07
1644.76	4.05667e-07
1653.31	1.66997e-06
1661.87	8.22946e-07
1670.43	1.02406e-06
1678.99	1.18732e-06
1687.55	3.9813e-07
1696.1	5.00307e-07
1704.66	5.86551e-08
1713.22	1.08987e-07
1721.78	-7.96085e-08
1730.33	3.11697e-07
1738.89	1.05925e-06
1747.45	8.72623e-07
1756.01	2.35531e-06
1764.56	1.36125e-06
1773.12	1.71037e-06
1781.68	2.71506e-06
1790.24	7.75858e-06
1798.79	2.66367e-05
1807.35	3.108e-05
1815.91	2.85113e-05
1824.47	2.45469e-05
1833.03	3.20352e-06
1841.58	3.32287e-07
1850.14	9.09874e-08
1858.7	2.63941e-07
1867.26	3.89137e-07
1875.81	4.93483e-07
1884.37	4.66898e-07
1892.93	2.12372e-07
1901.49	1.60352e-07
1910.04	1.80432e-08
1918.6	1.66391e-07
1927.16	1.11445e-06
1935.72	4.87159e-06
1944.28	1.67655e-05
1952.83	2.15053e-05
1961.39	1.85149e-05
1969.95	1.73821e-05
1978.51	2.57429e-06
1987.06	8.83013e-07
1995.62	4.9827e-07
2004.18	7.93641e-07
2012.74	4.32587e-07
2021.29	6.71572e-07
2029.85	1.13862e-07
2038.41	-3.39475e-08
2046.97	-9.61239e-08
2055.52	-1.26405e-07
2064.08	-6.32823e-08
2072.64	-2.92373e-07
2081.2	-6.99758e-08
2089.76	-1.53207e-07
2098.31	-1.65794e-07
2106.87	-1.85191e-07
2115.43	-6.40826e-08
2123.99	-1.98199e-07
2132.54	-1.06673e-07
2141.1	-1.28558e-07
2149.66	-1.85627e-07
2158.22	1.77624e-07
2166.77	-8.2315e-08
2175.33	-2.08618e-07
2183.89	-3.03825e-08
2192.45	1.40373e-07
2201	9.75455e-07
2209.56	2.98555e-06
2218.12	3.21504e-06
2226.68	6.88655e-07
2235.24	-1.27903e-08
2243.79	-1.07677e-07
2252.35	-1.49482e-07
2260.91	-5.37514e-08
2269.47	1.38293e-07
2278.02	1.10209e-07
2286.58	1.38729e-07
2295.14	5.89461e-08
2303.7	4.17628e-07
2312.25	2.75223e-06
2320.81	3.83334e-06
2329.37	4.29944e-06
2337.93	3.78864e-06
2346.49	8.02648e-07
2355.04	1.70319e-07
2363.6	5.74299e-07
2372.16	7.33647e-07
2380.72	8.1506e-07
2389.27	6.44042e-07
2397.83	1.1465e-06
2406.39	9.31482e-07
2414.95	3.35968e-07
2423.5	4.48666e-07
2432.06	5.51774e-08
2440.62	3.53444e-08
2449.18	3.36856e-08
2457.73	1.67191e-08
2466.29	3.5388e-08
2474.85	5.15396e-08
2483.41	1.69679e-07
2491.97	3.93314e-08
2500.52	-1.01755e-07
2509.08	-6.87244e-08
2517.64	-1.89017e-07
2526.2	-1.91666e-07
2534.75	-1.41057e-07
2543.31	-3.22305e-08
2551.87	6.53485e-08
2560.43	9.69533e-08
2568.98	-4.9648e-08
2577.54	7.72949e-08
2586.1	3.36972e-07
2594.66	8.24983e-07
2603.21	1.50472e-06
2611.77	2.24292e-06
2620.33	7.04225e-07
2628.89	5.55557e-07
2637.45	3.10053e-07
2646	5.30224e-07
2654.56	8.92442e-07
2663.12	1.20111e-06
2671.68	2.39524e-07
2680.23	-4.33183e-08
2688.79	-1.18984e-07
2697.35	-2.00775e-07
2705.91	-2.48473e-07
2714.46	-2.45388e-07
2723.02	-1.72939e-07
2731.58	-2.95123e-07
2740.14	-1.30202e-07
2748.69	-3.76071e-07
2757.25	-1.18751e-07
2765.81	-2.71915e-07
2774.37	-1.10384e-07
2782.93	-1.17005e-07
2791.48	-1.07546e-07
2800.04	4.48258e-07
2808.6	1.27021e-06
2817.16	2.18821e-06
2825.71	2.69933e-06
2834.27	2.16293e-06
2842.83	2.16309e-06
2851.39	1.68611e-06
2859.94	1.1778e-06
2868.5	1.85594e-06
2877.06	2.44986e-06
2885.62	3.71368e-06
2894.18	6.32199e-06
2902.73	5.22378e-06
2911.29	2.84481e-06
2919.85	1.4538e-06
2928.41	1.94198e-07
2936.96	6.01684e-08
2945.52	-2.12721e-07
2954.08	-1.14851e-07
2962.64	-4.00938e-07
2971.19	-2.19575e-07
2979.75	-1.97021e-07
2988.31	1.75427e-07
2996.87	2.5147e-07
3005.42	9.72793e-07
3013.98	3.68171e-06
3022.54	2.43584e-05
3031.1	0.000114184
3039.66	0.000189154
3048.21	0.00022797
3056.77	0.000218446
3065.33	9.92769e-05
3073.89	0.000104461
3082.44	0.000141042
3091	0.000143393
3099.56	0.000139694
3108.12	0.000129543
3116.67	7.06693e-05
3125.23	7.9304e-06
3133.79	1.07762e-06
3142.35	2.97713e-08
3150.9	-1.49628e-07
3159.46	-1.96686e-07
3168.02	-5.35331e-08
3176.58	-3.15218e-07
3185.14	-2.76702e-07
3193.69	-3.06953e-07
3202.25	-1.20031e-07
3210.81	-1.50617e-07
3219.37	-2.87208e-07
3227.92	-1.84943e-07
3236.48	-3.56252e-07
3245.04	-9.1715e-08
3253.6	-3.55335e-08
3262.15	-2.77691e-07
3270.71	-2.09753e-07
3279.27	-2.47105e-07
3287.83	-3.76798e-07
3296.38	-2.343e-07
3304.94	-1.28689e-07
3313.5	-5.64142e-08
3322.06	-1.63859e-07
3330.62	-3.65696e-07
3339.17	-1.72124e-07
3347.73	-9.03326e-08
3356.29	-6.97575e-08
3364.85	-3.27965e-07
3373.4	7.65383e-09
3381.96	-2.66094e-07
3390.52	-2.91617e-07
3399.08	-1.58519e-07
3407.63	1.05175e-07
3416.19	1.13978e-07
3424.75	-1.27932e-07
3433.31	1.29213e-07
3441.87	1.55259e-07
3450.42	8.51816e-08
3458.98	-3.6654e-08
3467.54	-3.69595e-08
3476.1	-3.05775e-07
3484.65	-1.15491e-07
3493.21	-1.82208e-07
3501.77	-6.81423e-08
3510.33	-9.70843e-08
3518.88	-3.28562e-08
3527.44	-2.87702e-07
3536	-4.20349e-07
3544.56	-1.89294e-07
3553.11	-2.49419e-07
3561.67	-1.56933e-07
3570.23	-2.57e-07
3578.79	-2.04543e-07
3587.35	-1.69359e-07
3595.9	-2.22805e-07
3604.46	1.20701e-07
3613.02	1.75863e-07
3621.58	1.09444e-06
3630.13	4.14616e-07
3638.69	8.28418e-07
3647.25	2.284e-06
3655.81	2.3509e-06
3664.36	7.63447e-07
3672.92	2.99969e-07
3681.48	1.0938e-07
3690.04	7.70563e-07
3698.59	1.59507e-06
3707.15	1.80134e-06
3715.71	8.6398e-07
3724.27	3.06095e-07
3732.83	1.19653e-07
3741.38	1.93834e-07
3749.94	-1.04636e-07
3758.5	8.53416e-08
3767.06	-8.15875e-08
3775.61	-1.79108e-07
3784.17	2.74577e-08
3792.73	-6.30931e-08
3801.29	4.6246e-07
3809.84	-2.12823e-07
3818.4	-2.73748e-07
3826.96	-3.81324e-07
3835.52	-2.33791e-07
3844.08	-3.38165e-08
3852.63	-1.04651e-07
3861.19	-8.48323e-08
3869.75	-1.21253e-07
3878.31	-3.24662e-07
3886.86	-1.32443e-07
3895.42	-2.65541e-07
3903.98	-2.67142e-07
3912.54	6.51885e-08
3921.09	2.08952e-08
3929.65	-2.5959e-08
3938.21	3.74412e-07
3946.77	8.26977e-07
3955.32	5.06782e-07
3963.88	5.04469e-07
3972.44	8.20633e-07
