Infrared Spectrum: Benzene
Formula: C6 H6
CAS: 71-43-2
State: gas
Melting point: 5.5 C
Boiling point: 80.1 C
Class: IUPAC A
Instrument: IFS66V (Bruker)
Instrument parameters: KBr Beam Splitter; MCT Detector; Multipass cell
Sampling: 1 L/min Flow
Resolution: 0.1250
Temperature: 23 C
Pressure: 101.3 Pa
Origin: NIST, Analytical Chemistry Division, 301-975-3108
cm-1	(micromol/mol)-1m-1 (base 10)
575.05	7.75437e-07
583.608	6.38425e-07
592.165	2.05577e-07
600.723	1.60498e-07
609.281	5.52371e-07
617.838	-5.27241e-07
626.396	-1.6108e-08
634.954	3.34415e-06
643.511	3.11356e-05
652.069	0.000162879
660.627	0.00031625
669.184	9.80579e-05
677.742	0.000106386
686.3	0.000354823
694.857	0.000196065
703.415	3.58123e-05
711.973	3.34133e-06
720.53	2.91078e-07
729.088	2.26355e-07
737.645	-9.97326e-08
746.203	4.13248e-08
754.761	4.17614e-08
763.318	7.44007e-07
771.876	6.54111e-07
780.434	1.62663e-06
788.991	6.30553e-07
797.549	9.7141e-07
806.107	-1.35688e-07
814.664	-1.95449e-07
823.222	-6.09978e-08
831.78	-7.90992e-08
840.337	9.67933e-08
848.895	-1.4925e-07
857.453	-1.30843e-07
866.01	-1.69475e-07
874.568	-3.25797e-08
883.126	-1.38802e-07
891.683	-2.57276e-07
900.241	-1.62869e-07
908.799	-2.04907e-07
917.356	-1.24557e-07
925.914	-7.60872e-08
934.472	-2.98092e-07
943.029	-1.23567e-07
951.587	-1.35281e-07
960.145	-1.77857e-07
968.702	4.45697e-08
977.26	-2.37181e-09
985.818	8.13401e-08
994.375	7.95241e-07
1002.93	1.92182e-06
1011.49	8.73916e-06
1020.05	2.78654e-05
1028.61	2.80343e-05
1037.16	8.24731e-05
1045.72	2.37722e-05
1054.28	2.72611e-05
1062.84	7.41285e-06
1071.39	4.67931e-07
1079.95	-5.35622e-08
1088.51	-2.67389e-07
1097.07	-2.94818e-07
1105.62	-1.32239e-07
1114.18	6.51594e-08
1122.74	-4.10775e-08
1131.3	-1.92612e-07
1139.86	-1.37943e-07
1148.41	-1.98126e-07
1156.97	-9.44505e-08
1165.53	-1.47256e-07
1174.09	-9.48434e-08
1182.64	2.66283e-08
1191.2	3.13938e-07
1199.76	1.50166e-08
1208.32	-1.22228e-09
1216.87	7.40646e-08
1225.43	2.60914e-07
1233.99	1.04732e-06
1242.55	1.03418e-06
1251.1	1.08888e-06
1259.66	3.68417e-07
1268.22	-1.61225e-07
1276.78	-2.26865e-07
1285.34	-2.84297e-07
1293.89	-2.76978e-07
1302.45	-2.07003e-07
1311.01	-2.59546e-07
1319.57	-1.5862e-07
1328.12	-2.40615e-07
1336.68	-7.60726e-08
1345.24	-2.07294e-07
1353.8	-4.11982e-07
1362.35	-3.34236e-08
1370.91	1.52896e-06
1379.47	3.84865e-06
1388.03	3.59325e-06
1396.59	3.70391e-06
1405.14	1.22499e-06
1413.7	-8.15147e-08
1422.26	-1.52029e-07
1430.82	-9.10165e-08
1439.37	-9.52508e-08
1447.93	6.05074e-07
1456.49	5.55294e-06
1465.05	3.32074e-05
1473.6	6.17957e-05
1482.16	9.14719e-05
1490.72	5.27579e-05
1499.28	4.77907e-05
1507.83	2.01697e-05
1516.39	1.35529e-05
1524.95	1.23314e-05
1533.51	8.25648e-06
1542.07	1.44289e-06
1550.62	-1.78541e-08
1559.18	4.11648e-08
1567.74	-1.30362e-07
1576.3	7.20056e-07
1584.85	-1.7825e-08
1593.41	1.18838e-07
1601.97	3.97868e-07
1610.53	7.03381e-07
1619.08	6.97109e-07
1627.64	5.36219e-07
1636.2	9.76736e-07
1644.76	4.03717e-07
1653.31	1.59179e-06
1661.87	8.30135e-07
1670.43	1.02609e-06
1678.99	1.18457e-06
1687.55	4.00895e-07
1696.1	5.06258e-07
1704.66	6.50575e-08
1713.22	1.10806e-07
1721.78	-6.92919e-08
1730.33	3.19031e-07
1738.89	1.05949e-06
1747.45	8.82038e-07
1756.01	2.34687e-06
1764.56	1.36504e-06
1773.12	1.7205e-06
1781.68	2.73083e-06
1790.24	7.78141e-06
1798.79	2.6584e-05
1807.35	3.10528e-05
1815.91	2.85231e-05
1824.47	2.45068e-05
1833.03	3.23496e-06
1841.58	3.4093e-07
1850.14	1.00387e-07
1858.7	2.63068e-07
1867.26	3.99803e-07
1875.81	4.96364e-07
1884.37	4.7122e-07
1892.93	2.14642e-07
1901.49	1.55536e-07
1910.04	2.54642e-08
1918.6	1.70654e-07
1927.16	1.12501e-06
1935.72	4.88048e-06
1944.28	1.67535e-05
1952.83	2.14931e-05
1961.39	1.85147e-05
1969.95	1.73474e-05
1978.51	2.59043e-06
1987.06	8.94086e-07
1995.62	5.08354e-07
2004.18	8.37847e-07
2012.74	4.43864e-07
2021.29	6.75952e-07
2029.85	1.27147e-07
2038.41	-3.19976e-08
2046.97	-9.45669e-08
2055.52	-1.2655e-07
2064.08	-6.77349e-08
2072.64	-2.88139e-07
2081.2	-7.64364e-08
2089.76	-1.4535e-07
2098.31	-1.5897e-07
2106.87	-1.80985e-07
2115.43	-4.98663e-08
2123.99	-1.90414e-07
2132.54	-1.08318e-07
2141.1	-1.2687e-07
2149.66	-1.83706e-07
2158.22	1.56918e-07
2166.77	-8.51816e-08
2175.33	-2.01895e-07
2183.89	-3.33072e-08
2192.45	1.40694e-07
2201	9.69257e-07
2209.56	2.97284e-06
2218.12	3.20137e-06
2226.68	6.89063e-07
2235.24	-8.17766e-09
2243.79	-1.0842e-07
2252.35	-1.45801e-07
2260.91	-5.20053e-08
2269.47	1.35164e-07
2278.02	1.11039e-07
2286.58	1.37129e-07
2295.14	5.72582e-08
2303.7	4.07166e-07
2312.25	2.74125e-06
2320.81	3.82745e-06
2329.37	4.30413e-06
2337.93	3.80122e-06
2346.49	8.06591e-07
2355.04	1.75529e-07
2363.6	5.89185e-07
2372.16	7.33196e-07
2380.72	8.03288e-07
2389.27	6.49498e-07
2397.83	1.14222e-06
2406.39	9.25924e-07
2414.95	3.45237e-07
2423.5	4.50193e-07
2432.06	6.20164e-08
2440.62	2.75159e-08
2449.18	2.87819e-08
2457.73	1.36925e-08
2466.29	2.57407e-08
2474.85	5.35913e-08
2483.41	1.64383e-07
2491.97	4.70288e-08
2500.52	-9.58183e-08
2509.08	-7.2464e-08
2517.64	-1.92131e-07
2526.2	-1.9347e-07
2534.75	-1.38307e-07
2543.31	-3.67704e-08
2551.87	7.02959e-08
2560.43	8.5589e-08
2568.98	-4.41041e-08
2577.54	9.44505e-08
2586.1	3.38776e-07
2594.66	8.34136e-07
2603.21	1.49485e-06
2611.77	2.23905e-06
2620.33	7.14178e-07
2628.89	5.5205e-07
2637.45	3.05353e-07
2646	5.42199e-07
2654.56	8.93344e-07
2663.12	1.18596e-06
2671.68	2.50947e-07
2680.23	-4.81638e-08
2688.79	-1.22578e-07
2697.35	-1.98825e-07
2705.91	-2.5457e-07
2714.46	-2.41052e-07
2723.02	-1.7598e-07
2731.58	-2.83934e-07
2740.14	-1.43778e-07
2748.69	-3.58406e-07
2757.25	-1.36517e-07
2765.81	-2.65934e-07
2774.37	-1.21181e-07
2782.93	-1.19667e-07
2791.48	-1.01624e-07
2800.04	4.51096e-07
2808.6	1.28234e-06
2817.16	2.19218e-06
2825.71	2.71682e-06
2834.27	2.1641e-06
2842.83	2.1789e-06
2851.39	1.69646e-06
2859.94	1.18457e-06
2868.5	1.84622e-06
2877.06	2.4448e-06
2885.62	3.71443e-06
2894.18	6.32568e-06
2902.73	5.23023e-06
2911.29	2.84287e-06
2919.85	1.47632e-06
2928.41	2.12285e-07
2936.96	6.34715e-08
2945.52	-2.14002e-07
2954.08	-1.19769e-07
2962.64	-3.71138e-07
2971.19	-2.02899e-07
2979.75	-1.73317e-07
2988.31	1.75398e-07
2996.87	2.74476e-07
3005.42	1.00386e-06
3013.98	3.75311e-06
3022.54	2.44791e-05
3031.1	0.000114144
3039.66	0.000188998
3048.21	0.000227029
3056.77	0.000218098
3065.33	9.94377e-05
3073.89	0.000104409
3082.44	0.000140766
3091	0.000143187
3099.56	0.000139714
3108.12	0.000129396
3116.67	7.07077e-05
3125.23	8.04906e-06
3133.79	1.12345e-06
3142.35	5.78548e-08
3150.9	-1.17834e-07
3159.46	-1.69083e-07
3168.02	-3.81091e-08
3176.58	-3.10838e-07
3185.14	-2.55981e-07
3193.69	-2.98892e-07
3202.25	-1.08812e-07
3210.81	-1.43589e-07
3219.37	-2.66123e-07
3227.92	-1.94329e-07
3236.48	-3.26248e-07
3245.04	-8.83246e-08
3253.6	-4.11502e-08
3262.15	-2.59721e-07
3270.71	-2.06246e-07
3279.27	-2.27432e-07
3287.83	-3.69013e-07
3296.38	-2.14394e-07
3304.94	-1.3061e-07
3313.5	-5.84514e-08
3322.06	-1.71163e-07
3330.62	-3.69435e-07
3339.17	-1.81771e-07
3347.73	-1.06819e-07
3356.29	-6.87971e-08
3364.85	-3.17546e-07
3373.4	-5.28201e-09
3381.96	-2.71682e-07
3390.52	-2.69936e-07
3399.08	-1.3448e-07
3407.63	1.07168e-07
3416.19	1.07401e-07
3424.75	-1.21501e-07
3433.31	1.19275e-07
3441.87	1.38598e-07
3450.42	9.45087e-08
3458.98	-4.18923e-08
3467.54	-4.22852e-08
3476.1	-2.9118e-07
3484.65	-1.04796e-07
3493.21	-1.68908e-07
3501.77	-8.65057e-08
3510.33	-8.74952e-08
3518.88	-4.21542e-08
3527.44	-2.74708e-07
3536	-3.92731e-07
3544.56	-1.98228e-07
3553.11	-2.484e-07
3561.67	-1.55434e-07
3570.23	-2.57494e-07
3578.79	-2.25933e-07
3587.35	-1.82484e-07
3595.9	-2.10902e-07
3604.46	1.09787e-07
3613.02	1.76955e-07
3621.58	1.08098e-06
3630.13	4.22721e-07
3638.69	8.13619e-07
3647.25	2.28286e-06
3655.81	2.35026e-06
3664.36	7.64422e-07
3672.92	3.07623e-07
3681.48	1.47096e-07
3690.04	7.76703e-07
3698.59	1.59885e-06
3707.15	1.79639e-06
3715.71	8.63951e-07
3724.27	3.10198e-07
3732.83	1.14298e-07
3741.38	1.90982e-07
3749.94	-1.01173e-07
3758.5	8.22714e-08
3767.06	-8.46577e-08
3775.61	-1.69155e-07
3784.17	2.55516e-08
3792.73	-7.71349e-08
3801.29	4.20058e-07
3809.84	-2.15573e-07
3818.4	-2.70052e-07
3826.96	-3.76071e-07
3835.52	-2.24915e-07
3844.08	-4.58502e-08
3852.63	-9.18023e-08
3861.19	-1.03443e-07
3869.75	-1.07837e-07
3878.31	-3.22494e-07
3886.86	-1.37594e-07
3895.42	-2.64843e-07
3903.98	-2.53027e-07
3912.54	5.25873e-08
3921.09	-4.40895e-09
3929.65	-9.58911e-09
3938.21	3.59584e-07
3946.77	8.31168e-07
3955.32	5.29307e-07
3963.88	5.15993e-07
3972.44	8.04758e-07
