Infrared Spectrum: Benzene
Formula: C6 H6
CAS: 71-43-2
State: gas
Melting point: 5.5 C
Boiling point: 80.1 C
Class: IUPAC A
Instrument: IFS66V (Bruker)
Instrument parameters: KBr Beam Splitter; MCT Detector; Multipass cell
Sampling: 1 L/min Flow
Resolution: 1.9290
Temperature: 23 C
Pressure: 101.3 Pa
Origin: NIST, Analytical Chemistry Division, 301-975-3108
cm-1	(micromol/mol)-1m-1 (base 10)
575.653	1.59631e-08
584.331	7.76546e-08
593.009	3.69738e-07
601.688	4.65007e-07
610.366	5.22679e-07
619.044	9.08991e-07
627.722	1.35133e-06
636.4	6.93699e-06
645.079	4.83053e-05
653.757	0.000199334
662.435	0.000280278
671.113	0.000437855
679.791	0.000183373
688.469	0.000334594
697.148	0.000134415
705.826	2.26179e-05
714.504	3.14398e-06
723.182	1.21796e-06
731.86	6.23845e-07
740.539	4.29909e-07
749.217	2.52347e-07
757.895	6.79592e-07
766.573	1.03605e-06
775.251	8.18757e-07
783.93	7.90545e-07
792.608	9.62286e-07
801.286	5.01557e-07
809.964	1.38757e-07
818.642	-5.08397e-08
827.32	-6.20771e-08
835.999	-1.24991e-07
844.677	-1.10257e-07
853.355	-5.06541e-08
862.033	-1.08486e-07
870.711	-1.47146e-07
879.39	-9.33667e-08
888.068	-1.29818e-07
896.746	-1.34071e-07
905.424	-1.50151e-07
914.102	-1.10068e-07
922.781	-1.38608e-07
931.459	-8.45957e-08
940.137	-1.35701e-07
948.815	-1.08126e-07
957.493	-1.02491e-07
966.171	3.09949e-09
974.85	1.25871e-09
983.528	1.94329e-07
992.206	6.2239e-07
1000.88	1.64113e-06
1009.56	6.67162e-06
1018.24	2.35033e-05
1026.92	3.07422e-05
1035.6	4.99178e-05
1044.28	2.01874e-05
1052.95	2.85001e-05
1061.63	9.69014e-06
1070.31	1.18239e-06
1078.99	8.62037e-08
1087.67	-3.11586e-08
1096.34	-5.30369e-08
1105.02	-9.70883e-08
1113.7	-8.44175e-08
1122.38	-1.12182e-07
1131.06	-1.55051e-07
1139.74	-1.82834e-07
1148.41	-1.19283e-07
1157.09	-1.23932e-07
1165.77	-1.13299e-07
1174.45	-6.56314e-08
1183.13	-1.50427e-08
1191.8	3.26647e-07
1200.48	1.40932e-08
1209.16	4.34765e-08
1217.84	1.20775e-07
1226.52	5.70452e-07
1235.2	1.14917e-06
1243.87	1.0021e-06
1252.55	1.05539e-06
1261.23	1.95544e-07
1269.91	-1.15467e-07
1278.59	-1.75234e-07
1287.26	-1.80513e-07
1295.94	-1.77104e-07
1304.62	-1.60693e-07
1313.3	-1.92776e-07
1321.98	-2.13577e-07
1330.66	-2.07317e-07
1339.33	-1.74572e-07
1348.01	-1.70788e-07
1356.69	-1.13593e-07
1365.37	3.6439e-07
1374.05	2.63716e-06
1382.72	3.64657e-06
1391.4	3.32292e-06
1400.08	3.10041e-06
1408.76	4.44737e-07
1417.44	-1.31692e-08
1426.12	-4.52118e-08
1434.79	4.17158e-08
1443.47	2.61005e-07
1452.15	1.90307e-06
1460.83	1.54706e-05
1469.51	5.36285e-05
1478.18	5.6467e-05
1486.86	5.51635e-05
1495.54	5.99574e-05
1504.22	2.71935e-05
1512.9	1.59056e-05
1521.58	1.25114e-05
1530.25	1.18858e-05
1538.93	2.90413e-06
1547.61	2.70358e-07
1556.29	3.18098e-08
1564.97	6.91674e-08
1573.64	6.09676e-08
1582.32	5.73406e-08
1591	1.2582e-07
1599.68	3.15224e-07
1608.36	6.85089e-07
1617.04	6.88061e-07
1625.71	5.6474e-07
1634.39	9.78562e-07
1643.07	4.48306e-07
1651.75	5.54183e-07
1660.43	8.89863e-07
1669.1	1.09704e-06
1677.78	1.13955e-06
1686.46	5.40712e-07
1695.14	2.91279e-07
1703.82	6.9553e-08
1712.5	2.36718e-08
1721.17	1.54138e-08
1729.85	3.46044e-07
1738.53	1.03729e-06
1747.21	9.94242e-07
1755.89	2.33535e-06
1764.56	1.36705e-06
1773.24	1.87817e-06
1781.92	2.94676e-06
1790.6	8.6554e-06
1799.28	2.70479e-05
1807.96	3.03403e-05
1816.63	2.92978e-05
1825.31	2.12363e-05
1833.99	2.8942e-06
1842.67	4.03912e-07
1851.35	1.86319e-07
1860.02	3.23351e-07
1868.7	5.74563e-07
1877.38	5.9523e-07
1886.06	7.3232e-07
1894.74	2.26194e-07
1903.42	7.65414e-08
1912.09	1.59031e-07
1920.77	3.91143e-07
1929.45	1.80801e-06
1938.13	7.39871e-06
1946.81	1.98185e-05
1955.48	2.07032e-05
1964.16	2.08085e-05
1972.84	1.06733e-05
1981.52	1.40335e-06
1990.2	1.13851e-06
1998.88	7.60179e-07
2007.55	9.55691e-07
2016.23	6.93526e-07
2024.91	5.80394e-07
2033.59	1.39186e-07
2042.27	-2.69459e-08
2050.94	-5.87885e-08
2059.62	-1.04732e-07
2068.3	-1.57507e-07
2076.98	-1.33449e-07
2085.66	-1.11487e-07
2094.34	-8.89066e-08
2103.01	-7.92044e-08
2111.69	-6.27247e-08
2120.37	-9.66263e-08
2129.05	-1.33016e-07
2137.73	4.57902e-08
2146.41	-1.38495e-07
2155.08	-9.41197e-08
2163.76	-1.66448e-07
2172.44	-5.34662e-08
2181.12	-1.18723e-07
2189.8	5.29751e-08
2198.47	5.33011e-07
2207.15	2.39832e-06
2215.83	2.24833e-06
2224.51	1.09594e-06
2233.19	1.62174e-07
2241.87	-1.0332e-07
2250.54	-1.18486e-07
2259.22	-8.42829e-08
2267.9	8.12962e-08
2276.58	1.00028e-07
2285.26	9.18861e-08
2293.93	6.18552e-08
2302.61	2.66738e-07
2311.29	2.33665e-06
2319.97	3.91227e-06
2328.65	4.52912e-06
2337.33	3.94488e-06
2346	9.64451e-07
2354.68	3.18815e-07
2363.36	7.45559e-07
2372.04	7.13578e-07
2380.72	6.93577e-07
2389.39	8.09327e-07
2398.07	1.09232e-06
2406.75	1.01027e-06
2415.43	4.36795e-07
2424.11	4.80879e-07
2432.79	9.07911e-08
2441.46	-2.42612e-08
2450.14	-6.20335e-08
2458.82	-1.90808e-08
2467.5	2.07942e-08
2476.18	1.63698e-07
2484.85	1.70723e-07
2493.53	1.2657e-07
2502.21	-7.71635e-08
2510.89	-1.69799e-07
2519.57	-1.40063e-07
2528.25	-1.58351e-07
2536.92	-1.41784e-07
2545.6	-4.58994e-08
2554.28	1.28374e-07
2562.96	5.77771e-08
2571.64	1.14579e-07
2580.31	1.55597e-07
2588.99	5.86044e-07
2597.67	9.83852e-07
2606.35	1.70517e-06
2615.03	1.46116e-06
2623.71	7.40058e-07
2632.38	4.56335e-07
2641.06	2.75938e-07
2649.74	9.81389e-07
2658.42	7.62318e-07
2667.1	9.91037e-07
2675.77	3.84817e-08
2684.45	-9.96857e-08
2693.13	-1.78836e-07
2701.81	-2.82039e-07
2710.49	-1.37687e-07
2719.17	-2.11719e-07
2727.84	-2.07208e-07
2736.52	-1.68431e-07
2745.2	-1.97691e-07
2753.88	-2.26248e-07
2762.56	-1.7726e-07
2771.23	-1.62614e-07
2779.91	-1.73451e-07
2788.59	-5.81591e-08
2797.27	2.72719e-07
2805.95	1.10004e-06
2814.63	2.09524e-06
2823.3	2.37205e-06
2831.98	2.2161e-06
2840.66	2.42274e-06
2849.34	1.65974e-06
2858.02	1.32358e-06
2866.69	1.78782e-06
2875.37	2.10717e-06
2884.05	3.65299e-06
2892.73	5.55511e-06
2901.41	6.34289e-06
2910.09	3.06593e-06
2918.76	1.83737e-06
2927.44	5.75359e-07
2936.12	2.92269e-08
2944.8	-1.2522e-07
2953.48	-3.37015e-08
2962.15	-2.0202e-07
2970.83	-7.9961e-08
2979.51	8.42792e-08
2988.19	3.43709e-07
2996.87	6.364e-07
3005.55	1.51029e-06
3014.22	5.09486e-06
3022.9	2.81922e-05
3031.58	0.000120599
3040.26	0.000185855
3048.94	0.000207478
3057.61	0.000209891
3066.29	9.4562e-05
3074.97	0.000100936
3083.65	0.000135329
3092.33	0.000140398
3101.01	0.000135814
3109.68	0.000131381
3118.36	5.10321e-05
3127.04	6.36191e-06
3135.72	1.29481e-06
3144.4	3.95141e-07
3153.07	1.65677e-07
3161.75	8.95251e-08
3170.43	-1.25107e-08
3179.11	-8.8692e-09
3187.79	-2.8452e-08
3196.47	-9.18206e-08
3205.14	-1.12509e-07
3213.82	-1.54276e-07
3222.5	-1.0101e-07
3231.18	-4.03589e-08
3239.86	-1.63815e-08
3248.53	-3.51858e-08
3257.21	-2.69787e-08
3265.89	-5.84902e-08
3274.57	-1.03156e-07
3283.25	-1.57114e-07
3291.93	-1.97298e-07
3300.6	-1.81597e-07
3309.28	-1.6141e-07
3317.96	-2.10729e-07
3326.64	-2.14905e-07
3335.32	-2.18871e-07
3343.99	-1.79643e-07
3352.67	-1.85082e-07
3361.35	-1.5978e-07
3370.03	-1.71371e-07
3378.71	-1.40729e-07
3387.39	-8.48176e-08
3396.06	-2.55526e-08
3404.74	3.77905e-08
3413.42	-2.83101e-08
3422.1	-9.95875e-08
3430.78	8.71641e-09
3439.46	1.23529e-07
3448.13	1.31623e-07
3456.81	2.71875e-07
3465.49	4.50809e-08
3474.17	-7.60321e-09
3482.85	-1.46807e-07
3491.52	-2.19471e-07
3500.2	-1.94129e-07
3508.88	-1.70865e-07
3517.56	-1.63655e-07
3526.24	-1.82775e-07
3534.92	-2.17983e-07
3543.59	-2.19704e-07
3552.27	-2.33582e-07
3560.95	-1.98404e-07
3569.63	-1.52082e-07
3578.31	-2.30625e-07
3586.98	-1.89204e-07
3595.66	-1.0097e-07
3604.34	9.74412e-08
3613.02	2.18543e-07
3621.7	9.18752e-07
3630.38	4.69686e-07
3639.05	8.21303e-07
3647.73	2.22505e-06
3656.41	2.69225e-06
3665.09	7.16332e-07
3673.77	4.16994e-07
3682.44	4.59994e-07
3691.12	1.06684e-06
3699.8	1.72329e-06
3708.48	1.83915e-06
3717.16	6.47386e-07
3725.84	2.2065e-07
3734.51	1.06772e-07
3743.19	3.50235e-07
3751.87	1.51606e-07
3760.55	-2.79609e-08
3769.23	-7.17139e-08
3777.9	-1.15711e-07
3786.58	-1.35563e-07
3795.26	-1.31245e-07
3803.94	-1.29553e-07
3812.62	-1.61581e-07
3821.3	-5.28041e-08
3829.97	-2.09059e-07
3838.65	-6.27356e-08
3847.33	-1.80629e-07
3856.01	-1.8928e-07
3864.69	-1.55866e-07
3873.36	-1.71265e-07
3882.04	-1.71007e-07
3890.72	1.70727e-08
3899.4	-1.42933e-07
3908.08	-2.10191e-07
3916.76	-1.69428e-07
3925.43	1.19105e-08
3934.11	2.30352e-07
3942.79	5.08418e-07
3951.47	8.5256e-07
3960.15	5.42069e-07
3968.82	5.77451e-07
