Infrared Spectrum: Benzene
Formula: C6 H6
CAS: 71-43-2
State: gas
Melting point: 5.5 C
Boiling point: 80.1 C
Class: IUPAC A
Instrument: IFS66V (Bruker)
Instrument parameters: KBr Beam Splitter; MCT Detector; Multipass cell
Sampling: 1 L/min Flow
Resolution: 0.9640
Temperature: 23 C
Pressure: 101.3 Pa
Origin: NIST, Analytical Chemistry Division, 301-975-3108
cm-1	(micromol/mol)-1m-1 (base 10)
575.171	3.65228e-07
583.849	2.39501e-07
592.527	4.86445e-07
601.206	5.93095e-07
609.884	7.13271e-07
618.562	6.97802e-07
627.24	1.04822e-06
635.918	4.84673e-06
644.597	4.17256e-05
653.275	0.000190467
661.953	0.000293738
670.631	0.000178096
679.309	0.000147763
687.987	0.000343326
696.666	0.000142436
705.344	2.05779e-05
714.022	9.66814e-07
722.7	-6.35004e-07
731.378	-4.47548e-07
740.057	-6.4479e-07
748.735	-4.84961e-07
757.413	-2.62951e-08
766.091	5.09524e-07
774.769	2.43743e-08
783.448	3.91691e-07
792.126	5.96849e-07
800.804	1.43139e-07
809.482	-1.98108e-07
818.16	-3.45576e-07
826.838	-3.44732e-07
835.517	-3.81228e-07
844.195	-3.56032e-07
852.873	-2.80406e-07
861.551	-3.46697e-07
870.229	-3.37529e-07
878.908	-3.10906e-07
887.586	-2.75582e-07
896.264	-3.34197e-07
904.942	-3.23035e-07
913.62	-2.8953e-07
922.299	-2.93437e-07
930.977	-2.7241e-07
939.655	-3.30624e-07
948.333	-2.49665e-07
957.011	-2.47664e-07
965.689	-1.63278e-07
974.368	-1.54635e-07
983.046	4.43102e-09
991.724	3.75931e-07
1000.4	1.23277e-06
1009.08	5.73775e-06
1017.76	2.24591e-05
1026.44	3.17351e-05
1035.11	4.50204e-05
1043.79	1.7761e-05
1052.47	2.98074e-05
1061.15	1.03071e-05
1069.83	1.01048e-06
1078.51	-1.43299e-07
1087.18	-1.58396e-07
1095.86	-1.16764e-07
1104.54	-2.30311e-07
1113.22	-2.10921e-07
1121.9	-2.08491e-07
1130.58	-2.32167e-07
1139.25	-2.83091e-07
1147.93	-1.98719e-07
1156.61	-2.20416e-07
1165.29	-2.1688e-07
1173.97	-1.68328e-07
1182.64	-9.0163e-08
1191.32	2.03914e-07
1200	-7.96929e-08
1208.68	-2.66807e-08
1217.36	3.00349e-08
1226.04	4.51324e-07
1234.71	1.11137e-06
1243.39	9.66472e-07
1252.07	1.02762e-06
1260.75	1.59859e-07
1269.43	-1.94579e-07
1278.1	-2.49803e-07
1286.78	-2.85885e-07
1295.46	-2.53943e-07
1304.14	-2.32902e-07
1312.82	-2.60521e-07
1321.5	-3.09349e-07
1330.17	-2.86707e-07
1338.85	-2.5139e-07
1347.53	-2.53471e-07
1356.21	-1.76615e-07
1364.89	1.83957e-07
1373.56	2.417e-06
1382.24	3.65515e-06
1390.92	3.28369e-06
1399.6	3.26821e-06
1408.28	3.35244e-07
1416.96	-1.25495e-07
1425.63	-1.79416e-07
1434.31	-1.59182e-07
1442.99	-3.23923e-08
1451.67	1.21706e-06
1460.35	1.33251e-05
1469.02	5.28556e-05
1477.7	5.6119e-05
1486.38	5.81567e-05
1495.06	6.20123e-05
1503.74	2.80595e-05
1512.42	1.61237e-05
1521.09	1.26954e-05
1529.77	1.24697e-05
1538.45	2.86646e-06
1547.13	9.58309e-08
1555.81	-1.31301e-07
1564.48	-2.84924e-08
1573.16	-1.63999e-08
1581.84	-5.68975e-09
1590.52	3.01804e-08
1599.2	2.44485e-07
1607.88	6.4431e-07
1616.55	7.78172e-07
1625.23	5.43226e-07
1633.91	8.68371e-07
1642.59	4.15534e-07
1651.27	2.96136e-07
1659.94	8.21391e-07
1668.62	9.66203e-07
1677.3	1.1135e-06
1685.98	5.38198e-07
1694.66	8.41385e-08
1703.34	-4.01048e-08
1712.01	-1.34153e-07
1720.69	-5.81854e-08
1729.37	2.29489e-07
1738.05	9.56628e-07
1746.73	9.52808e-07
1755.4	2.60383e-06
1764.08	1.19667e-06
1772.76	1.89404e-06
1781.44	2.62524e-06
1790.12	7.65623e-06
1798.8	2.64236e-05
1807.47	3.08662e-05
1816.15	2.88386e-05
1824.83	2.32037e-05
1833.51	2.84828e-06
1842.19	2.31825e-07
1850.86	5.79089e-08
1859.54	2.06177e-07
1868.22	5.06599e-07
1876.9	5.65337e-07
1885.58	6.52525e-07
1894.26	1.81177e-07
1902.93	5.31141e-10
1911.61	4.64202e-08
1920.29	2.07887e-07
1928.97	1.51128e-06
1937.65	6.66801e-06
1946.32	1.96944e-05
1955	2.1064e-05
1963.68	2.07249e-05
1972.36	1.17036e-05
1981.04	1.2889e-06
1989.72	1.67991e-06
1998.39	5.54445e-07
2007.07	5.92309e-07
2015.75	6.08469e-07
2024.43	5.67062e-07
2033.11	1.27532e-07
2041.78	-7.70518e-08
2050.46	-7.75393e-08
2059.14	-1.47744e-07
2067.82	-1.68364e-07
2076.5	-1.69201e-07
2085.18	-1.76062e-07
2093.85	-1.43335e-07
2102.53	-1.50371e-07
2111.21	-4.62747e-08
2119.89	-1.65236e-08
2128.57	-1.60434e-07
2137.24	-1.66327e-08
2145.92	-1.75022e-07
2154.6	-5.17244e-08
2163.28	-1.79147e-07
2171.96	-1.58847e-07
2180.64	-1.6768e-07
2189.31	-2.59022e-08
2197.99	4.08156e-07
2206.67	2.33432e-06
2215.35	2.03919e-06
2224.03	1.18086e-06
2232.7	1.37769e-07
2241.38	-1.17229e-07
2250.06	-1.4076e-07
2258.74	-1.19652e-07
2267.42	3.44296e-08
2276.1	8.64741e-08
2284.77	4.79846e-08
2293.45	4.39901e-08
2302.13	1.61016e-07
2310.81	2.14544e-06
2319.49	4.07428e-06
2328.16	4.7689e-06
2336.84	4.04756e-06
2345.52	9.81905e-07
2354.2	3.18743e-07
2362.88	7.24156e-07
2371.56	7.1931e-07
2380.23	6.10484e-07
2388.91	7.39173e-07
2397.59	1.10389e-06
2406.27	9.3539e-07
2414.95	3.83025e-07
2423.62	4.62034e-07
2432.3	7.75829e-08
2440.98	-5.37034e-08
2449.66	-7.6055e-08
2458.34	-3.28725e-08
2467.02	-1.81897e-09
2475.69	1.43866e-07
2484.37	1.70875e-07
2493.05	1.16342e-07
2501.73	-7.02706e-08
2510.41	-1.79235e-07
2519.09	-1.44325e-07
2527.76	-1.33833e-07
2536.44	-1.83476e-07
2545.12	-7.38213e-08
2553.8	7.81577e-08
2562.48	2.50728e-08
2571.15	9.01338e-08
2579.83	1.37987e-07
2588.51	5.3854e-07
2597.19	9.77626e-07
2605.87	1.58565e-06
2614.55	1.59144e-06
2623.22	7.45772e-07
2631.9	4.96515e-07
2640.58	2.10368e-07
2649.26	9.85819e-07
2657.94	7.45343e-07
2666.61	1.06797e-06
2675.29	2.72264e-08
2683.97	-1.09058e-07
2692.65	-1.84437e-07
2701.33	-3.24753e-07
2710.01	-1.88868e-07
2718.68	-2.45729e-07
2727.36	-2.53019e-07
2736.04	-1.45234e-07
2744.72	-2.02517e-07
2753.4	-2.47417e-07
2762.07	-1.95045e-07
2770.75	-1.8125e-07
2779.43	-2.04838e-07
2788.11	-1.20191e-07
2796.79	1.98363e-07
2805.47	1.00931e-06
2814.14	2.05805e-06
2822.82	2.24437e-06
2831.5	2.21836e-06
2840.18	2.42807e-06
2848.86	1.63484e-06
2857.53	1.28893e-06
2866.21	1.74718e-06
2874.89	1.99178e-06
2883.57	3.59141e-06
2892.25	5.32298e-06
2900.93	6.90226e-06
2909.6	3.102e-06
2918.28	1.82152e-06
2926.96	5.0366e-07
2935.64	-7.78376e-08
2944.32	-2.64035e-07
2952.99	-1.60826e-07
2961.67	-3.93306e-07
2970.35	-3.00822e-07
2979.03	-1.55202e-07
2987.71	9.72715e-08
2996.39	2.60848e-07
3005.06	8.39741e-07
3013.74	3.51427e-06
3022.42	2.37345e-05
3031.1	0.000114205
3039.78	0.000188955
3048.45	0.000219232
3057.13	0.000217504
3065.81	9.49141e-05
3074.49	0.000103459
3083.17	0.000138689
3091.85	0.000142752
3100.52	0.000148961
3109.2	0.000133864
3117.88	5.55388e-05
3126.56	5.70422e-06
3135.24	7.3707e-07
3143.91	-2.15949e-08
3152.59	-8.79802e-08
3161.27	-1.41545e-07
3169.95	-1.82007e-07
3178.63	-1.41553e-07
3187.31	-1.51084e-07
3195.98	-1.56024e-07
3204.66	-1.92717e-07
3213.34	-2.12005e-07
3222.02	-1.78412e-07
3230.7	-6.87573e-09
3239.37	-7.43233e-08
3248.05	-6.2027e-08
3256.73	-4.25349e-08
3265.41	-8.91225e-08
3274.09	-5.66065e-08
3282.77	-1.70671e-07
3291.44	-2.48196e-07
3300.12	-1.45765e-07
3308.8	-8.31999e-08
3317.48	-2.00051e-07
3326.16	-2.51077e-07
3334.83	-1.75073e-07
3343.51	-1.76957e-07
3352.19	-1.26164e-07
3360.87	-1.26171e-07
3369.55	-1.8352e-07
3378.23	-1.23116e-07
3386.9	-1.09379e-07
3395.58	-2.34575e-08
3404.26	3.06752e-08
3412.94	-2.54948e-08
3421.62	-1.1736e-07
3430.29	1.55486e-08
3438.97	1.27801e-07
3447.65	1.33433e-07
3456.33	3.84815e-07
3465.01	2.63606e-08
3473.69	1.27328e-08
3482.36	-1.53958e-07
3491.04	-2.12325e-07
3499.72	-1.6568e-07
3508.4	-1.99316e-07
3517.08	-1.33062e-07
3525.75	-1.58898e-07
3534.43	-2.31599e-07
3543.11	-2.3897e-07
3551.79	-2.39959e-07
3560.47	-2.07843e-07
3569.15	-1.13781e-07
3577.82	-1.98967e-07
3586.5	-1.41014e-07
3595.18	-1.27277e-07
3603.86	1.25509e-07
3612.54	2.72664e-07
3621.21	1.05253e-06
3629.89	5.53536e-07
3638.57	7.68903e-07
3647.25	2.30063e-06
3655.93	2.65166e-06
3664.61	7.34429e-07
3673.28	4.04329e-07
3681.96	4.4706e-07
3690.64	9.8913e-07
3699.32	1.70762e-06
3708	1.86148e-06
3716.67	7.12136e-07
3725.35	2.34051e-07
3734.03	4.54162e-08
3742.71	1.89865e-07
3751.39	-6.27183e-09
3760.07	6.85535e-08
3768.74	-8.33454e-08
3777.42	-1.31941e-07
3786.1	-1.2831e-07
3794.78	-1.30508e-07
3803.46	-1.1752e-07
3812.14	-1.46216e-07
3820.81	4.42375e-09
3829.49	-1.76433e-07
3838.17	1.06024e-07
3846.85	-1.12085e-07
3855.53	-1.65119e-07
3864.2	-1.56817e-07
3872.88	-1.56075e-07
3881.56	-1.25517e-07
3890.24	2.4562e-07
3898.92	-1.61925e-07
3907.6	-1.86329e-07
3916.27	-2.01091e-07
3924.95	5.11569e-08
3933.63	2.34924e-07
3942.31	4.80726e-07
3950.99	8.6915e-07
3959.66	5.43888e-07
3968.34	6.42986e-07
