Infrared Spectrum: Benzene
Formula: C6 H6
CAS: 71-43-2
State: gas
Melting point: 5.5 C
Boiling point: 80.1 C
Class: IUPAC A
Instrument: IFS66V (Bruker)
Instrument parameters: KBr Beam Splitter; MCT Detector; Multipass cell
Sampling: 1 L/min Flow
Resolution: 1.9290
Temperature: 23 C
Pressure: 101.3 Pa
Origin: NIST, Analytical Chemistry Division, 301-975-3108
cm-1	(micromol/mol)-1m-1 (base 10)
575.653	-3.3066e-07
584.331	-1.7109e-08
593.009	-9.18024e-08
601.688	2.30206e-07
610.366	-1.98928e-07
619.044	3.63113e-07
627.722	-3.01582e-08
636.4	4.97094e-06
645.079	4.49782e-05
653.757	0.000200426
662.435	0.000282567
671.113	0.000359091
679.791	0.000173593
688.469	0.000338906
697.148	0.000133543
705.826	1.88026e-05
714.504	1.81954e-06
723.182	-8.42829e-08
731.86	2.06913e-07
740.539	-2.40814e-07
749.217	3.27302e-08
757.895	2.6792e-07
766.573	9.17282e-07
775.251	4.70169e-07
783.93	6.22256e-07
792.608	7.46046e-07
801.286	4.49794e-07
809.964	-2.69532e-08
818.642	-9.97767e-08
827.32	-1.93805e-07
835.999	-1.69904e-07
844.677	-2.18754e-07
853.355	-8.5367e-08
862.033	-1.92281e-07
870.711	-1.88149e-07
879.39	-1.59809e-07
888.068	-1.66961e-07
896.746	-1.9477e-07
905.424	-1.93718e-07
914.102	-1.59777e-07
922.781	-1.83688e-07
931.459	-1.24027e-07
940.137	-1.87745e-07
948.815	-1.54211e-07
957.493	-1.65001e-07
966.171	-4.43133e-08
974.85	-8.21692e-08
983.528	1.16999e-07
992.206	4.81305e-07
1000.88	1.46516e-06
1009.56	6.39385e-06
1018.24	2.38155e-05
1026.92	3.10037e-05
1035.6	5.1784e-05
1044.28	1.93578e-05
1052.95	2.91218e-05
1061.63	9.46165e-06
1070.31	9.16834e-07
1078.99	-6.98149e-08
1087.67	-1.0408e-07
1096.34	-1.30979e-07
1105.02	-1.31154e-07
1113.7	-1.40434e-07
1122.38	-1.25195e-07
1131.06	-2.07968e-07
1139.74	-1.93474e-07
1148.41	-1.65888e-07
1157.09	-1.24445e-07
1165.77	-1.61887e-07
1174.45	-6.14623e-08
1183.13	-5.95015e-08
1191.8	3.62069e-07
1200.48	-3.34032e-08
1209.16	2.82847e-08
1217.84	6.27865e-08
1226.52	5.8265e-07
1235.2	1.13135e-06
1243.87	1.02477e-06
1252.55	1.04276e-06
1261.23	1.97385e-07
1269.91	-1.71047e-07
1278.59	-1.68766e-07
1287.26	-2.36409e-07
1295.94	-1.6774e-07
1304.62	-2.13057e-07
1313.3	-1.82106e-07
1321.98	-2.75273e-07
1330.66	-1.99364e-07
1339.33	-2.3614e-07
1348.01	-1.66328e-07
1356.69	-1.9143e-07
1365.37	3.30147e-07
1374.05	2.61403e-06
1382.72	3.70369e-06
1391.4	3.26333e-06
1400.08	3.16541e-06
1408.76	3.06097e-07
1417.44	-7.19213e-08
1426.12	-1.94595e-07
1434.79	-6.82688e-08
1443.47	-1.94919e-08
1452.15	1.47227e-06
1460.83	1.49055e-05
1469.51	5.47502e-05
1478.18	5.60572e-05
1486.86	5.49552e-05
1495.54	6.12848e-05
1504.22	2.6852e-05
1512.9	1.56261e-05
1521.58	1.23893e-05
1530.25	1.20045e-05
1538.93	2.72562e-06
1547.61	6.45182e-08
1556.29	-3.56369e-08
1564.97	-4.30982e-08
1573.64	3.25228e-08
1582.32	-2.94051e-08
1591	1.19374e-07
1599.68	2.39752e-07
1608.36	7.07681e-07
1617.04	6.05983e-07
1625.71	5.17291e-07
1634.39	9.45738e-07
1643.07	4.46141e-07
1651.75	4.95067e-07
1660.43	9.08496e-07
1669.1	9.97589e-07
1677.78	1.17573e-06
1686.46	4.80257e-07
1695.14	3.11684e-07
1703.82	-9.42216e-09
1712.5	-1.29e-08
1721.17	-7.24197e-08
1729.85	3.42454e-07
1738.53	9.79839e-07
1747.21	9.80723e-07
1755.89	2.36599e-06
1764.56	1.33776e-06
1773.24	1.73932e-06
1781.92	2.80378e-06
1790.6	8.36777e-06
1799.28	2.76046e-05
1807.96	3.06119e-05
1816.63	2.96213e-05
1825.31	2.14853e-05
1833.99	2.57764e-06
1842.67	1.87519e-07
1851.35	1.27963e-07
1860.02	2.14629e-07
1868.7	5.78666e-07
1877.38	5.20027e-07
1886.06	7.61303e-07
1894.74	1.32234e-07
1903.42	6.38742e-08
1912.09	5.19492e-08
1920.77	3.30547e-07
1929.45	1.61316e-06
1938.13	7.32168e-06
1946.81	2.01756e-05
1955.48	2.1005e-05
1964.16	2.11687e-05
1972.84	1.07073e-05
1981.52	1.12814e-06
1990.2	1.13168e-06
1998.88	6.42562e-07
2007.55	9.95402e-07
2016.23	6.18228e-07
2024.91	6.09457e-07
2033.59	6.69155e-08
2042.27	-3.00491e-09
2050.94	-1.21011e-07
2059.62	-7.58357e-08
2068.3	-2.18205e-07
2076.98	-9.84816e-08
2085.66	-1.70537e-07
2094.34	-5.28441e-08
2103.01	-1.31303e-07
2111.69	-1.85497e-08
2120.37	-1.51693e-07
2129.05	-9.76703e-08
2137.73	2.38646e-09
2146.41	-1.09112e-07
2155.08	-1.50474e-07
2163.76	-1.3617e-07
2172.44	-1.10989e-07
2181.12	-9.03836e-08
2189.8	-1.5181e-08
2198.47	5.53001e-07
2207.15	2.41761e-06
2215.83	2.30589e-06
2224.51	1.02773e-06
2233.19	1.82292e-07
2241.87	-1.73131e-07
2250.54	-8.76115e-08
2259.22	-1.46367e-07
2267.9	1.20542e-07
2276.58	4.09264e-08
2285.26	1.23383e-07
2293.93	-1.21942e-08
2302.61	2.62438e-07
2311.29	2.3027e-06
2319.97	4.01379e-06
2328.65	4.5871e-06
2337.33	4.07882e-06
2346	8.62237e-07
2354.68	3.25814e-07
2363.36	6.99652e-07
2372.04	7.54522e-07
2380.72	6.17246e-07
2389.39	8.18931e-07
2398.07	1.05486e-06
2406.75	1.05423e-06
2415.43	3.65875e-07
2424.11	5.30901e-07
2432.79	2.72442e-08
2441.46	1.24125e-08
2450.14	-1.2343e-07
2458.82	2.08706e-08
2467.5	-4.03407e-08
2476.18	2.09969e-07
2484.85	1.20149e-07
2493.53	1.71218e-07
2502.21	-1.38531e-07
2510.89	-1.35585e-07
2519.57	-1.98884e-07
2528.25	-1.20465e-07
2536.92	-2.03762e-07
2545.6	-6.99568e-09
2554.28	7.42677e-08
2562.96	9.54221e-08
2571.64	4.67106e-08
2580.31	1.80069e-07
2588.99	5.28256e-07
2597.67	1.02715e-06
2606.35	1.66865e-06
2615.03	1.51267e-06
2623.71	6.78938e-07
2632.38	4.91931e-07
2641.06	1.97323e-07
2649.74	1.04661e-06
2658.42	6.97942e-07
2667.1	1.06447e-06
2675.77	-4.11956e-08
2684.45	-6.57369e-08
2693.13	-2.47719e-07
2701.81	-2.57916e-07
2710.49	-1.99011e-07
2719.17	-1.79276e-07
2727.84	-2.72581e-07
2736.52	-1.34235e-07
2745.2	-2.67495e-07
2753.88	-1.98593e-07
2762.56	-2.48396e-07
2771.23	-1.36214e-07
2779.91	-2.57447e-07
2788.59	-4.43824e-08
2797.27	1.86213e-07
2805.95	1.12473e-06
2814.63	2.04568e-06
2823.3	2.39745e-06
2831.98	2.11574e-06
2840.66	2.47473e-06
2849.34	1.55488e-06
2858.02	1.30033e-06
2866.69	1.69977e-06
2875.37	2.08793e-06
2884.05	3.57297e-06
2892.73	5.59219e-06
2901.41	6.36228e-06
2910.09	3.05972e-06
2918.76	1.72518e-06
2927.44	5.26855e-07
2936.12	-1.26577e-07
2944.8	-1.92983e-07
2953.48	-2.04341e-07
2962.15	-3.06668e-07
2970.83	-3.11477e-07
2979.51	-9.59751e-08
2988.19	2.10634e-09
2996.87	2.71667e-07
3005.55	8.25356e-07
3014.22	3.9914e-06
3022.9	2.63719e-05
3031.58	0.000121627
3040.26	0.000187978
3048.94	0.000210519
3057.61	0.000214514
3066.29	9.20193e-05
3074.97	0.00010101
3083.65	0.000137117
3092.33	0.000141783
3101.01	0.000137827
3109.68	0.000134097
3118.36	5.02108e-05
3127.04	4.98667e-06
3135.72	6.97586e-07
3144.4	-8.08851e-08
3153.07	-5.30515e-08
3161.75	-1.84751e-07
3170.43	-1.19778e-07
3179.11	-2.07211e-07
3187.79	-7.86077e-08
3196.47	-2.50204e-07
3205.14	-1.39215e-07
3213.82	-2.92858e-07
3222.5	-1.02498e-07
3231.18	-1.54789e-07
3239.86	-1.87352e-09
3248.53	-1.40947e-07
3257.21	-1.00552e-08
3265.89	-1.56608e-07
3274.57	-7.53373e-08
3283.25	-2.47872e-07
3291.93	-1.69428e-07
3300.6	-2.68244e-07
3309.28	-1.22179e-07
3317.96	-2.98388e-07
3326.64	-1.77315e-07
3335.32	-2.97915e-07
3343.99	-1.38968e-07
3352.67	-2.65287e-07
3361.35	-1.20822e-07
3370.03	-2.5004e-07
3378.71	-9.83397e-08
3387.39	-1.59304e-07
3396.06	1.89244e-08
3404.74	-3.26392e-08
3413.42	1.20451e-08
3422.1	-1.83383e-07
3430.78	5.6744e-08
3439.46	4.79875e-08
3448.13	1.70628e-07
3456.81	1.80742e-07
3465.49	9.07765e-08
3474.17	-7.90261e-08
3482.85	-1.02603e-07
3491.52	-2.99788e-07
3500.2	-1.48368e-07
3508.88	-2.4028e-07
3517.56	-1.13572e-07
3526.24	-2.56585e-07
3534.92	-1.68842e-07
3543.59	-2.93564e-07
3552.27	-1.87446e-07
3560.95	-2.67418e-07
3569.63	-1.0049e-07
3578.31	-3.04809e-07
3586.98	-1.36592e-07
3595.66	-1.76471e-07
3604.34	1.48485e-07
3613.02	1.43875e-07
3621.7	1.03693e-06
3630.38	3.95662e-07
3639.05	8.66395e-07
3647.73	2.22727e-06
3656.41	2.86315e-06
3665.09	6.17337e-07
3673.77	4.52391e-07
3682.44	3.77334e-07
3691.12	1.11872e-06
3699.8	1.67891e-06
3708.48	1.93819e-06
3717.16	5.58356e-07
3725.84	2.64996e-07
3734.51	2.61056e-08
3743.19	4.47411e-07
3751.87	7.60976e-08
3760.55	2.62329e-08
3769.23	-1.47491e-07
3777.9	-6.02764e-08
3786.58	-2.12362e-07
3795.26	-7.37912e-08
3803.94	-2.14345e-07
3812.62	-1.0897e-07
3821.3	-1.14878e-07
3829.97	-1.52519e-07
3838.65	-1.26071e-07
3847.33	-1.26075e-07
3856.01	-2.59724e-07
3864.69	-9.93692e-08
3873.36	-2.43707e-07
3882.04	-1.07027e-07
3890.72	-3.82598e-08
3899.4	-8.46212e-08
3908.08	-2.9109e-07
3916.76	-1.17442e-07
3925.43	-6.09312e-08
3934.11	2.90817e-07
3942.79	4.39746e-07
3951.47	9.42012e-07
3960.15	4.63432e-07
3968.82	6.47313e-07
