Infrared Spectrum: Benzene
Formula: C6 H6
CAS: 71-43-2
State: gas
Melting point: 5.5 C
Boiling point: 80.1 C
Class: IUPAC A
Instrument: IFS66V (Bruker)
Instrument parameters: KBr Beam Splitter; MCT Detector; Multipass cell
Sampling: 1 L/min Flow
Resolution: 1.9290
Temperature: 23 C
Pressure: 101.3 Pa
Origin: NIST, Analytical Chemistry Division, 301-975-3108
cm-1	(micromol/mol)-1m-1 (base 10)
575.653	-2.25372e-06
584.331	2.22108e-06
593.009	-2.41731e-06
601.688	2.79087e-06
610.366	-3.24011e-06
619.044	3.73748e-06
627.722	-3.80809e-06
636.4	9.46267e-06
645.079	3.88348e-05
653.757	0.000208488
662.435	0.000270516
671.113	0.000303111
679.791	0.00019884
688.469	0.000330455
697.148	0.000138891
705.826	1.45904e-05
714.504	4.84362e-06
723.182	-2.47832e-06
731.86	2.17595e-06
740.539	-1.8228e-06
749.217	1.32652e-06
757.895	-7.80268e-07
766.573	1.73228e-06
775.251	3.64523e-08
783.93	1.83539e-06
792.608	-7.39668e-08
801.286	1.09912e-06
809.964	-5.45511e-07
818.642	3.95729e-07
827.32	-6.19019e-07
835.999	1.55966e-07
844.677	-5.20023e-07
853.355	1.49149e-07
862.033	-3.57814e-07
870.711	-8.79293e-08
879.39	-2.51935e-07
888.068	-8.71362e-08
896.746	-2.4837e-07
905.424	-1.61059e-07
914.102	-1.34386e-07
922.781	-2.48254e-07
931.459	-2.42287e-08
940.137	-2.52212e-07
948.815	-6.02736e-08
957.493	-3.41211e-07
966.171	1.36983e-07
974.85	-2.79744e-07
983.528	2.90367e-07
992.206	2.70183e-07
1000.88	1.70366e-06
1009.56	6.0753e-06
1018.24	2.4197e-05
1026.92	3.05176e-05
1035.6	5.12347e-05
1044.28	1.96914e-05
1052.95	2.92062e-05
1061.63	9.33992e-06
1070.31	1.05842e-06
1078.99	-2.33738e-07
1087.67	8.8846e-08
1096.34	-3.13679e-07
1105.02	8.80238e-08
1113.7	-3.63635e-07
1122.38	1.35128e-07
1131.06	-4.61969e-07
1139.74	8.37602e-08
1148.41	-4.31104e-07
1157.09	1.65578e-07
1165.77	-4.55049e-07
1174.45	2.37384e-07
1183.13	-3.71791e-07
1191.8	7.4554e-07
1200.48	-3.46187e-07
1209.16	3.8886e-07
1217.84	-2.36139e-07
1226.52	9.22977e-07
1235.2	8.27066e-07
1243.87	1.37349e-06
1252.55	7.06454e-07
1261.23	5.53107e-07
1269.91	-5.3691e-07
1278.59	2.07851e-07
1287.26	-6.08462e-07
1295.94	2.25982e-07
1304.62	-5.94834e-07
1313.3	1.98785e-07
1321.98	-6.73712e-07
1330.66	1.98734e-07
1339.33	-6.30915e-07
1348.01	2.38402e-07
1356.69	-5.83302e-07
1365.37	7.49221e-07
1374.05	2.192e-06
1382.72	4.12532e-06
1391.4	2.80856e-06
1400.08	3.61623e-06
1408.76	-1.45307e-07
1417.44	4.22548e-07
1426.12	-6.66065e-07
1434.79	4.00546e-07
1443.47	-4.80879e-07
1452.15	1.96052e-06
1460.83	1.42779e-05
1469.51	5.55448e-05
1478.18	5.48926e-05
1486.86	5.37071e-05
1495.54	6.13185e-05
1504.22	2.69536e-05
1512.9	1.52948e-05
1521.58	1.29366e-05
1530.25	1.16125e-05
1538.93	3.19688e-06
1547.61	-3.77845e-07
1556.29	3.87223e-07
1564.97	-4.60928e-07
1573.64	5.11103e-07
1582.32	-4.65839e-07
1591	5.88002e-07
1599.68	-2.04511e-07
1608.36	1.18509e-06
1617.04	2.39443e-07
1625.71	9.09582e-07
1634.39	4.29147e-07
1643.07	8.95867e-07
1651.75	-7.25116e-08
1660.43	1.40076e-06
1669.1	6.79205e-07
1677.78	1.64473e-06
1686.46	-8.21813e-08
1695.14	7.86467e-07
1703.82	-4.83338e-07
1712.5	4.24898e-07
1721.17	-5.37143e-07
1729.85	8.58054e-07
1738.53	4.29824e-07
1747.21	1.44173e-06
1755.89	1.68577e-06
1764.56	1.88305e-06
1773.24	1.25095e-06
1781.92	3.31988e-06
1790.6	7.82205e-06
1799.28	2.8211e-05
1807.96	2.99499e-05
1816.63	3.00492e-05
1825.31	2.10018e-05
1833.99	3.05689e-06
1842.67	-3.76455e-07
1851.35	6.2703e-07
1860.02	-3.02707e-07
1868.7	1.09747e-06
1877.38	1.68364e-08
1886.06	1.31367e-06
1894.74	-4.02816e-07
1903.42	5.83695e-07
1912.09	-4.66625e-07
1920.77	8.57108e-07
1929.45	1.09077e-06
1938.13	7.81967e-06
1946.81	1.97203e-05
1955.48	2.159e-05
1964.16	2.06959e-05
1972.84	1.11822e-05
1981.52	6.01841e-07
1990.2	1.63822e-06
1998.88	6.24636e-08
2007.55	8.97184e-07
2016.23	9.84793e-08
2024.91	1.17295e-06
2033.59	-4.88206e-07
2042.27	5.3889e-07
2050.94	-6.54649e-07
2059.62	4.71093e-07
2068.3	-7.49207e-07
2076.98	4.84051e-07
2085.66	-7.09277e-07
2094.34	5.22119e-07
2103.01	-6.08731e-07
2111.69	6.46711e-07
2120.37	-7.27736e-07
2129.05	4.22904e-07
2137.73	-4.17426e-07
2146.41	4.69041e-07
2155.08	-6.90468e-07
2163.76	3.52605e-07
2172.44	-6.19259e-07
2181.12	3.95991e-07
2189.8	-5.35863e-07
2198.47	1.07149e-06
2207.15	1.87317e-06
2215.83	2.83263e-06
2224.51	4.47883e-07
2233.19	7.59036e-07
2241.87	-7.47642e-07
2250.54	4.67258e-07
2259.22	-7.2695e-07
2267.9	6.88133e-07
2276.58	-5.3878e-07
2285.26	6.80959e-07
2293.93	-6.0569e-07
2302.61	8.27561e-07
2311.29	1.765e-06
2319.97	4.51629e-06
2328.65	3.97103e-06
2337.33	4.6643e-06
2346	2.77757e-07
2354.68	9.31985e-07
2363.36	8.93117e-08
2372.04	1.36598e-06
2380.72	-1.23327e-08
2389.39	1.30401e-06
2398.07	4.90359e-07
2406.75	1.59002e-06
2415.43	-2.29198e-07
2424.11	1.10859e-06
2432.79	-5.57625e-07
2441.46	5.84437e-07
2450.14	-7.1175e-07
2458.82	6.01273e-07
2467.5	-6.10273e-07
2476.18	8.2046e-07
2484.85	-4.09429e-07
2493.53	7.94703e-07
2502.21	-7.14493e-07
2510.89	4.12827e-07
2519.57	-7.76149e-07
2528.25	4.91356e-07
2536.92	-7.83214e-07
2545.6	5.81825e-07
2554.28	-5.24207e-07
2562.96	6.78114e-07
2571.64	-5.38053e-07
2580.31	7.67506e-07
2588.99	-8.59793e-08
2597.67	1.62084e-06
2606.35	1.00911e-06
2615.03	2.1124e-06
2623.71	9.63838e-08
2632.38	1.10166e-06
2641.06	-4.22533e-07
2649.74	1.66365e-06
2658.42	1.04489e-07
2667.1	1.65597e-06
2675.77	-6.65643e-07
2684.45	5.31956e-07
2693.13	-8.35768e-07
2701.81	3.31636e-07
2710.49	-7.86816e-07
2719.17	4.33782e-07
2727.84	-8.83178e-07
2736.52	4.6362e-07
2745.2	-8.61277e-07
2753.88	3.93786e-07
2762.56	-8.34124e-07
2771.23	4.94106e-07
2779.91	-8.38227e-07
2788.59	5.9511e-07
2797.27	-4.28412e-07
2805.95	1.74918e-06
2814.63	1.46158e-06
2823.3	2.92539e-06
2831.98	1.40222e-06
2840.66	3.07767e-06
2849.34	8.68502e-07
2858.02	1.89876e-06
2866.69	1.09056e-06
2875.37	2.67751e-06
2884.05	3.00257e-06
2892.73	6.18413e-06
2901.41	5.73932e-06
2910.09	3.71859e-06
2918.76	1.12287e-06
2927.44	1.17398e-06
2936.12	-7.26266e-07
2944.8	4.11285e-07
2953.48	-7.8822e-07
2962.15	2.9228e-07
2970.83	-9.0956e-07
2979.51	4.54766e-07
2988.19	-5.7353e-07
2996.87	8.77437e-07
3005.55	2.50931e-07
3014.22	4.52576e-06
3022.9	2.56016e-05
3031.58	0.000122211
3040.26	0.000188885
3048.94	0.000211382
3057.61	0.000215152
3066.29	9.17678e-05
3074.97	0.000101683
3083.65	0.000137278
3092.33	0.000141126
3101.01	0.000132055
3109.68	0.000133574
3118.36	5.08446e-05
3127.04	4.05385e-06
3135.72	1.49907e-06
3144.4	-8.7743e-07
3153.07	7.66341e-07
3161.75	-9.31126e-07
3170.43	6.21587e-07
3179.11	-1.01673e-06
3187.79	6.5363e-07
3196.47	-1.00957e-06
3205.14	6.0761e-07
3213.82	-1.02117e-06
3222.5	6.21973e-07
3231.18	-8.56068e-07
3239.86	6.91647e-07
3248.53	-8.5812e-07
3257.21	6.93066e-07
3265.89	-8.30107e-07
3274.57	6.13788e-07
3283.25	-9.65941e-07
3291.93	5.11365e-07
3300.6	-9.61365e-07
3309.28	5.97264e-07
3317.96	-1.04626e-06
3326.64	5.27903e-07
3335.32	-1.09143e-06
3343.99	6.0534e-07
3352.67	-9.71304e-07
3361.35	6.40352e-07
3370.03	-9.31264e-07
3378.71	6.41014e-07
3387.39	-8.91138e-07
3396.06	7.56053e-07
3404.74	-8.05413e-07
3413.42	6.98108e-07
3422.1	-9.53827e-07
3430.78	7.31614e-07
3439.46	-6.52379e-07
3448.13	9.5956e-07
3456.81	-5.04816e-07
3465.49	7.7078e-07
3474.17	-7.48341e-07
3482.85	5.83134e-07
3491.52	-1.02987e-06
3500.2	5.78776e-07
3508.88	-9.60892e-07
3517.56	5.93473e-07
3526.24	-1.0007e-06
3534.92	5.33578e-07
3543.59	-1.04708e-06
3552.27	5.19427e-07
3560.95	-1.00228e-06
3569.63	6.61707e-07
3578.31	-1.02582e-06
3586.98	6.01477e-07
3595.66	-9.12376e-07
3604.34	9.15963e-07
3613.02	-5.55209e-07
3621.7	1.86985e-06
3630.38	-3.70329e-07
3639.05	1.61455e-06
3647.73	1.48629e-06
3656.41	3.82052e-06
3665.09	-1.42266e-07
3673.77	1.17643e-06
3682.44	-3.45824e-07
3691.12	1.92779e-06
3699.8	9.20067e-07
3708.48	2.66584e-06
3717.16	-2.16713e-07
3725.84	9.7401e-07
3734.51	-6.83309e-07
3743.19	1.06104e-06
3751.87	-5.34117e-07
3760.55	8.06461e-07
3769.23	-9.01404e-07
3777.9	7.06206e-07
3786.58	-1.02169e-06
3795.26	6.87347e-07
3803.94	-9.45962e-07
3812.62	6.51208e-07
3821.3	-8.29001e-07
3829.97	5.90708e-07
3838.65	-9.29292e-07
3847.33	7.17622e-07
3856.01	-1.15235e-06
3864.69	7.469e-07
3873.36	-1.05877e-06
3882.04	7.00756e-07
3890.72	-8.42724e-07
3899.4	8.21886e-07
3908.08	-1.08762e-06
3916.76	7.01295e-07
3925.43	-9.28194e-07
3934.11	1.12432e-06
3942.79	-3.8651e-07
3951.47	1.78905e-06
3960.15	-3.84444e-07
3968.82	1.47609e-06
