Infrared Spectrum: Benzene
Formula: C6 H6
CAS: 71-43-2
State: gas
Melting point: 5.5 C
Boiling point: 80.1 C
Class: IUPAC A
Instrument: IFS66V (Bruker)
Instrument parameters: KBr Beam Splitter; MCT Detector; Multipass cell
Sampling: 1 L/min Flow
Resolution: 0.2410
Temperature: 23 C
Pressure: 101.3 Pa
Origin: NIST, Analytical Chemistry Division, 301-975-3108
cm-1	(micromol/mol)-1m-1 (base 10)
575.05	6.67644e-07
583.608	6.72693e-08
592.165	4.04081e-08
600.723	1.64383e-07
609.281	4.36923e-07
617.838	-8.73351e-08
626.396	1.05757e-07
634.954	3.31284e-06
643.511	3.15268e-05
652.069	0.000162413
660.627	0.00030861
669.184	0.000104356
677.742	0.000106729
686.3	0.000351626
694.857	0.000193571
703.415	3.57975e-05
711.973	3.50852e-06
720.53	4.043e-07
729.088	2.80863e-07
737.645	-4.18341e-08
746.203	5.21362e-08
754.761	1.34262e-07
763.318	7.09841e-07
771.876	6.10065e-07
780.434	1.75863e-06
788.991	6.24325e-07
797.549	9.40635e-07
806.107	-3.63775e-09
814.664	-1.58882e-07
823.222	-2.2685e-08
831.78	-1.05873e-07
840.337	5.44644e-08
848.895	-1.81582e-07
857.453	-1.28194e-07
866.01	-1.48769e-07
874.568	-2.89419e-08
883.126	-1.22665e-07
891.683	-2.37283e-07
900.241	-1.02424e-07
908.799	-2.41503e-07
917.356	-1.41378e-07
925.914	-1.2914e-07
934.472	-2.59663e-07
943.029	-1.40548e-07
951.587	-1.42018e-07
960.145	-1.3918e-07
968.702	-3.48787e-08
977.26	-7.39191e-09
985.818	1.15899e-07
994.375	7.18514e-07
1002.93	1.983e-06
1011.49	8.7605e-06
1020.05	2.79952e-05
1028.61	2.8081e-05
1037.16	8.19596e-05
1045.72	2.37825e-05
1054.28	2.70092e-05
1062.84	7.37714e-06
1071.39	4.76589e-07
1079.95	-3.39911e-08
1088.51	-1.60032e-07
1097.07	-2.36876e-07
1105.62	-1.3432e-07
1114.18	-8.64329e-09
1122.74	-4.96626e-08
1131.3	-1.85074e-07
1139.86	-1.94634e-07
1148.41	-1.66434e-07
1156.97	-1.25037e-07
1165.53	-1.13672e-07
1174.09	-1.20613e-07
1182.64	1.20482e-08
1191.2	2.81722e-07
1199.76	5.51483e-09
1208.32	5.52356e-08
1216.87	1.2022e-07
1225.43	3.55554e-07
1233.99	1.08398e-06
1242.55	1.0595e-06
1251.1	1.13108e-06
1259.66	3.6555e-07
1268.22	-1.83226e-07
1276.78	-1.94401e-07
1285.34	-2.26821e-07
1293.89	-2.4175e-07
1302.45	-2.27214e-07
1311.01	-2.23256e-07
1319.57	-1.51563e-07
1328.12	-2.43409e-07
1336.68	-1.4017e-07
1345.24	-2.21393e-07
1353.8	-3.41396e-07
1362.35	1.53368e-08
1370.91	1.52851e-06
1379.47	3.89952e-06
1388.03	3.57214e-06
1396.59	3.72165e-06
1405.14	1.20817e-06
1413.7	-9.01143e-08
1422.26	-1.36561e-07
1430.82	-8.13546e-08
1439.37	-5.2922e-08
1447.93	5.57114e-07
1456.49	5.49142e-06
1465.05	3.32021e-05
1473.6	6.17483e-05
1482.16	9.10649e-05
1490.72	5.28798e-05
1499.28	4.7673e-05
1507.83	2.01891e-05
1516.39	1.35912e-05
1524.95	1.23697e-05
1533.51	8.24816e-06
1542.07	1.43301e-06
1550.62	-8.00305e-09
1559.18	2.29324e-08
1567.74	-7.39773e-08
1576.3	7.3337e-07
1584.85	3.02661e-09
1593.41	8.82227e-08
1601.97	3.84161e-07
1610.53	6.93661e-07
1619.08	7.37939e-07
1627.64	5.35506e-07
1636.2	9.72618e-07
1644.76	3.90229e-07
1653.31	1.46092e-06
1661.87	8.63558e-07
1670.43	9.89643e-07
1678.99	1.18262e-06
1687.55	3.64517e-07
1696.1	5.54684e-07
1704.66	7.8881e-08
1713.22	8.99979e-08
1721.78	-5.54248e-08
1730.33	3.30337e-07
1738.89	1.00824e-06
1747.45	9.15898e-07
1756.01	2.32295e-06
1764.56	1.37062e-06
1773.12	1.75374e-06
1781.68	2.73196e-06
1790.24	7.84565e-06
1798.79	2.64903e-05
1807.35	3.09297e-05
1815.91	2.85417e-05
1824.47	2.44211e-05
1833.03	3.27591e-06
1841.58	3.21563e-07
1850.14	1.05742e-07
1858.7	2.49724e-07
1867.26	4.34711e-07
1875.81	5.24927e-07
1884.37	4.73882e-07
1892.93	2.40062e-07
1901.49	1.07983e-07
1910.04	1.79559e-08
1918.6	1.75689e-07
1927.16	1.08938e-06
1935.72	4.85529e-06
1944.28	1.67499e-05
1952.83	2.15272e-05
1961.39	1.84903e-05
1969.95	1.72731e-05
1978.51	2.59092e-06
1987.06	9.01653e-07
1995.62	5.17041e-07
2004.18	9.07037e-07
2012.74	4.56567e-07
2021.29	7.26226e-07
2029.85	1.85729e-07
2038.41	-2.66429e-08
2046.97	-8.63747e-08
2055.52	-9.55128e-08
2064.08	-8.21258e-08
2072.64	-2.70838e-07
2081.2	-1.17718e-07
2089.76	-9.34902e-08
2098.31	-1.66784e-07
2106.87	-1.62709e-07
2115.43	-4.85421e-08
2123.99	-1.69534e-07
2132.54	-1.30581e-07
2141.1	-1.07998e-07
2149.66	-1.78337e-07
2158.22	1.70931e-07
2166.77	-1.22374e-07
2175.33	-1.83081e-07
2183.89	-4.89932e-08
2192.45	1.08885e-07
2201	9.76765e-07
2209.56	2.92576e-06
2218.12	3.16678e-06
2226.68	6.81976e-07
2235.24	2.45766e-08
2243.79	-1.23902e-07
2252.35	-1.26535e-07
2260.91	-7.40064e-08
2269.47	1.04534e-07
2278.02	9.99508e-08
2286.58	1.34393e-07
2295.14	7.31915e-08
2303.7	3.72404e-07
2312.25	2.76972e-06
2320.81	3.84148e-06
2329.37	4.31233e-06
2337.93	3.80235e-06
2346.49	7.72483e-07
2355.04	1.72357e-07
2363.6	6.04609e-07
2372.16	7.08008e-07
2380.72	7.61585e-07
2389.27	6.95814e-07
2397.83	1.1423e-06
2406.39	9.49991e-07
2414.95	3.74877e-07
2423.5	4.71671e-07
2432.06	8.42503e-08
2440.62	2.21757e-08
2449.18	3.27397e-09
2457.73	-1.19318e-08
2466.29	4.32019e-08
2474.85	9.17732e-08
2483.41	1.45073e-07
2491.97	3.4806e-08
2500.52	-9.10747e-08
2509.08	-1.00969e-07
2517.64	-1.77522e-07
2526.2	-2.06406e-07
2534.75	-1.78934e-07
2543.31	-7.55633e-08
2551.87	6.89281e-08
2560.43	7.84299e-08
2568.98	5.06666e-08
2577.54	1.62462e-07
2586.1	3.65652e-07
2594.66	8.54144e-07
2603.21	1.4992e-06
2611.77	2.24058e-06
2620.33	7.36062e-07
2628.89	5.61232e-07
2637.45	3.07885e-07
2646	5.41996e-07
2654.56	9.32806e-07
2663.12	1.15306e-06
2671.68	2.91966e-07
2680.23	-8.06125e-08
2688.79	-1.41261e-07
2697.35	-2.06522e-07
2705.91	-1.99843e-07
2714.46	-2.02201e-07
2723.02	-2.09884e-07
2731.58	-2.82915e-07
2740.14	-1.7809e-07
2748.69	-3.02224e-07
2757.25	-1.53004e-07
2765.81	-2.10902e-07
2774.37	-1.40213e-07
2782.93	-1.39893e-07
2791.48	-6.08523e-08
2800.04	4.01404e-07
2808.6	1.37462e-06
2817.16	2.23074e-06
2825.71	2.76232e-06
2834.27	2.12404e-06
2842.83	2.24491e-06
2851.39	1.66267e-06
2859.94	1.17623e-06
2868.5	1.8327e-06
2877.06	2.39572e-06
2885.62	3.74918e-06
2894.18	6.31621e-06
2902.73	5.18005e-06
2911.29	2.80334e-06
2919.85	1.58674e-06
2928.41	2.66007e-07
2936.96	-5.4057e-08
2945.52	-2.22965e-07
2954.08	-7.35553e-08
2962.64	-3.38849e-07
2971.19	-2.2749e-07
2979.75	-1.53426e-07
2988.31	1.66114e-07
2996.87	2.83133e-07
3005.42	9.85976e-07
3013.98	3.85922e-06
3022.54	2.45491e-05
3031.1	0.00011409
3039.66	0.000188524
3048.21	0.000225784
3056.77	0.000217611
3065.33	9.94752e-05
3073.89	0.000104323
3082.44	0.000140349
3091	0.000143219
3099.56	0.000140004
3108.12	0.000129344
3116.67	7.08632e-05
3125.23	8.06056e-06
3133.79	1.15983e-06
3142.35	8.2315e-08
3150.9	-1.18474e-07
3159.46	-1.90094e-07
3168.02	-8.84701e-08
3176.58	-2.65003e-07
3185.14	-2.49099e-07
3193.69	-2.49841e-07
3202.25	-1.34044e-07
3210.81	-1.86267e-07
3219.37	-2.25148e-07
3227.92	-1.59217e-07
3236.48	-2.1729e-07
3245.04	-1.19114e-07
3253.6	-3.44131e-08
3262.15	-1.92146e-07
3270.71	-1.49279e-07
3279.27	-2.41459e-07
3287.83	-3.18376e-07
3296.38	-2.66472e-07
3304.94	-2.0466e-07
3313.5	-1.79952e-07
3322.06	-1.771e-07
3330.62	-3.30715e-07
3339.17	-1.99116e-07
3347.73	-1.33724e-07
3356.29	-1.8295e-07
3364.85	-2.59022e-07
3373.4	-4.35511e-08
3381.96	-1.59159e-07
3390.52	-2.70008e-07
3399.08	-8.69131e-08
3407.63	6.82442e-08
3416.19	7.04705e-08
3424.75	-1.07052e-07
3433.31	7.01504e-08
3441.87	2.03481e-07
3450.42	3.79054e-08
3458.98	-6.46064e-09
3467.54	-1.16845e-08
3476.1	-2.56258e-07
3484.65	-1.09307e-07
3493.21	-2.20011e-07
3501.77	-9.11766e-08
3510.33	-1.33738e-07
3518.88	-1.30552e-07
3527.44	-2.79015e-07
3536	-3.59177e-07
3544.56	-1.49846e-07
3553.11	-1.83095e-07
3561.67	-1.78584e-07
3570.23	-2.08123e-07
3578.79	-1.68413e-07
3587.35	-1.89236e-07
3595.9	-1.82382e-07
3604.46	1.28776e-07
3613.02	1.92262e-07
3621.58	1.02505e-06
3630.13	4.35162e-07
3638.69	7.92084e-07
3647.25	2.26227e-06
3655.81	2.42993e-06
3664.36	7.88155e-07
3672.92	3.45543e-07
3681.48	2.42492e-07
3690.04	8.02415e-07
3698.59	1.6293e-06
3707.15	1.76613e-06
3715.71	8.65013e-07
3724.27	2.96229e-07
3732.83	1.83328e-07
3741.38	1.49002e-07
3749.94	-9.86703e-08
3758.5	2.33398e-08
3767.06	-5.78984e-08
3775.61	-1.4308e-07
3784.17	-9.45815e-08
3792.73	-9.91069e-08
3801.29	4.62533e-07
3809.84	-1.61254e-07
3818.4	-2.65934e-07
3826.96	-2.58178e-07
3835.52	-2.23591e-07
3844.08	-7.1198e-08
3852.63	-1.52727e-07
3861.19	-1.30304e-07
3869.75	-4.83384e-08
3878.31	-2.94003e-07
3886.86	-1.96613e-07
3895.42	-2.31143e-07
3903.98	-1.45976e-07
3912.54	6.30058e-09
3921.09	-5.25291e-09
3929.65	2.85491e-08
3938.21	3.77075e-07
3946.77	7.58267e-07
3955.32	5.71505e-07
3963.88	5.37587e-07
3972.44	7.1703e-07
