Infrared Spectrum: Benzene
Formula: C6 H6
CAS: 71-43-2
State: gas
Melting point: 5.5 C
Boiling point: 80.1 C
Class: IUPAC A
Instrument: IFS66V (Bruker)
Instrument parameters: KBr Beam Splitter; MCT Detector; Multipass cell
Sampling: 1 L/min Flow
Resolution: 0.9640
Temperature: 23 C
Pressure: 101.3 Pa
Origin: NIST, Analytical Chemistry Division, 301-975-3108
cm-1	(micromol/mol)-1m-1 (base 10)
575.171	4.16458e-07
583.849	2.99127e-07
592.527	5.47068e-07
601.206	6.64377e-07
609.884	7.98144e-07
618.562	7.96849e-07
627.24	1.16564e-06
635.918	4.99564e-06
644.597	4.19225e-05
653.275	0.00019074
661.953	0.000294196
670.631	0.000183112
679.309	0.000146953
687.987	0.000342932
696.666	0.000142223
705.344	2.04145e-05
714.022	8.35215e-07
722.7	-7.42542e-07
731.378	-5.42447e-07
740.057	-7.2548e-07
748.735	-5.58054e-07
757.413	-9.25931e-08
766.091	4.51229e-07
774.769	-2.58003e-08
783.448	3.42215e-07
792.126	5.4909e-07
800.804	1.0147e-07
809.482	-2.38395e-07
818.16	-3.83454e-07
826.838	-3.80406e-07
835.517	-4.1477e-07
844.195	-3.87995e-07
852.873	-3.09968e-07
861.551	-3.75087e-07
870.229	-3.65694e-07
878.908	-3.36467e-07
887.586	-3.02335e-07
896.264	-3.5737e-07
904.942	-3.46435e-07
913.62	-3.12282e-07
922.299	-3.15257e-07
930.977	-2.92651e-07
939.655	-3.49527e-07
948.333	-2.70176e-07
957.011	-2.66451e-07
965.689	-1.81796e-07
974.368	-1.73115e-07
983.046	-1.33804e-08
991.724	3.58767e-07
1000.4	1.21549e-06
1009.08	5.72106e-06
1017.76	2.24422e-05
1026.44	3.17171e-05
1035.11	4.5031e-05
1043.79	1.77543e-05
1052.47	2.97917e-05
1061.15	1.02945e-05
1069.83	9.98181e-07
1078.51	-1.55159e-07
1087.18	-1.70955e-07
1095.86	-1.30093e-07
1104.54	-2.4287e-07
1113.22	-2.21624e-07
1121.9	-2.19245e-07
1130.58	-2.44368e-07
1139.25	-2.93553e-07
1147.93	-2.09837e-07
1156.61	-2.30733e-07
1165.29	-2.27248e-07
1173.97	-1.78034e-07
1182.64	-1.00735e-07
1191.32	1.94492e-07
1200	-8.90279e-08
1208.68	-3.65396e-08
1217.36	2.05326e-08
1226.04	4.42433e-07
1234.71	1.10191e-06
1243.39	9.57297e-07
1252.07	1.0192e-06
1260.75	1.51397e-07
1269.43	-2.02838e-07
1278.1	-2.58062e-07
1286.78	-2.93801e-07
1295.46	-2.61962e-07
1304.14	-2.40512e-07
1312.82	-2.68306e-07
1321.5	-3.16451e-07
1330.17	-2.94005e-07
1338.85	-2.5868e-07
1347.53	-2.60208e-07
1356.21	-1.84204e-07
1364.89	1.77088e-07
1373.56	2.41029e-06
1382.24	3.64914e-06
1390.92	3.27732e-06
1399.6	3.26112e-06
1408.28	3.29416e-07
1416.96	-1.32763e-07
1425.63	-1.85535e-07
1434.31	-1.65388e-07
1442.99	-3.80748e-08
1451.67	1.2109e-06
1460.35	1.33213e-05
1469.02	5.28474e-05
1477.7	5.61088e-05
1486.38	5.81612e-05
1495.06	6.20016e-05
1503.74	2.80568e-05
1512.42	1.61173e-05
1521.09	1.26822e-05
1529.77	1.24621e-05
1538.45	2.8598e-06
1547.13	9.10506e-08
1555.81	-1.37216e-07
1564.48	-3.37893e-08
1573.16	-2.12529e-08
1581.84	-1.09575e-08
1590.52	2.56403e-08
1599.2	2.39472e-07
1607.88	6.3878e-07
1616.55	7.69579e-07
1625.23	5.39297e-07
1633.91	8.63933e-07
1642.59	4.11227e-07
1651.27	2.95802e-07
1659.94	8.16763e-07
1668.62	9.63518e-07
1677.3	1.10909e-06
1685.98	5.39261e-07
1694.66	8.37529e-08
1703.34	-4.35026e-08
1712.01	-1.37624e-07
1720.69	-6.15832e-08
1729.37	2.26011e-07
1738.05	9.52343e-07
1746.73	9.49214e-07
1755.4	2.60277e-06
1764.08	1.19288e-06
1772.76	1.88865e-06
1781.44	2.62181e-06
1790.12	7.65452e-06
1798.8	2.64196e-05
1807.47	3.08625e-05
1816.15	2.88367e-05
1824.83	2.31992e-05
1833.51	2.84653e-06
1842.19	2.28885e-07
1850.86	5.48094e-08
1859.54	2.0342e-07
1868.22	5.04082e-07
1876.9	5.6191e-07
1885.58	6.48799e-07
1894.26	1.78187e-07
1902.93	-2.35739e-09
1911.61	4.35172e-08
1920.29	2.05879e-07
1928.97	1.5084e-06
1937.65	6.66571e-06
1946.32	1.96903e-05
1955	2.10606e-05
1963.68	2.07222e-05
1972.36	1.17015e-05
1981.04	1.28639e-06
1989.72	1.67034e-06
1998.39	5.52925e-07
2007.07	6.16931e-07
2015.75	6.06017e-07
2024.43	5.64864e-07
2033.11	1.25866e-07
2041.78	-7.87834e-08
2050.46	-7.98239e-08
2059.14	-1.49694e-07
2067.82	-1.70758e-07
2076.5	-1.71457e-07
2085.18	-1.77117e-07
2093.85	-1.44543e-07
2102.53	-1.51899e-07
2111.21	-4.99563e-08
2119.89	-2.01251e-08
2128.57	-1.6063e-07
2137.24	-1.85608e-08
2145.92	-1.76746e-07
2154.6	-5.42782e-08
2163.28	-1.79402e-07
2171.96	-1.59219e-07
2180.64	-1.67579e-07
2189.31	-2.76557e-08
2197.99	4.07319e-07
2206.67	2.33216e-06
2215.35	2.03824e-06
2224.03	1.17955e-06
2232.7	1.36452e-07
2241.38	-1.18968e-07
2250.06	-1.41938e-07
2258.74	-1.20489e-07
2267.42	3.35419e-08
2276.1	8.48297e-08
2284.77	4.68059e-08
2293.45	4.25495e-08
2302.13	1.59946e-07
2310.81	2.14343e-06
2319.49	4.07143e-06
2328.16	4.7686e-06
2336.84	4.05012e-06
2345.52	9.82101e-07
2354.2	3.15876e-07
2362.88	7.23181e-07
2371.56	7.19397e-07
2380.23	6.10091e-07
2388.91	7.39733e-07
2397.59	1.10316e-06
2406.27	9.34487e-07
2414.95	3.82501e-07
2423.62	4.61881e-07
2432.3	7.72555e-08
2440.98	-5.45038e-08
2449.66	-7.68772e-08
2458.34	-3.3571e-08
2467.02	-2.6266e-09
2475.69	1.43153e-07
2484.37	1.69696e-07
2493.05	1.15338e-07
2501.73	-7.11219e-08
2510.41	-1.79198e-07
2519.09	-1.45009e-07
2527.76	-1.35572e-07
2536.44	-1.83869e-07
2545.12	-7.35739e-08
2553.8	7.87762e-08
2562.48	2.47963e-08
2571.15	9.01047e-08
2579.83	1.37653e-07
2588.51	5.38875e-07
2597.19	9.77241e-07
2605.87	1.58709e-06
2614.55	1.59157e-06
2623.22	7.45845e-07
2631.9	4.96136e-07
2640.58	2.10972e-07
2649.26	9.8563e-07
2657.94	7.44841e-07
2666.61	1.06771e-06
2675.29	2.76048e-08
2683.97	-1.09095e-07
2692.65	-1.84953e-07
2701.33	-3.2377e-07
2710.01	-1.87951e-07
2718.68	-2.45118e-07
2727.36	-2.52481e-07
2736.04	-1.45824e-07
2744.72	-2.02336e-07
2753.4	-2.46988e-07
2762.07	-1.94972e-07
2770.75	-1.8133e-07
2779.43	-2.04678e-07
2788.11	-1.20169e-07
2796.79	1.99323e-07
2805.47	1.00988e-06
2814.14	2.0587e-06
2822.82	2.24552e-06
2831.5	2.22062e-06
2840.18	2.42955e-06
2848.86	1.63534e-06
2857.53	1.29012e-06
2866.21	1.74723e-06
2874.89	1.99288e-06
2883.57	3.59128e-06
2892.25	5.32458e-06
2900.93	6.90277e-06
2909.6	3.10169e-06
2918.28	1.82196e-06
2926.96	5.04875e-07
2935.64	-7.64843e-08
2944.32	-2.62922e-07
2952.99	-1.5943e-07
2961.67	-3.91407e-07
2970.35	-2.99658e-07
2979.03	-1.53885e-07
2987.71	9.75262e-08
2996.39	2.61096e-07
3005.06	8.39894e-07
3013.74	3.51608e-06
3022.42	2.37389e-05
3031.1	0.000114208
3039.78	0.000188952
3048.45	0.00021918
3057.13	0.000217486
3065.81	9.49298e-05
3074.49	0.00010345
3083.17	0.000138686
3091.85	0.000142744
3100.52	0.000148849
3109.2	0.000133853
3117.88	5.55469e-05
3126.56	5.70819e-06
3135.24	7.38628e-07
3143.91	-1.90701e-08
3152.59	-8.60011e-08
3161.27	-1.39297e-07
3169.95	-1.79351e-07
3178.63	-1.38766e-07
3187.31	-1.48443e-07
3195.98	-1.53565e-07
3204.66	-1.89675e-07
3213.34	-2.10121e-07
3222.02	-1.75844e-07
3230.7	-6.66472e-09
3239.37	-7.1624e-08
3248.05	-6.04336e-08
3256.73	-4.1218e-08
3265.41	-8.64231e-08
3274.09	-5.46857e-08
3282.77	-1.67666e-07
3291.44	-2.4503e-07
3300.12	-1.44361e-07
3308.8	-8.15556e-08
3317.48	-1.97664e-07
3326.16	-2.47432e-07
3334.83	-1.7329e-07
3343.51	-1.73719e-07
3352.19	-1.25407e-07
3360.87	-1.24978e-07
3369.55	-1.80617e-07
3378.23	-1.1998e-07
3386.9	-1.06112e-07
3395.58	-2.06053e-08
3404.26	3.42986e-08
3412.94	-2.17258e-08
3421.62	-1.12667e-07
3430.29	1.96813e-08
3438.97	1.31898e-07
3447.65	1.35928e-07
3456.33	3.86896e-07
3465.01	3.00276e-08
3473.69	1.44499e-08
3482.36	-1.50364e-07
3491.04	-2.08229e-07
3499.72	-1.62143e-07
3508.4	-1.96129e-07
3517.08	-1.29511e-07
3525.75	-1.55464e-07
3534.43	-2.26382e-07
3543.11	-2.34051e-07
3551.79	-2.35361e-07
3560.47	-2.03325e-07
3569.15	-1.10172e-07
3577.82	-1.949e-07
3586.5	-1.37762e-07
3595.18	-1.2305e-07
3603.86	1.29031e-07
3612.54	2.76521e-07
3621.21	1.05543e-06
3629.89	5.55893e-07
3638.57	7.73937e-07
3647.25	2.30287e-06
3655.93	2.653e-06
3664.61	7.39006e-07
3673.28	4.08076e-07
3681.96	4.52117e-07
3690.64	9.94237e-07
3699.32	1.71315e-06
3708	1.86684e-06
3716.67	7.16865e-07
3725.35	2.39333e-07
3734.03	5.18044e-08
3742.71	1.98203e-07
3751.39	2.11729e-09
3760.07	7.28609e-08
3768.74	-7.75029e-08
3777.42	-1.25604e-07
3786.1	-1.21966e-07
3794.78	-1.25837e-07
3803.46	-1.12849e-07
3812.14	-1.4049e-07
3820.81	9.77153e-09
3829.49	-1.71071e-07
3838.17	1.0935e-07
3846.85	-1.05348e-07
3855.53	-1.56272e-07
3864.2	-1.49789e-07
3872.88	-1.4952e-07
3881.56	-1.19223e-07
3890.24	2.5096e-07
3898.92	-1.5569e-07
3907.6	-1.79329e-07
3916.27	-1.93321e-07
3924.95	5.66138e-08
3933.63	2.42418e-07
3942.31	4.89064e-07
3950.99	8.76746e-07
3959.66	5.51819e-07
3968.34	6.49767e-07
