Infrared Spectrum: Benzene
Formula: C6 H6
CAS: 71-43-2
State: gas
Melting point: 5.5 C
Boiling point: 80.1 C
Class: IUPAC A
Instrument: IFS66V (Bruker)
Instrument parameters: KBr Beam Splitter; MCT Detector; Multipass cell
Sampling: 1 L/min Flow
Resolution: 0.9640
Temperature: 23 C
Pressure: 101.3 Pa
Origin: NIST, Analytical Chemistry Division, 301-975-3108
cm-1	(micromol/mol)-1m-1 (base 10)
575.171	4.21964e-06
583.849	4.74209e-06
592.527	5.14047e-06
601.206	6.19752e-06
609.884	6.93118e-06
618.562	7.86377e-06
627.24	9.75534e-06
635.918	1.54119e-05
644.597	5.52751e-05
653.275	0.000210309
661.953	0.000329116
670.631	0.000368231
679.309	8.50425e-05
687.987	0.000317799
696.666	0.000126009
705.344	8.52519e-06
714.022	-8.5409e-06
722.7	-8.56085e-06
731.378	-7.08675e-06
740.057	-6.48974e-06
748.735	-5.63007e-06
757.413	-4.66002e-06
766.091	-3.67816e-06
774.769	-3.85233e-06
783.448	-3.14044e-06
792.126	-2.64524e-06
800.804	-2.86441e-06
809.482	-2.99168e-06
818.16	-3.01854e-06
826.838	-2.79159e-06
835.517	-2.71728e-06
844.195	-2.61005e-06
852.873	-2.37425e-06
861.551	-2.35843e-06
870.229	-2.30746e-06
878.908	-2.17406e-06
887.586	-2.04559e-06
896.264	-2.06062e-06
904.942	-2.00746e-06
913.62	-1.88529e-06
922.299	-1.84286e-06
930.977	-1.77236e-06
939.655	-1.76941e-06
948.333	-1.63676e-06
957.011	-1.62605e-06
965.689	-1.47797e-06
974.368	-1.42808e-06
983.046	-1.23953e-06
991.724	-7.99214e-07
1000.4	5.09604e-08
1009.08	4.52517e-06
1017.76	2.12672e-05
1026.44	3.0629e-05
1035.11	4.2516e-05
1043.79	1.68839e-05
1052.47	2.89153e-05
1061.15	9.37406e-06
1069.83	1.25829e-07
1078.51	-1.01518e-06
1087.18	-1.01859e-06
1095.86	-9.54896e-07
1104.54	-1.09486e-06
1113.22	-1.02488e-06
1121.9	-9.69776e-07
1130.58	-1.05272e-06
1139.25	-1.05276e-06
1147.93	-9.65148e-07
1156.61	-9.87536e-07
1165.29	-9.62485e-07
1173.97	-9.05369e-07
1182.64	-8.03558e-07
1191.32	-4.74709e-07
1200	-7.75778e-07
1208.68	-6.81293e-07
1217.36	-6.45278e-07
1226.04	-1.81126e-07
1234.71	4.53711e-07
1243.39	3.15083e-07
1252.07	3.81344e-07
1260.75	-4.29671e-07
1269.43	-8.25909e-07
1278.1	-8.33309e-07
1286.78	-9.08447e-07
1295.46	-8.21449e-07
1304.14	-7.89588e-07
1312.82	-8.39399e-07
1321.5	-8.62121e-07
1330.17	-8.48937e-07
1338.85	-7.83403e-07
1347.53	-7.30522e-07
1356.21	-6.46413e-07
1364.89	-3.23974e-07
1373.56	1.92277e-06
1382.24	3.19753e-06
1390.92	2.78473e-06
1399.6	2.76804e-06
1408.28	-1.75487e-07
1416.96	-6.07079e-07
1425.63	-6.07261e-07
1434.31	-6.00291e-07
1442.99	-4.51106e-07
1451.67	7.95489e-07
1460.35	1.28806e-05
1469.02	5.25024e-05
1477.7	5.58184e-05
1486.38	5.73649e-05
1495.06	6.17577e-05
1503.74	2.76254e-05
1512.42	1.58284e-05
1521.09	1.23058e-05
1529.77	1.21024e-05
1538.45	2.26325e-06
1547.13	-2.65323e-07
1555.81	-5.63089e-07
1564.48	-3.84189e-07
1573.16	-3.35703e-07
1581.84	-3.63438e-07
1590.52	-3.21995e-07
1599.2	-8.43786e-08
1607.88	2.9765e-07
1616.55	6.34066e-07
1625.23	2.06104e-07
1633.91	5.26513e-07
1642.59	1.18241e-07
1651.27	3.87078e-08
1659.94	4.61176e-07
1668.62	6.91603e-07
1677.3	8.32727e-07
1685.98	3.40257e-07
1694.66	-1.36292e-07
1703.34	-3.67804e-07
1712.01	-4.32283e-07
1720.69	-2.97999e-07
1729.37	-5.51731e-08
1738.05	6.8149e-07
1746.73	6.92273e-07
1755.4	2.05592e-06
1764.08	9.03179e-07
1772.76	1.81285e-06
1781.44	2.38145e-06
1790.12	7.35916e-06
1798.8	2.62001e-05
1807.47	3.05868e-05
1816.15	2.84671e-05
1824.83	2.29853e-05
1833.51	2.62247e-06
1842.19	3.10608e-08
1850.86	-1.87049e-07
1859.54	-2.49272e-08
1868.22	3.38402e-07
1876.9	3.73727e-07
1885.58	4.19557e-07
1894.26	-1.51484e-08
1902.93	-2.16895e-07
1911.61	-1.68692e-07
1920.29	2.22279e-08
1928.97	1.31088e-06
1937.65	6.42912e-06
1946.32	1.94822e-05
1955	2.09441e-05
1963.68	2.05811e-05
1972.36	1.15128e-05
1981.04	1.13302e-06
1989.72	1.79713e-06
1998.39	2.95744e-07
2007.07	5.98006e-07
2015.75	4.5096e-07
2024.43	3.82159e-07
2033.11	6.4901e-09
2041.78	-2.36707e-07
2050.46	-2.35281e-07
2059.14	-3.23035e-07
2067.82	-3.1549e-07
2076.5	-3.1322e-07
2085.18	-3.07909e-07
2093.85	-2.72912e-07
2102.53	-3.49716e-07
2111.21	-1.85397e-07
2119.89	-6.48792e-08
2128.57	-2.99185e-07
2137.24	-2.05391e-07
2145.92	-3.19281e-07
2154.6	-1.08731e-07
2163.28	-2.41131e-07
2171.96	-3.44172e-07
2180.64	-3.37282e-07
2189.31	-2.00786e-07
2197.99	2.92964e-07
2206.67	2.1965e-06
2215.35	1.9236e-06
2224.03	1.06741e-06
2232.7	5.72832e-08
2241.38	-2.28907e-07
2250.06	-2.27801e-07
2258.74	-2.1258e-07
2267.42	-9.5096e-08
2276.1	-2.18714e-08
2284.77	-4.61801e-08
2293.45	-5.08076e-08
2302.13	6.44863e-08
2310.81	2.03113e-06
2319.49	3.98871e-06
2328.16	4.67435e-06
2336.84	3.83337e-06
2345.52	8.67025e-07
2354.2	3.42178e-07
2362.88	8.80202e-07
2371.56	7.76979e-07
2380.23	4.6955e-07
2388.91	6.73632e-07
2397.59	1.06465e-06
2406.27	8.78216e-07
2414.95	3.1151e-07
2423.62	3.94477e-07
2432.3	3.95154e-08
2440.98	-1.38788e-07
2449.66	-1.37427e-07
2458.34	-7.15221e-08
2467.02	-6.64726e-08
2475.69	9.13271e-08
2484.37	1.40767e-07
2493.05	8.15701e-08
2501.73	-8.31926e-08
2510.41	-1.86976e-07
2519.09	-1.72526e-07
2527.76	-1.47155e-07
2536.44	-2.25196e-07
2545.12	-6.75131e-08
2553.8	6.10011e-08
2562.48	-1.88446e-09
2571.15	1.00764e-07
2579.83	1.47832e-07
2588.51	5.21427e-07
2597.19	9.83134e-07
2605.87	1.51887e-06
2614.55	1.59139e-06
2623.22	7.2572e-07
2631.9	5.15025e-07
2640.58	2.03776e-07
2649.26	1.05137e-06
2657.94	7.21784e-07
2666.61	1.05354e-06
2675.29	3.14101e-08
2683.97	-8.97773e-08
2692.65	-1.88788e-07
2701.33	-3.05595e-07
2710.01	-1.84335e-07
2718.68	-2.60725e-07
2727.36	-2.59568e-07
2736.04	-1.08927e-07
2744.72	-1.6573e-07
2753.4	-2.07574e-07
2762.07	-2.07152e-07
2770.75	-1.47963e-07
2779.43	-2.02605e-07
2788.11	-9.74898e-08
2796.79	2.38118e-07
2805.47	1.06442e-06
2814.14	2.08747e-06
2822.82	2.24526e-06
2831.5	2.23572e-06
2840.18	2.49262e-06
2848.86	1.67076e-06
2857.53	1.34818e-06
2866.21	1.78798e-06
2874.89	2.10945e-06
2883.57	3.64794e-06
2892.25	5.35951e-06
2900.93	6.96126e-06
2909.6	3.1517e-06
2918.28	1.85017e-06
2926.96	5.23516e-07
2935.64	-1.2369e-08
2944.32	-2.70525e-07
2952.99	-2.79904e-08
2961.67	-3.961e-07
2970.35	-2.66058e-07
2979.03	-1.1194e-07
2987.71	1.76142e-07
2996.39	4.01761e-07
3005.06	9.10121e-07
3013.74	3.55163e-06
3022.42	2.37399e-05
3031.1	0.0001142
3039.78	0.00018931
3048.45	0.000219866
3057.13	0.000218141
3065.81	9.49169e-05
3074.49	0.000103914
3083.17	0.000139145
3091.85	0.000143265
3100.52	0.000162232
3109.2	0.000134253
3117.88	5.55689e-05
3126.56	5.8437e-06
3135.24	8.97606e-07
3143.91	7.64115e-08
3152.59	1.51099e-07
3161.27	-3.47424e-08
3169.95	-9.6624e-09
3178.63	5.0422e-09
3187.31	-5.41327e-09
3195.98	5.03128e-08
3204.66	1.88882e-08
3213.34	-7.99258e-08
3222.02	-4.69296e-08
3230.7	1.85812e-07
3239.37	4.70169e-08
3248.05	6.40861e-08
3256.73	1.34168e-07
3265.41	9.38227e-08
3274.09	2.00742e-07
3282.77	2.16458e-08
3291.44	-8.26106e-08
3300.12	-9.30588e-09
3308.8	1.78434e-07
3317.48	-4.57436e-08
3326.16	-7.89799e-08
3334.83	-2.84415e-08
3343.51	1.08062e-07
3352.19	1.19165e-07
3360.87	1.0267e-07
3369.55	-3.45241e-08
3378.23	1.52554e-07
3386.9	9.12325e-08
3395.58	1.77976e-07
3404.26	2.39304e-07
3412.94	2.08484e-07
3421.62	1.78063e-07
3430.29	3.04882e-07
3438.97	3.39406e-07
3447.65	3.85186e-07
3456.33	4.02619e-07
3465.01	2.55115e-07
3473.69	2.15978e-07
3482.36	6.15177e-08
3491.04	-4.00174e-10
3499.72	1.44572e-07
3508.4	-1.1576e-08
3517.08	8.04132e-08
3525.75	1.03529e-07
3534.43	2.90163e-08
3543.11	4.30879e-08
3551.79	3.88024e-08
3560.47	5.31213e-08
3569.15	1.93568e-07
3577.82	9.61947e-08
3586.5	1.56657e-07
3595.18	1.64814e-07
3603.86	4.6477e-07
3612.54	6.69186e-07
3621.21	1.61764e-06
3629.89	8.86779e-07
3638.57	1.06412e-06
3647.25	2.69421e-06
3655.93	2.95306e-06
3664.61	9.78507e-07
3673.28	6.60535e-07
3681.96	8.00596e-07
3690.64	1.32586e-06
3699.32	2.04217e-06
3708	2.28638e-06
3716.67	1.01619e-06
3725.35	5.87551e-07
3734.03	3.32698e-07
3742.71	5.46296e-07
3751.39	2.68153e-07
3760.07	5.40978e-07
3768.74	3.20314e-07
3777.42	2.36743e-07
3786.1	2.5422e-07
3794.78	2.10303e-07
3803.46	2.3579e-07
3812.14	2.60179e-07
3820.81	4.78361e-07
3829.49	2.51077e-07
3838.17	5.64792e-07
3846.85	4.10899e-07
3855.53	2.97286e-07
3864.2	3.1963e-07
3872.88	2.99127e-07
3881.56	3.64828e-07
3890.24	8.94623e-07
3898.92	2.30828e-07
3907.6	3.06163e-07
3916.27	1.70343e-07
3924.95	5.10113e-07
3933.63	7.64719e-07
3942.31	9.70227e-07
3950.99	1.35655e-06
3959.66	1.07406e-06
3968.34	1.13263e-06
