Infrared Spectrum: 1,1,1-Trichloroethane
Formula: C H3 C Cl3
CAS: 71-55-6
State: gas
Melting point: -30.41 C
Boiling point: 74.1 C
Class: IUPAC A
Instrument: IFS66V (Bruker)
Instrument parameters: KBr Beam Splitter; MCT Detector; Multipass cell
Sampling: 1 L/min Flow
Resolution: 1.9290
Temperature: 23 C
Pressure: 101.3 Pa
Origin: NIST, Analytical Chemistry Division, 301-975-3108
cm-1	(micromol/mol)-1m-1 (base 10)
575.652	3.493e-06
584.33	1.26964e-06
593.008	7.66896e-07
601.687	-7.27342e-08
610.365	-9.7353e-08
619.043	8.4517e-08
627.721	1.08123e-07
636.399	-4.2475e-08
645.077	-2.95408e-08
653.756	1.57839e-07
662.434	1.14394e-06
671.112	5.00346e-06
679.79	1.68573e-05
688.468	3.73813e-05
697.147	3.97721e-05
705.825	0.000122161
714.503	0.000654863
723.181	0.00187798
731.859	0.000932291
740.537	8.56054e-05
749.216	3.18585e-05
757.894	1.40101e-05
766.572	1.12848e-05
775.25	6.38142e-06
783.928	3.94511e-06
792.607	5.77878e-06
801.285	7.55375e-06
809.963	7.33138e-06
818.641	5.7517e-06
827.319	3.83734e-06
835.997	2.72089e-06
844.676	2.10728e-06
853.354	2.78115e-06
862.032	5.99093e-06
870.71	6.7892e-06
879.388	1.83937e-06
888.066	3.62003e-07
896.745	8.10484e-08
905.423	-7.85765e-10
914.101	7.74815e-08
922.779	2.15862e-07
931.457	2.71544e-07
940.136	5.91919e-07
948.814	1.83903e-06
957.492	3.33757e-06
966.17	3.2069e-06
974.848	2.07789e-06
983.526	1.81239e-06
992.205	6.23235e-06
1000.88	1.08789e-05
1009.56	1.87584e-05
1018.24	1.33645e-05
1026.92	2.44738e-06
1035.6	2.79667e-06
1044.27	5.84257e-06
1052.95	1.81308e-05
1061.63	7.62776e-05
1070.31	0.000179021
1078.99	0.000334335
1087.66	0.000884226
1096.34	0.000636983
1105.02	9.3815e-05
1113.7	3.75075e-05
1122.38	1.1537e-05
1131.06	1.54911e-06
1139.73	3.98579e-07
1148.41	3.04178e-07
1157.09	2.39029e-07
1165.77	1.02855e-07
1174.45	1.52169e-08
1183.12	1.48748e-07
1191.8	3.39943e-07
1200.48	5.10158e-07
1209.16	5.22765e-07
1217.84	9.38931e-07
1226.52	1.61319e-06
1235.19	4.88171e-06
1243.87	9.23132e-06
1252.55	8.95214e-06
1261.23	2.04776e-06
1269.91	1.14146e-06
1278.58	4.55322e-07
1287.26	5.8367e-07
1295.94	6.15619e-07
1304.62	7.79391e-07
1313.3	6.86284e-07
1321.98	7.91256e-07
1330.65	2.64896e-07
1339.33	4.41582e-07
1348.01	1.05081e-07
1356.69	7.90887e-07
1365.37	5.5357e-06
1374.04	3.75082e-05
1382.72	4.80076e-05
1391.4	5.01552e-05
1400.08	1.52694e-05
1408.76	4.71019e-06
1417.44	1.32909e-05
1426.11	2.1086e-05
1434.79	1.70295e-05
1443.47	3.2874e-05
1452.15	2.65983e-05
1460.83	2.24361e-05
1469.5	1.6837e-05
1478.18	2.96978e-06
1486.86	5.73988e-07
1495.54	1.18543e-07
1504.22	8.12448e-08
1512.9	-8.46516e-09
1521.57	-3.19126e-08
1530.25	4.81372e-08
1538.93	-9.16998e-08
1547.61	2.61376e-08
1556.29	3.32568e-08
1564.96	2.2498e-08
1573.64	3.96084e-08
1582.32	7.83073e-08
1591	1.05101e-07
1599.68	3.48974e-08
1608.36	1.10407e-08
1617.03	-1.89551e-07
1625.71	-2.24998e-08
1634.39	-9.04939e-08
1643.07	-4.45994e-09
1651.75	-1.40759e-07
1660.42	5.42014e-08
1669.1	-1.56425e-10
1677.78	1.21179e-07
1686.46	1.48568e-07
1695.14	2.00401e-07
1703.82	2.85684e-07
1712.49	4.48464e-07
1721.17	6.14985e-07
1729.85	8.0658e-07
1738.53	5.22543e-07
1747.21	3.39532e-07
1755.88	1.81839e-07
1764.56	1.835e-07
1773.24	2.01838e-07
1781.92	7.33553e-07
1790.6	1.37791e-06
1799.28	1.39793e-06
1807.95	4.50232e-07
1816.63	3.4876e-07
1825.31	2.13195e-07
1833.99	1.6548e-07
1842.67	2.90169e-08
1851.34	-1.89857e-08
1860.02	-4.72114e-08
1868.7	-5.21042e-08
1877.38	-2.52991e-08
1886.06	2.43878e-08
1894.74	1.30839e-07
1903.41	3.14988e-07
1912.09	3.65095e-07
1920.77	3.11581e-07
1929.45	1.43913e-07
1938.13	9.15434e-08
1946.8	6.3727e-08
1955.48	6.79905e-08
1964.16	6.18753e-08
1972.84	7.55717e-08
1981.52	2.66105e-08
1990.2	-5.69134e-09
1998.87	-3.12687e-08
2007.55	-3.17525e-08
2016.23	-4.38628e-08
2024.91	9.98394e-09
2033.59	3.65217e-08
2042.26	1.11244e-08
2050.94	-4.97105e-09
2059.62	1.55534e-08
2068.3	1.39801e-08
2076.98	8.38331e-08
2085.66	1.17059e-07
2094.33	3.4012e-07
2103.01	1.18701e-06
2111.69	1.9423e-06
2120.37	2.165e-06
2129.05	3.59526e-06
2137.72	5.57966e-06
2146.4	2.3359e-06
2155.08	1.03292e-06
2163.76	3.88228e-07
2172.44	-4.67639e-08
2181.12	6.69392e-08
2189.79	-1.05955e-07
2198.47	-1.7155e-07
2207.15	-1.511e-07
2215.83	-1.02049e-07
2224.51	-1.02382e-07
2233.18	-5.32228e-08
2241.86	-3.17398e-08
2250.54	-2.31364e-09
2259.22	-2.16413e-08
2267.9	-1.19738e-08
2276.58	-9.91482e-09
2285.25	-2.39149e-08
2293.93	-1.79707e-09
2302.61	1.05533e-08
2311.29	7.37928e-08
2319.97	2.05661e-07
2328.64	4.45727e-07
2337.32	5.81182e-07
2346	2.94256e-07
2354.68	5.24407e-07
2363.36	7.73997e-07
2372.04	3.39496e-07
2380.71	3.99485e-08
2389.39	4.41811e-09
2398.07	2.30837e-08
2406.75	5.26062e-08
2415.43	1.36501e-07
2424.1	4.63343e-07
2432.78	1.37652e-06
2441.46	3.34777e-06
2450.14	7.24126e-06
2458.82	5.21754e-06
2467.5	2.03443e-06
2476.17	8.83887e-07
2484.85	3.46775e-07
2493.53	3.56992e-07
2502.21	4.26474e-07
2510.89	5.97905e-07
2519.56	5.69949e-07
2528.24	4.28937e-07
2536.92	4.67905e-07
2545.6	4.13631e-07
2554.28	2.70818e-07
2562.96	1.20291e-07
2571.63	-6.38798e-09
2580.31	-8.21597e-09
2588.99	-2.93898e-08
2597.67	-2.35911e-08
2606.35	4.25623e-08
2615.02	8.80166e-09
2623.7	-2.58138e-08
2632.38	-1.21539e-08
2641.06	6.26247e-09
2649.74	6.45127e-08
2658.42	1.53515e-07
2667.09	2.70803e-07
2675.77	1.75553e-07
2684.45	5.08092e-08
2693.13	2.27362e-10
2701.81	-4.75169e-08
2710.48	1.93022e-08
2719.16	1.86073e-09
2727.84	-4.73369e-08
2736.52	-3.60742e-08
2745.2	-7.04806e-08
2753.88	-3.00191e-08
2762.55	4.46194e-08
2771.23	1.75997e-08
2779.91	2.43151e-08
2788.59	1.7476e-08
2797.27	2.61732e-07
2805.94	4.96803e-07
2814.62	6.77389e-07
2823.3	1.11484e-06
2831.98	1.04105e-06
2840.66	9.48671e-07
2849.34	1.15342e-06
2858.01	1.60603e-06
2866.69	2.47572e-06
2875.37	2.4984e-06
2884.05	2.22887e-06
2892.73	2.22211e-06
2901.4	1.70448e-06
2910.08	1.0254e-06
2918.76	3.88897e-07
2927.44	3.15985e-07
2936.12	4.89536e-06
2944.8	1.02107e-05
2953.47	6.26316e-06
2962.15	9.88519e-06
2970.83	1.3556e-06
2979.51	6.61832e-07
2988.19	9.69847e-07
2996.86	5.22543e-06
3005.54	4.39806e-05
3014.22	7.13238e-05
3022.9	3.62412e-05
3031.58	1.72057e-06
3040.26	1.23189e-07
3048.93	1.59676e-07
3057.61	6.97548e-08
3066.29	3.1216e-08
3074.97	5.02617e-08
3083.65	-3.80514e-09
3092.32	4.90576e-08
3101	-1.84618e-08
3109.68	-1.94477e-08
3118.36	-9.2964e-09
3127.04	-1.06842e-08
3135.72	-1.71231e-08
3144.39	-1.69485e-08
3153.07	6.51093e-08
3161.75	1.21859e-07
3170.43	2.00754e-07
3179.11	3.915e-07
3187.78	5.06347e-07
3196.46	3.3855e-07
3205.14	1.11189e-07
3213.82	1.4065e-07
3222.5	6.41908e-08
3231.18	7.06443e-08
3239.85	4.21403e-07
3248.53	8.5758e-07
3257.21	7.64951e-07
3265.89	2.24612e-07
3274.57	8.57811e-08
3283.24	3.76265e-07
3291.92	8.54376e-07
3300.6	8.63057e-07
3309.28	3.41659e-07
3317.96	1.18683e-08
3326.64	-2.46425e-08
3335.31	1.26781e-07
3343.99	1.05924e-06
3352.67	2.27885e-06
3361.35	1.81392e-06
3370.03	8.72444e-07
3378.7	8.87732e-08
3387.38	-5.35029e-08
3396.06	-6.80742e-08
3404.74	-9.05085e-08
3413.42	-7.9857e-08
3422.1	-1.04314e-07
3430.77	-7.73178e-08
3439.45	-9.02411e-08
3448.13	-5.18841e-08
3456.81	-2.2036e-08
3465.49	5.89142e-09
3474.16	1.18923e-07
3482.84	5.0078e-08
3491.52	4.02632e-08
3500.2	9.77586e-08
3508.88	2.70343e-08
3517.56	9.51903e-08
3526.23	2.83692e-07
3534.91	4.46624e-07
3543.59	4.26308e-07
3552.27	1.56602e-07
3560.95	5.13712e-08
3569.62	1.92622e-08
3578.3	-3.04593e-08
3586.98	-7.5086e-08
3595.66	-4.25659e-08
3604.34	-6.53131e-08
3613.02	-1.16608e-07
3621.69	-2.41859e-08
3630.37	-1.01971e-07
3639.05	-6.11951e-08
3647.73	-5.56656e-08
3656.41	-1.19416e-07
3665.08	-2.758e-08
3673.76	-1.47222e-08
3682.44	-1.69158e-09
3691.12	-7.34763e-08
3699.8	-5.15385e-08
3708.48	-8.90352e-08
3717.15	-5.38231e-08
3725.83	-1.82963e-08
3734.51	2.92043e-08
3743.19	-2.0559e-08
3751.87	-1.55987e-07
3760.54	-9.03157e-08
3769.22	-1.12246e-07
3777.9	-1.29928e-07
3786.58	-6.93074e-08
3795.26	-8.84349e-08
3803.94	-2.84712e-08
3812.61	-1.41401e-08
3821.29	-8.05427e-08
3829.97	7.79053e-08
3838.65	-5.90051e-08
3847.33	-9.24711e-08
3856	-6.96057e-08
3864.68	-1.40563e-07
3873.36	-7.24031e-08
3882.04	-7.74033e-08
3890.72	-6.55713e-08
3899.4	-9.0694e-08
3908.07	1.83909e-08
3916.75	8.42951e-08
3925.43	1.18716e-07
3934.11	1.81352e-07
3942.79	2.86891e-07
3951.46	4.20186e-07
3960.14	3.81245e-07
3968.82	3.42235e-07
