Infrared Spectrum: 1,1,1-Trichloroethane
Formula: C H3 C Cl3
CAS: 71-55-6
State: gas
Melting point: -30.41 C
Boiling point: 74.1 C
Class: IUPAC A
Instrument: IFS66V (Bruker)
Instrument parameters: KBr Beam Splitter; MCT Detector; Multipass cell
Sampling: 1 L/min Flow
Resolution: 0.9640
Temperature: 23 C
Pressure: 101.3 Pa
Origin: NIST, Analytical Chemistry Division, 301-975-3108
cm-1	(micromol/mol)-1m-1 (base 10)
575.17	3.44501e-06
583.848	1.23911e-06
592.526	1.13761e-06
601.205	-6.26084e-08
609.883	-3.11041e-07
618.561	1.60904e-07
627.239	-4.29933e-08
635.917	-1.33229e-07
644.595	-5.23279e-08
653.274	1.79896e-07
661.952	1.0052e-06
670.63	4.56709e-06
679.308	1.59212e-05
687.986	3.59965e-05
696.665	3.789e-05
705.343	0.000111092
714.021	0.00059244
722.699	0.00186056
731.377	0.00105959
740.055	9.39025e-05
748.734	3.38214e-05
757.412	1.41321e-05
766.09	9.65131e-06
774.768	6.72298e-06
783.446	4.14456e-06
792.125	5.57936e-06
800.803	8.03635e-06
809.481	7.69369e-06
818.159	5.81224e-06
826.837	4.0632e-06
835.515	2.88222e-06
844.194	2.29156e-06
852.872	2.81829e-06
861.55	6.32559e-06
870.228	5.49694e-06
878.906	2.14064e-06
887.584	4.70657e-07
896.263	2.10147e-07
904.941	2.49117e-08
913.619	2.2735e-07
922.297	2.19348e-07
930.975	3.16643e-07
939.654	6.08026e-07
948.332	1.81912e-06
957.01	3.32131e-06
965.688	3.47314e-06
974.366	2.28565e-06
983.044	1.81853e-06
991.723	5.94977e-06
1000.4	1.05383e-05
1009.08	1.8826e-05
1017.76	1.52608e-05
1026.44	2.63855e-06
1035.11	2.7605e-06
1043.79	5.51228e-06
1052.47	1.66918e-05
1061.15	7.09603e-05
1069.83	0.000166356
1078.5	0.00030684
1087.18	0.000889244
1095.86	0.000675639
1104.54	0.000101175
1113.22	3.88553e-05
1121.9	1.2742e-05
1130.57	1.7908e-06
1139.25	5.01593e-07
1147.93	3.4753e-07
1156.61	3.39525e-07
1165.29	1.88704e-07
1173.96	1.04614e-07
1182.64	2.26071e-07
1191.32	4.70155e-07
1200	6.14183e-07
1208.68	7.07918e-07
1217.36	1.0081e-06
1226.03	1.63213e-06
1234.71	4.71102e-06
1243.39	9.23374e-06
1252.07	9.75181e-06
1260.75	2.44765e-06
1269.42	1.26095e-06
1278.1	6.99625e-07
1286.78	7.88209e-07
1295.46	8.68878e-07
1304.14	1.05388e-06
1312.82	1.10631e-06
1321.49	1.10176e-06
1330.17	7.48172e-07
1338.85	8.17546e-07
1347.53	9.11396e-07
1356.21	1.29641e-06
1364.88	6.18444e-06
1373.56	3.60497e-05
1382.24	3.15999e-05
1390.92	4.54077e-05
1399.6	1.5875e-05
1408.28	3.62657e-06
1416.95	1.21925e-05
1425.63	1.78726e-05
1434.31	1.59435e-05
1442.99	3.18015e-05
1451.67	2.45954e-05
1460.34	2.20343e-05
1469.02	1.76955e-05
1477.7	3.11301e-06
1486.38	3.81485e-07
1495.06	-2.11065e-08
1503.74	-7.25996e-08
1512.41	-1.78181e-07
1521.09	-3.45125e-07
1529.77	-7.79344e-08
1538.45	-5.79683e-08
1547.13	-3.47555e-08
1555.8	-7.84619e-08
1564.48	-1.05478e-07
1573.16	-7.92968e-08
1581.84	-2.56047e-08
1590.52	-4.78971e-08
1599.2	-6.39307e-08
1607.87	-1.07412e-07
1616.55	-5.0495e-07
1625.23	-1.53584e-07
1633.91	-1.09269e-07
1642.59	-7.64447e-08
1651.26	-1.03488e-07
1659.94	-1.84e-08
1668.62	-3.32841e-08
1677.3	4.2173e-08
1685.98	1.06038e-07
1694.66	2.28072e-07
1703.33	2.23788e-07
1712.01	4.27833e-07
1720.69	5.24162e-07
1729.37	6.69639e-07
1738.05	5.39904e-07
1746.72	2.99204e-07
1755.4	1.52822e-07
1764.08	1.11588e-07
1772.76	-3.60306e-08
1781.44	6.2751e-07
1790.12	1.35838e-06
1798.79	1.41843e-06
1807.47	4.36723e-07
1816.15	2.71038e-07
1824.83	1.81772e-07
1833.51	9.14652e-08
1842.18	-3.10668e-09
1850.86	-9.24183e-08
1859.54	-6.72302e-08
1868.22	-6.96639e-08
1876.9	-2.20978e-08
1885.58	-9.83479e-09
1894.25	8.60158e-08
1902.93	2.61109e-07
1911.61	4.54017e-07
1920.29	2.8667e-07
1928.97	1.5616e-07
1937.64	8.08101e-08
1946.32	6.74921e-08
1955	3.61052e-08
1963.68	5.3834e-08
1972.36	5.79174e-08
1981.04	1.22212e-08
1989.71	-5.36703e-08
1998.39	-3.89117e-08
2007.07	-5.7701e-08
2015.75	-4.56107e-08
2024.43	-1.7054e-08
2033.1	3.51975e-08
2041.78	-3.06739e-08
2050.46	-3.39807e-08
2059.14	1.06224e-08
2067.82	1.47003e-08
2076.5	7.29761e-08
2085.17	1.14733e-07
2093.85	2.82684e-07
2102.53	1.16011e-06
2111.21	1.86343e-06
2119.89	1.94128e-06
2128.56	3.52298e-06
2137.24	5.67243e-06
2145.92	2.58292e-06
2154.6	9.51301e-07
2163.28	3.82082e-07
2171.96	-3.27584e-09
2180.63	1.46751e-07
2189.31	-6.7112e-08
2197.99	-1.46778e-07
2206.67	-1.96718e-07
2215.35	-1.30497e-07
2224.02	-1.19498e-07
2232.7	-7.97242e-08
2241.38	-6.01256e-08
2250.06	-1.80617e-08
2258.74	-3.6971e-08
2267.42	-3.09449e-08
2276.09	-4.12017e-08
2284.77	-2.13903e-09
2293.45	-4.19457e-08
2302.13	-3.61979e-08
2310.81	1.70067e-08
2319.48	2.1618e-07
2328.16	2.61432e-07
2336.84	-1.93878e-07
2345.52	2.7686e-07
2354.2	8.55996e-07
2362.88	1.8264e-06
2371.55	7.75337e-07
2380.23	-3.18417e-08
2388.91	4.88557e-09
2397.59	-1.00058e-08
2406.27	5.05109e-08
2414.94	1.12564e-07
2423.62	4.2577e-07
2432.3	1.29675e-06
2440.98	3.13938e-06
2449.66	6.22587e-06
2458.34	5.24921e-06
2467.01	2.06278e-06
2475.69	9.04428e-07
2484.37	3.2115e-07
2493.05	3.694e-07
2501.73	3.94894e-07
2510.4	5.60509e-07
2519.08	5.92259e-07
2527.76	4.58195e-07
2536.44	4.2734e-07
2545.12	4.07166e-07
2553.8	3.00031e-07
2562.47	1.04632e-07
2571.15	-9.87117e-09
2579.83	-6.38779e-08
2588.51	-7.97206e-08
2597.19	-4.51378e-08
2605.86	3.44754e-08
2614.54	-3.34223e-08
2623.22	-4.69076e-08
2631.9	-2.45297e-08
2640.58	1.26286e-08
2649.26	7.5548e-08
2657.93	1.03646e-07
2666.61	2.42985e-07
2675.29	1.35865e-07
2683.97	1.99097e-08
2692.65	3.12305e-09
2701.32	-1.14911e-07
2710	1.85873e-08
2718.68	1.91694e-08
2727.36	-3.11978e-08
2736.04	-6.96293e-08
2744.72	-3.74039e-08
2753.39	-2.68506e-08
2762.07	-4.83627e-08
2770.75	-6.75303e-08
2779.43	1.46676e-08
2788.11	-6.07021e-08
2796.78	2.43192e-07
2805.46	4.07264e-07
2814.14	6.20478e-07
2822.82	1.15111e-06
2831.5	1.00884e-06
2840.18	9.1268e-07
2848.85	1.02165e-06
2857.53	1.54303e-06
2866.21	2.44228e-06
2874.89	2.50295e-06
2883.57	2.09899e-06
2892.24	2.17019e-06
2900.92	1.71416e-06
2909.6	1.0417e-06
2918.28	3.84281e-07
2926.96	1.19616e-07
2935.63	4.18623e-06
2944.31	1.05679e-05
2952.99	6.79117e-06
2961.67	1.07519e-05
2970.35	1.55748e-06
2979.03	8.23256e-07
2987.7	1.04784e-06
2996.38	4.5104e-06
3005.06	4.29976e-05
3013.74	8.21189e-05
3022.42	3.96281e-05
3031.09	2.04474e-06
3039.77	9.83043e-08
3048.45	1.78007e-07
3057.13	1.20149e-07
3065.81	7.0275e-08
3074.49	-2.1845e-08
3083.16	1.6461e-08
3091.84	2.46861e-08
3100.52	6.3867e-08
3109.2	-6.21209e-08
3117.88	3.69855e-08
3126.55	-3.3897e-08
3135.23	-2.25853e-08
3143.91	2.64159e-08
3152.59	7.64502e-08
3161.27	1.22929e-07
3169.95	2.61752e-07
3178.62	4.08612e-07
3187.3	3.77445e-07
3195.98	3.70068e-07
3204.66	4.91067e-08
3213.34	1.38378e-07
3222.01	9.84061e-08
3230.69	2.34693e-08
3239.37	4.24762e-07
3248.05	8.55483e-07
3256.73	8.52828e-07
3265.41	2.09828e-07
3274.08	7.77343e-08
3282.76	2.9143e-07
3291.44	8.93764e-07
3300.12	7.9604e-07
3308.8	3.26689e-07
3317.47	2.36057e-08
3326.15	1.87165e-09
3334.83	1.59321e-07
3343.51	8.99e-07
3352.19	2.09683e-06
3360.87	1.89277e-06
3369.54	8.91816e-07
3378.22	4.12745e-08
3386.9	-3.4168e-08
3395.58	-7.47059e-08
3404.26	-1.20349e-07
3412.93	-2.41495e-08
3421.61	-1.15955e-07
3430.29	-1.72414e-08
3438.97	-3.7413e-08
3447.65	-3.1396e-08
3456.33	7.56681e-08
3465	-2.57192e-08
3473.68	1.54899e-07
3482.36	6.45855e-08
3491.04	1.82181e-08
3499.72	1.62761e-07
3508.39	1.30615e-07
3517.07	1.27299e-07
3525.75	3.06496e-07
3534.43	4.35014e-07
3543.11	3.20956e-07
3551.79	1.30399e-07
3560.46	1.38577e-07
3569.14	4.46995e-08
3577.82	-7.59718e-08
3586.5	-4.72805e-08
3595.18	-7.51042e-08
3603.85	-6.25138e-08
3612.53	-2.02511e-07
3621.21	-3.05557e-08
3629.89	-2.89458e-07
3638.57	-4.07143e-08
3647.25	-6.38288e-08
3655.92	-2.49644e-08
3664.6	-6.07258e-08
3673.28	7.05679e-08
3681.96	4.8239e-08
3690.64	-2.41732e-09
3699.31	-1.10596e-07
3707.99	-9.54795e-08
3716.67	-3.77222e-08
3725.35	3.27002e-08
3734.03	8.55956e-08
3742.71	7.85019e-08
3751.38	6.99003e-09
3760.06	-2.02194e-07
3768.74	-9.35606e-08
3777.42	-1.45088e-07
3786.1	-1.19582e-07
3794.77	-1.08192e-07
3803.45	7.83582e-09
3812.13	-3.86134e-08
3820.81	-1.299e-07
3829.49	1.10522e-07
3838.17	-1.20922e-07
3846.84	-8.00389e-08
3855.52	-9.41481e-08
3864.2	-8.56611e-08
3872.88	-2.97536e-08
3881.56	-5.37885e-08
3890.23	-7.23413e-08
3898.91	-5.8514e-08
3907.59	7.27706e-08
3916.27	1.30355e-07
3924.95	3.9943e-08
3933.63	1.48668e-07
3942.3	2.74514e-07
3950.98	4.68578e-07
3959.66	3.70213e-07
3968.34	4.17796e-07
