Infrared Spectrum: 1,1,1-Trichloroethane
Formula: C H3 C Cl3
CAS: 71-55-6
State: gas
Melting point: -30.41 C
Boiling point: 74.1 C
Class: IUPAC A
Instrument: IFS66V (Bruker)
Instrument parameters: KBr Beam Splitter; MCT Detector; Multipass cell
Sampling: 1 L/min Flow
Resolution: 0.2410
Temperature: 23 C
Pressure: 101.3 Pa
Origin: NIST, Analytical Chemistry Division, 301-975-3108
cm-1	(micromol/mol)-1m-1 (base 10)
575.05	3.20218e-06
583.608	1.28969e-06
592.165	8.28818e-07
600.723	-7.18356e-08
609.281	-1.89744e-07
617.838	1.62351e-07
626.396	4.73823e-08
634.954	-1.0508e-07
643.511	2.33014e-07
652.069	-7.59573e-08
660.626	7.30807e-07
669.184	3.86261e-06
677.742	1.31324e-05
686.299	3.32626e-05
694.857	3.52224e-05
703.415	8.30703e-05
711.972	0.000396981
720.53	0.00163803
729.088	0.00181813
737.645	0.000173132
746.203	3.4358e-05
754.761	1.83243e-05
763.318	1.6849e-05
771.876	6.7994e-06
780.434	4.68213e-06
788.991	4.18428e-06
797.549	9.01133e-06
806.106	9.02907e-06
814.664	5.10374e-06
823.222	4.31692e-06
831.779	3.42173e-06
840.337	2.34298e-06
848.895	1.99201e-06
857.452	4.2396e-06
866.01	6.2733e-06
874.568	3.66409e-06
883.125	8.35241e-07
891.683	3.02778e-07
900.241	-7.68485e-09
908.798	1.58208e-08
917.356	1.41048e-07
925.914	1.81075e-07
934.471	3.11934e-07
943.029	8.95863e-07
951.586	2.32021e-06
960.144	3.92388e-06
968.702	2.57289e-06
977.259	1.56593e-06
985.817	2.52855e-06
994.375	8.02531e-06
1002.93	1.32508e-05
1011.49	1.75478e-05
1020.05	7.8749e-06
1028.61	2.29601e-06
1037.16	3.06065e-06
1045.72	6.82779e-06
1054.28	2.29347e-05
1062.84	9.00264e-05
1071.39	0.000213408
1079.95	0.00038796
1088.51	0.000879979
1097.07	0.000588108
1105.62	8.37788e-05
1114.18	3.62613e-05
1122.74	1.06145e-05
1131.3	1.44728e-06
1139.85	4.20522e-07
1148.41	3.01683e-07
1156.97	2.27772e-07
1165.53	1.05778e-07
1174.09	1.53206e-08
1182.64	1.13994e-07
1191.2	3.90136e-07
1199.76	5.0682e-07
1208.32	5.40324e-07
1216.87	8.86306e-07
1225.43	1.44495e-06
1233.99	4.17338e-06
1242.55	8.71258e-06
1251.1	9.7027e-06
1259.66	2.59759e-06
1268.22	1.24785e-06
1276.78	6.41586e-07
1285.33	4.81255e-07
1293.89	6.65017e-07
1302.45	7.0798e-07
1311.01	8.80639e-07
1319.57	6.97748e-07
1328.12	4.44132e-07
1336.68	3.90378e-07
1345.24	2.95131e-07
1353.8	4.70653e-07
1362.35	2.09136e-06
1370.91	2.17983e-05
1379.47	3.42072e-05
1388.03	2.47595e-05
1396.58	3.87092e-05
1405.14	3.91711e-06
1413.7	9.39015e-06
1422.26	1.40754e-05
1430.81	1.42606e-05
1439.37	2.39215e-05
1447.93	3.18048e-05
1456.49	5.35657e-05
1465.05	2.41063e-05
1473.6	7.979e-06
1482.16	1.24951e-06
1490.72	2.86671e-07
1499.28	1.3436e-07
1507.83	3.07212e-08
1516.39	8.66524e-08
1524.95	5.05509e-08
1533.51	6.00619e-08
1542.06	-3.04042e-07
1550.62	5.68443e-08
1559.18	-6.74594e-08
1567.74	-7.39019e-09
1576.29	-3.41722e-07
1584.85	-1.35472e-08
1593.41	1.16151e-07
1601.97	2.65614e-08
1610.53	-5.82248e-08
1619.08	-1.32863e-07
1627.64	-2.12266e-08
1636.2	-4.81099e-08
1644.76	-7.49169e-08
1653.31	-7.13323e-07
1661.87	5.18605e-08
1670.43	9.71838e-08
1678.99	6.94547e-08
1687.54	1.84446e-07
1696.1	-3.63944e-08
1704.66	2.65485e-07
1713.22	4.85059e-07
1721.77	7.05178e-07
1730.33	9.2841e-07
1738.89	5.58102e-07
1747.45	2.86071e-07
1756.01	2.07054e-07
1764.56	2.04042e-07
1773.12	2.26539e-07
1781.68	7.18549e-07
1790.24	1.37455e-06
1798.79	1.47367e-06
1807.35	4.9167e-07
1815.91	2.85638e-07
1824.47	1.9453e-07
1833.02	2.05125e-07
1841.58	4.55489e-08
1850.14	-2.33729e-09
1858.7	-1.0004e-08
1867.25	-2.40986e-08
1875.81	-2.04008e-08
1884.37	-1.39964e-08
1892.93	8.10556e-08
1901.49	3.30496e-07
1910.04	5.15618e-07
1918.6	3.71454e-07
1927.16	1.45828e-07
1935.72	2.16247e-07
1944.27	9.55395e-08
1952.83	8.78092e-08
1961.39	7.17265e-08
1969.95	-1.77288e-08
1978.5	4.63565e-08
1987.06	-8.85804e-09
1995.62	-1.36981e-08
2004.18	4.89284e-09
2012.73	-5.08983e-08
2021.29	1.38891e-08
2029.85	-3.96338e-09
2038.41	4.92103e-08
2046.97	1.31561e-08
2055.52	-1.75215e-08
2064.08	-4.08398e-08
2072.64	4.09034e-08
2081.2	1.07668e-07
2089.75	2.05288e-07
2098.31	6.27792e-07
2106.87	1.69263e-06
2115.43	1.8485e-06
2123.98	2.71003e-06
2132.54	4.06042e-06
2141.1	2.92568e-06
2149.66	1.28503e-06
2158.21	6.82673e-07
2166.77	1.84069e-07
2175.33	7.35636e-08
2183.89	4.46285e-08
2192.45	-1.00773e-07
2201	-1.44766e-07
2209.56	-2.03075e-07
2218.12	-1.1745e-07
2226.68	-1.6184e-07
2235.23	-1.834e-08
2243.79	-6.98167e-08
2252.35	4.79298e-08
2260.91	-1.92985e-08
2269.46	-5.20005e-08
2278.02	-1.36781e-09
2286.58	1.3689e-08
2295.14	8.2087e-09
2303.69	3.28857e-09
2312.25	-7.78671e-09
2320.81	2.13703e-07
2329.37	1.18723e-07
2337.93	4.06018e-07
2346.48	6.90764e-08
2355.04	1.06466e-07
2363.6	1.46509e-07
2372.16	3.37588e-08
2380.71	1.06407e-07
2389.27	-2.26489e-08
2397.83	6.89691e-08
2406.39	9.05248e-08
2414.94	1.67217e-07
2423.5	4.41765e-07
2432.06	1.23974e-06
2440.62	3.03782e-06
2449.17	5.72474e-06
2457.73	5.21872e-06
2466.29	2.2311e-06
2474.85	9.49595e-07
2483.41	3.25481e-07
2491.96	3.47068e-07
2500.52	4.09769e-07
2509.08	6.00137e-07
2517.64	5.70867e-07
2526.19	3.87451e-07
2534.75	4.5486e-07
2543.31	4.26625e-07
2551.87	3.31158e-07
2560.42	1.47116e-07
2568.98	1.37036e-08
2577.54	-3.83479e-08
2586.1	-4.59363e-08
2594.65	-1.36963e-09
2603.21	1.69576e-08
2611.77	3.86262e-08
2620.33	-1.617e-09
2628.89	-1.71213e-08
2637.44	-5.08037e-08
2646	1.63628e-08
2654.56	1.35212e-07
2663.12	1.98926e-07
2671.67	1.54088e-07
2680.23	1.37902e-07
2688.79	1.36418e-08
2697.35	3.54103e-08
2705.9	-3.74712e-08
2714.46	5.37485e-09
2723.02	-5.27281e-08
2731.58	-3.15525e-08
2740.13	-4.10926e-08
2748.69	2.08775e-07
2757.25	-5.96872e-08
2765.81	2.1945e-08
2774.37	6.20172e-08
2782.92	-3.25547e-08
2791.48	7.14609e-08
2800.04	3.63567e-07
2808.6	5.22295e-07
2817.15	8.88052e-07
2825.71	1.03912e-06
2834.27	1.23528e-06
2842.83	1.07379e-06
2851.38	1.22877e-06
2859.94	1.81236e-06
2868.5	2.6209e-06
2877.06	2.43609e-06
2885.61	2.18303e-06
2894.17	2.35809e-06
2902.73	1.68792e-06
2911.29	9.18168e-07
2919.85	2.86808e-07
2928.4	3.69386e-07
2936.96	5.92486e-06
2945.52	9.08534e-06
2954.08	6.83529e-06
2962.63	9.45031e-06
2971.19	1.25752e-06
2979.75	6.50675e-07
2988.31	9.29534e-07
2996.86	5.05353e-06
3005.42	4.42184e-05
3013.98	7.98806e-05
3022.54	3.88875e-05
3031.09	2.0373e-06
3039.65	1.66409e-07
3048.21	1.29315e-07
3056.77	9.91992e-08
3065.33	9.73493e-08
3073.88	1.55443e-08
3082.44	-1.11793e-07
3091	-1.4393e-08
3099.56	-3.87116e-08
3108.11	2.81566e-09
3116.67	-7.59827e-08
3125.23	1.96023e-08
3133.79	-3.76549e-08
3142.34	7.20739e-08
3150.9	1.12772e-09
3159.46	-2.24161e-08
3168.02	1.42687e-07
3176.57	2.73895e-07
3185.13	3.60726e-07
3193.69	3.80638e-07
3202.25	2.78574e-07
3210.81	6.72793e-08
3219.36	6.14224e-08
3227.92	-7.85528e-08
3236.48	2.02502e-07
3245.04	5.29884e-07
3253.59	7.59047e-07
3262.15	4.39615e-07
3270.71	7.62483e-09
3279.27	1.05263e-07
3287.82	6.77191e-07
3296.38	9.88214e-07
3304.94	3.77789e-07
3313.5	7.19666e-08
3322.05	-9.39153e-08
3330.61	-2.82421e-08
3339.17	5.02842e-07
3347.73	1.39441e-06
3356.29	3.32503e-06
3364.84	1.50979e-06
3373.4	4.28942e-07
3381.96	-1.35179e-07
3390.52	-9.75385e-08
3399.07	-1.49868e-07
3407.63	-1.27865e-07
3416.19	-1.39873e-07
3424.75	-3.98466e-08
3433.3	7.06643e-09
3441.86	-1.5489e-07
3450.42	-1.73714e-07
3458.98	2.41441e-08
3467.53	-1.23629e-07
3476.09	-1.2976e-08
3484.65	-2.081e-08
3493.21	1.90075e-08
3501.77	2.44842e-08
3510.32	1.00589e-07
3518.88	2.09048e-07
3527.44	2.88328e-07
3536	4.524e-07
3544.55	3.77804e-07
3553.11	2.07538e-07
3561.67	6.94602e-08
3570.23	4.56035e-08
3578.78	-5.02016e-09
3587.34	-1.03368e-07
3595.9	-9.13543e-08
3604.46	-1.28598e-07
3613.01	-1.35377e-07
3621.57	-1.30452e-08
3630.13	-1.45705e-07
3638.69	-4.15437e-09
3647.25	-1.22103e-08
3655.8	-1.81945e-08
3664.36	-8.83731e-08
3672.92	-1.37745e-08
3681.48	-4.83045e-08
3690.03	-7.05333e-08
3698.59	4.17419e-08
3707.15	-1.31325e-08
3715.71	-7.83346e-08
3724.26	6.33668e-08
3732.82	-1.68139e-08
3741.38	-1.69485e-08
3749.94	-4.14436e-08
3758.49	-1.09432e-07
3767.05	-3.42208e-08
3775.61	4.44867e-08
3784.17	-1.36183e-07
3792.73	-1.55056e-07
3801.28	-3.93312e-07
3809.84	-5.48926e-08
3818.4	-4.24058e-08
3826.96	4.23585e-08
3835.51	1.28633e-08
3844.07	-8.7671e-08
3852.63	-3.49265e-08
3861.19	-2.89496e-08
3869.74	-9.5776e-08
3878.3	-8.77456e-08
3886.86	-6.25847e-08
3895.42	7.61355e-08
3903.97	-1.0729e-07
3912.53	1.29949e-07
3921.09	1.2709e-07
3929.65	3.44682e-09
3938.21	1.21828e-07
3946.76	4.19751e-07
3955.32	4.4377e-07
3963.88	3.63151e-07
3972.44	4.461e-07
