Infrared Spectrum: 1,1,1-Trichloroethane
Formula: C H3 C Cl3
CAS: 71-55-6
State: gas
Melting point: -30.41 C
Boiling point: 74.1 C
Class: IUPAC A
Instrument: IFS66V (Bruker)
Instrument parameters: KBr Beam Splitter; MCT Detector; Multipass cell
Sampling: 1 L/min Flow
Resolution: 0.4820
Temperature: 23 C
Pressure: 101.3 Pa
Origin: NIST, Analytical Chemistry Division, 301-975-3108
cm-1	(micromol/mol)-1m-1 (base 10)
575.17	3.5564e-06
583.848	1.2538e-06
592.526	1.06009e-06
601.205	-5.45961e-08
609.883	-2.23568e-07
618.561	1.52431e-07
627.239	4.26914e-08
635.917	-6.53203e-08
644.595	-1.73559e-08
653.274	2.07471e-07
661.952	1.06285e-06
670.63	4.65306e-06
679.308	1.59932e-05
687.986	3.61992e-05
696.665	3.81696e-05
705.343	0.000111582
714.021	0.000593195
722.699	0.00186246
731.377	0.00105908
740.055	9.34812e-05
748.734	3.33755e-05
757.412	1.38427e-05
766.09	9.57906e-06
774.768	6.5329e-06
783.446	3.99278e-06
792.124	5.42117e-06
800.803	7.86867e-06
809.481	7.55124e-06
818.159	5.73279e-06
826.837	3.90686e-06
835.515	2.76568e-06
844.194	2.17115e-06
852.872	2.6798e-06
861.55	6.09338e-06
870.228	5.39379e-06
878.906	2.06446e-06
887.584	3.91173e-07
896.263	1.26272e-07
904.941	-1.53788e-08
913.619	1.0976e-07
922.297	1.66053e-07
930.975	2.44142e-07
939.654	5.31963e-07
948.332	1.74818e-06
957.01	3.23674e-06
965.688	3.35874e-06
974.366	2.20159e-06
983.044	1.69871e-06
991.723	5.85851e-06
1000.4	1.04078e-05
1009.08	1.87061e-05
1017.76	1.52071e-05
1026.44	2.51978e-06
1035.11	2.65806e-06
1043.79	5.41739e-06
1052.47	1.65393e-05
1061.15	7.08182e-05
1069.83	0.000166352
1078.5	0.000307277
1087.18	0.000887938
1095.86	0.000673754
1104.54	0.000101203
1113.22	3.87914e-05
1121.9	1.2694e-05
1130.57	1.69935e-06
1139.25	4.26146e-07
1147.93	2.762e-07
1156.61	2.55334e-07
1165.29	8.34839e-08
1173.96	8.24689e-09
1182.64	1.2607e-07
1191.32	3.58767e-07
1200	4.95101e-07
1208.68	5.80727e-07
1217.36	8.9655e-07
1226.03	1.50505e-06
1234.71	4.57722e-06
1243.39	9.10306e-06
1252.07	9.51911e-06
1260.75	2.25688e-06
1269.42	1.10287e-06
1278.1	5.22066e-07
1286.78	5.6182e-07
1295.46	6.45659e-07
1304.14	7.73376e-07
1312.82	8.17055e-07
1321.49	7.48596e-07
1330.17	3.51415e-07
1338.85	3.54453e-07
1347.53	2.84843e-07
1356.21	6.03653e-07
1364.88	5.12792e-06
1373.56	3.43325e-05
1382.24	2.23161e-05
1390.92	4.84221e-05
1399.6	1.72617e-05
1408.28	4.5214e-06
1416.95	1.28558e-05
1425.63	1.90343e-05
1434.31	1.6392e-05
1442.99	3.21965e-05
1451.67	2.52551e-05
1460.34	2.22449e-05
1469.02	1.78861e-05
1477.7	3.31767e-06
1486.38	5.70242e-07
1495.06	2.00028e-07
1503.74	7.31944e-08
1512.41	-2.3331e-08
1521.09	-1.7201e-07
1529.77	6.75321e-08
1538.45	-1.55352e-08
1547.13	7.75834e-08
1555.8	1.08988e-08
1564.48	1.75669e-08
1573.16	2.52081e-08
1581.84	8.23525e-08
1590.52	6.59351e-08
1599.2	3.27238e-08
1607.87	-1.28905e-08
1616.55	-3.44998e-07
1625.23	-7.57208e-08
1633.91	-2.63049e-08
1642.59	-1.27214e-08
1651.26	3.96338e-09
1659.94	3.56668e-08
1668.62	2.62431e-08
1677.3	1.08752e-07
1685.98	2.04166e-07
1694.66	3.12945e-07
1703.33	2.93392e-07
1712.01	4.58041e-07
1720.69	5.89065e-07
1729.37	7.46586e-07
1738.05	5.65918e-07
1746.72	3.45116e-07
1755.4	2.11634e-07
1764.08	1.5959e-07
1772.76	5.26863e-08
1781.44	6.78944e-07
1790.12	1.39548e-06
1798.79	1.45099e-06
1807.47	4.83958e-07
1816.15	3.33395e-07
1824.83	2.22495e-07
1833.51	1.47764e-07
1842.18	4.40428e-08
1850.86	-4.40865e-08
1859.54	-3.32731e-08
1868.22	-3.88335e-08
1876.9	1.98988e-08
1885.58	2.40386e-08
1894.25	1.35552e-07
1902.93	2.93863e-07
1911.61	5.01029e-07
1920.29	3.09489e-07
1928.97	1.94397e-07
1937.64	1.01866e-07
1946.32	8.41496e-08
1955	6.14388e-08
1963.68	7.47168e-08
1972.36	7.77525e-08
1981.04	3.26493e-08
1989.71	-9.2964e-09
1998.39	-1.68448e-08
2007.07	-2.83912e-08
2015.75	-2.55374e-08
2024.43	1.06024e-08
2033.1	5.76355e-08
2041.78	4.37082e-09
2050.46	-1.59699e-09
2059.14	3.00482e-08
2067.82	3.694e-08
2076.5	1.11135e-07
2085.17	1.4264e-07
2093.85	3.22087e-07
2102.53	1.16166e-06
2111.21	1.88524e-06
2119.89	2.00932e-06
2128.56	3.52875e-06
2137.24	5.69081e-06
2145.92	2.60368e-06
2154.6	9.88532e-07
2163.28	4.2926e-07
2171.96	-2.40095e-09
2180.63	1.18445e-07
2189.31	-6.43872e-08
2197.99	-1.31614e-07
2206.67	-1.73056e-07
2215.35	-1.11851e-07
2224.02	-1.07e-07
2232.7	-5.78847e-08
2241.38	-2.08009e-08
2250.06	1.00876e-08
2258.74	-1.45039e-08
2267.42	-5.49126e-09
2276.09	-1.611e-08
2284.77	2.7138e-09
2293.45	-7.40838e-09
2302.13	1.74433e-08
2310.81	7.65175e-08
2319.48	2.61483e-07
2328.16	1.87208e-07
2336.84	1.66755e-07
2345.52	2.19134e-07
2354.2	7.22558e-07
2362.88	1.43243e-06
2371.55	5.72677e-07
2380.23	1.9917e-09
2388.91	1.78761e-08
2397.59	1.21048e-08
2406.27	7.55862e-08
2414.94	1.30046e-07
2423.62	4.44144e-07
2432.3	1.30682e-06
2440.98	3.151e-06
2449.66	6.24854e-06
2458.34	5.26437e-06
2467.01	2.09279e-06
2475.69	9.16982e-07
2484.37	3.38781e-07
2493.05	3.92773e-07
2501.73	4.28973e-07
2510.4	5.76901e-07
2519.08	5.91204e-07
2527.76	4.56291e-07
2536.44	4.55514e-07
2545.12	4.22234e-07
2553.8	2.97281e-07
2562.47	1.26921e-07
2571.15	6.04602e-09
2579.83	-3.7262e-08
2588.51	-3.71692e-08
2597.19	-2.16413e-08
2605.86	4.9756e-08
2614.54	-5.53309e-09
2623.22	-3.38297e-08
2631.9	-1.70831e-08
2640.58	2.312e-08
2649.26	8.14431e-08
2657.93	1.27599e-07
2666.61	2.49624e-07
2675.29	1.55449e-07
2683.97	5.42396e-08
2692.65	-4.29806e-09
2701.32	-7.7878e-08
2710	3.5283e-08
2718.68	7.71032e-09
2727.36	-2.82912e-08
2736.04	-3.15907e-08
2744.71	-2.95808e-08
2753.39	-1.14609e-08
2762.07	7.25559e-09
2770.75	-3.49684e-08
2779.43	4.03668e-08
2788.11	-3.19544e-08
2796.78	2.52711e-07
2805.46	4.38455e-07
2814.14	6.38692e-07
2822.82	1.15969e-06
2831.5	1.05676e-06
2840.17	9.40282e-07
2848.85	1.05777e-06
2857.53	1.56563e-06
2866.21	2.44843e-06
2874.89	2.549e-06
2883.57	2.16118e-06
2892.24	2.21814e-06
2900.92	1.7477e-06
2909.6	1.07947e-06
2918.28	4.62606e-07
2926.96	2.37999e-07
2935.63	4.33008e-06
2944.31	1.09175e-05
2952.99	5.50936e-06
2961.67	1.05383e-05
2970.35	1.44374e-06
2979.03	7.04695e-07
2987.7	9.46226e-07
2996.38	4.4337e-06
3005.06	4.27845e-05
3013.74	8.26441e-05
3022.42	3.96618e-05
3031.09	2.0635e-06
3039.77	1.20104e-07
3048.45	1.74498e-07
3057.13	1.2066e-07
3065.81	6.19881e-08
3074.49	-1.21794e-08
3083.16	-1.98442e-09
3091.84	5.67788e-08
3100.52	2.7138e-08
3109.2	-5.78665e-08
3117.88	2.89041e-08
3126.55	-4.38391e-08
3135.23	-1.00931e-08
3143.91	-6.80996e-09
3152.59	7.55971e-08
3161.27	1.09163e-07
3169.95	2.37492e-07
3178.62	4.016e-07
3187.3	4.3021e-07
3195.98	3.6189e-07
3204.66	7.02878e-08
3213.34	1.50465e-07
3222.01	9.33005e-08
3230.69	5.67751e-08
3239.37	3.99329e-07
3248.05	8.38324e-07
3256.73	8.45323e-07
3265.41	2.25745e-07
3274.08	7.52643e-08
3282.76	3.028e-07
3291.44	8.81015e-07
3300.12	8.10069e-07
3308.8	3.12107e-07
3317.47	2.1443e-08
3326.15	-2.79565e-08
3334.83	1.31708e-07
3343.51	9.33645e-07
3352.19	2.10123e-06
3360.87	1.89214e-06
3369.54	9.19021e-07
3378.22	8.03608e-08
3386.9	-3.94301e-08
3395.58	-6.19572e-08
3404.26	-1.23183e-07
3412.93	-2.7771e-08
3421.61	-1.24798e-07
3430.29	-2.70416e-08
3438.97	-4.07706e-08
3447.65	-3.88117e-08
3456.33	2.69979e-08
3465	-2.41714e-08
3473.68	1.1846e-07
3482.36	6.79541e-08
3491.04	3.07631e-08
3499.72	1.39693e-07
3508.39	8.9388e-08
3517.07	1.13827e-07
3525.75	3.1953e-07
3534.43	4.31576e-07
3543.11	3.65861e-07
3551.79	1.31012e-07
3560.46	1.07566e-07
3569.14	4.55234e-08
3577.82	-4.16128e-08
3586.5	-5.23134e-08
3595.18	-7.77653e-08
3603.85	-4.66639e-08
3612.53	-1.93456e-07
3621.21	-2.96262e-08
3629.89	-2.52291e-07
3638.57	-4.43048e-08
3647.25	-2.73544e-08
3655.92	-6.15989e-08
3664.6	-4.50251e-08
3673.28	1.90221e-08
3681.96	2.6616e-08
3690.64	-6.98458e-10
3699.31	-9.3486e-08
3707.99	-9.03611e-08
3716.67	-3.89445e-08
3725.35	3.17725e-08
3734.03	5.59585e-08
3742.71	7.24759e-08
3751.38	-2.68615e-08
3760.06	-1.82345e-07
3768.74	-8.92461e-08
3777.42	-1.51562e-07
3786.1	-1.16704e-07
3794.77	-1.09376e-07
3803.45	-6.60261e-10
3812.13	-7.65211e-09
3820.81	-1.35581e-07
3829.49	1.02581e-07
3838.17	-1.17521e-07
3846.84	-6.89545e-08
3855.52	-9.21e-08
3864.2	-9.5103e-08
3872.88	-5.1162e-08
3881.56	-5.80375e-08
3890.23	-7.60828e-08
3898.91	-8.07228e-08
3907.59	3.98048e-08
3916.27	9.9301e-08
3924.95	6.01183e-08
3933.63	1.7386e-07
3942.3	2.77535e-07
3950.98	4.44612e-07
3959.66	3.70386e-07
3968.34	4.05786e-07
