Infrared Spectrum: 1,1,1-Trichloroethane
Formula: C H3 C Cl3
CAS: 71-55-6
State: gas
Melting point: -30.41 C
Boiling point: 74.1 C
Class: IUPAC A
Instrument: IFS66V (Bruker)
Instrument parameters: KBr Beam Splitter; MCT Detector; Multipass cell
Sampling: 1 L/min Flow
Resolution: 1.9290
Temperature: 23 C
Pressure: 101.3 Pa
Origin: NIST, Analytical Chemistry Division, 301-975-3108
cm-1	(micromol/mol)-1m-1 (base 10)
575.652	3.70591e-06
584.33	9.37197e-07
593.008	9.33398e-07
601.687	-3.89787e-07
610.365	-3.48028e-08
619.043	-1.84018e-08
627.721	3.06101e-07
636.399	-2.74015e-07
645.077	1.8093e-07
653.756	-3.93301e-08
662.434	1.4152e-06
671.112	4.55461e-06
679.79	1.72602e-05
688.468	3.77378e-05
697.147	4.01049e-05
705.825	0.000120165
714.503	0.000651671
723.181	0.00188389
731.859	0.00090707
740.537	8.50532e-05
749.216	3.15104e-05
757.894	1.36388e-05
766.572	1.15645e-05
775.25	6.66691e-06
783.928	3.77213e-06
792.607	5.86185e-06
801.285	7.43714e-06
809.963	7.38924e-06
818.641	5.77001e-06
827.319	3.84843e-06
835.997	2.68652e-06
844.676	2.07919e-06
853.354	2.79026e-06
862.032	5.94622e-06
870.71	7.36762e-06
879.388	1.86784e-06
888.066	3.58216e-07
896.745	7.13936e-08
905.423	1.69358e-08
914.101	4.28915e-08
922.779	2.56614e-07
931.457	2.24736e-07
940.136	6.33439e-07
948.814	1.78017e-06
957.492	3.40366e-06
966.17	3.10692e-06
974.848	2.16487e-06
983.526	1.70047e-06
992.205	6.29481e-06
1000.88	1.07176e-05
1009.56	1.90684e-05
1018.24	1.3124e-05
1026.92	2.53032e-06
1035.6	2.70414e-06
1044.27	5.9295e-06
1052.95	1.79432e-05
1061.63	7.58351e-05
1070.31	0.000172612
1078.99	0.000335293
1087.66	0.000893998
1096.34	0.000648601
1105.02	9.24059e-05
1113.7	3.75898e-05
1122.38	1.13563e-05
1131.06	1.66364e-06
1139.73	2.44826e-07
1148.41	4.35503e-07
1157.09	5.26553e-08
1165.77	3.06943e-07
1174.45	-2.01296e-07
1183.12	3.48432e-07
1191.8	1.29669e-07
1200.48	7.66081e-07
1209.16	2.34564e-07
1217.84	1.21044e-06
1226.52	1.30463e-06
1235.19	5.20942e-06
1243.87	8.9393e-06
1252.55	9.32967e-06
1261.23	1.67859e-06
1269.91	1.52358e-06
1278.58	1.5357e-08
1287.26	1.05683e-06
1295.94	1.37243e-07
1304.62	1.37699e-06
1313.3	6.01256e-08
1321.98	1.55993e-06
1330.65	-5.69501e-07
1339.33	1.45816e-06
1348.01	-1.12759e-06
1356.69	2.52727e-06
1365.37	2.92495e-06
1374.04	4.29583e-05
1382.72	-1.32646e-06
1391.4	4.42221e-05
1400.08	1.778e-05
1408.76	2.93685e-06
1417.44	1.45301e-05
1426.11	2.19005e-05
1434.79	1.81426e-05
1443.47	3.22131e-05
1452.15	2.53885e-05
1460.83	2.14304e-05
1469.5	1.7365e-05
1478.18	2.40618e-06
1486.86	1.01271e-06
1495.54	-3.18451e-07
1504.22	5.2731e-07
1512.9	-3.93903e-07
1521.57	2.8363e-07
1530.25	-2.66714e-07
1538.93	1.34089e-07
1547.61	-2.51117e-07
1556.29	2.96759e-07
1564.96	-2.61196e-07
1573.64	2.64403e-07
1582.32	-1.28011e-07
1591	3.22127e-07
1599.68	-1.54996e-07
1608.36	2.03022e-07
1617.03	-4.46993e-07
1625.71	1.59368e-07
1634.39	-2.2626e-07
1643.07	1.74907e-07
1651.75	-2.35013e-07
1660.42	2.21917e-07
1669.1	-2.04968e-07
1677.78	2.90038e-07
1686.46	6.7734e-08
1695.14	3.43399e-07
1703.82	1.59965e-07
1712.49	5.74616e-07
1721.17	4.6831e-07
1729.85	9.49169e-07
1738.53	4.28407e-07
1747.21	4.31838e-07
1755.88	7.72487e-08
1764.56	2.96974e-07
1773.24	7.20103e-08
1781.92	8.44603e-07
1790.6	1.2673e-06
1799.28	1.50578e-06
1807.95	3.6121e-07
1816.63	4.42882e-07
1825.31	1.20044e-07
1833.99	2.37445e-07
1842.67	-2.15867e-08
1851.34	5.69534e-08
1860.02	-1.28622e-07
1868.7	1.38491e-08
1877.38	-1.04272e-07
1886.06	1.02293e-07
1894.74	8.32911e-08
1903.41	3.62587e-07
1912.09	1.54526e-07
1920.77	3.86316e-07
1929.45	8.21197e-08
1938.13	1.50681e-07
1946.8	-9.51285e-10
1955.48	1.20566e-07
1964.16	-2.76473e-09
1972.84	1.2593e-07
1981.52	-4.52888e-08
1990.2	5.79665e-08
1998.87	-7.26105e-08
2007.55	3.19017e-08
2016.23	-8.98828e-08
2024.91	6.63771e-08
2033.59	1.46876e-08
2042.26	5.28827e-08
2050.94	-4.01686e-08
2059.62	6.32013e-08
2068.3	-3.1436e-08
2076.98	1.29091e-07
2085.66	9.18635e-08
2094.33	3.6249e-07
2103.01	1.11331e-06
2111.69	1.90965e-06
2120.37	2.16835e-06
2129.05	3.63905e-06
2137.72	5.95499e-06
2146.4	2.37772e-06
2155.08	9.8833e-07
2163.76	4.51435e-07
2172.44	-1.32227e-07
2181.12	1.46718e-07
2189.79	-1.62573e-07
2198.47	-1.33276e-07
2207.15	-1.96461e-07
2215.83	-9.02756e-08
2224.51	-1.47964e-07
2233.18	-2.29145e-08
2241.86	-5.41868e-08
2250.54	2.32128e-08
2259.22	-5.9227e-08
2267.9	-3.10668e-09
2276.58	-3.43427e-08
2285.25	-7.80854e-09
2293.93	-2.62558e-08
2302.61	6.70192e-08
2311.29	1.36314e-07
2319.97	8.0821e-08
2328.64	5.13832e-07
2337.32	5.85862e-07
2346	3.11783e-07
2354.68	5.37878e-07
2363.36	7.74804e-07
2372.04	3.36075e-07
2380.71	4.22421e-08
2389.39	7.47568e-09
2398.07	8.36512e-09
2406.75	7.11663e-08
2415.43	1.57273e-07
2424.1	4.42477e-07
2432.78	1.38513e-06
2441.46	3.31607e-06
2450.14	7.37617e-06
2458.82	5.35921e-06
2467.5	1.98124e-06
2476.17	9.17344e-07
2484.85	3.17083e-07
2493.53	3.92153e-07
2502.21	3.97628e-07
2510.89	6.0238e-07
2519.56	5.52533e-07
2528.24	4.35146e-07
2536.92	4.58559e-07
2545.6	4.21739e-07
2554.28	2.44693e-07
2562.96	1.24951e-07
2571.63	-4.49359e-08
2580.31	1.78252e-09
2588.99	-2.87095e-08
2597.67	-1.26432e-08
2606.35	4.26459e-08
2615.02	2.12811e-09
2623.7	-4.73823e-08
2632.38	-1.72213e-08
2641.06	-9.2582e-09
2649.74	8.10957e-08
2658.42	1.36608e-07
2667.09	2.87142e-07
2675.77	1.61726e-07
2684.45	5.91124e-08
2693.13	2.07336e-08
2701.81	-3.86225e-08
2710.48	3.3395e-08
2719.16	4.45503e-08
2727.84	-5.65714e-08
2736.52	-1.20229e-08
2745.2	-5.18168e-08
2753.88	-5.11293e-09
2762.55	2.09155e-08
2771.23	-4.02468e-08
2779.91	4.21639e-08
2788.59	3.67527e-08
2797.27	2.78206e-07
2805.94	4.72467e-07
2814.62	6.74646e-07
2823.3	1.14678e-06
2831.98	9.84578e-07
2840.66	9.42439e-07
2849.34	1.18711e-06
2858.01	1.65716e-06
2866.69	2.49941e-06
2875.37	2.51234e-06
2884.05	2.19645e-06
2892.73	2.20984e-06
2901.4	1.67055e-06
2910.08	1.05135e-06
2918.76	3.60682e-07
2927.44	3.50613e-07
2936.12	4.78352e-06
2944.8	1.06526e-05
2953.47	6.98972e-06
2962.15	9.72637e-06
2970.83	1.44364e-06
2979.51	6.14419e-07
2988.19	9.96928e-07
2996.86	5.07022e-06
3005.54	4.4589e-05
3014.22	7.22977e-05
3022.9	3.64789e-05
3031.58	1.57742e-06
3040.26	1.62433e-07
3048.93	1.43211e-07
3057.61	1.31581e-07
3066.29	1.8189e-10
3074.97	9.42427e-08
3083.65	-2.4537e-08
3092.32	9.34169e-08
3101	-7.72651e-08
3109.68	-4.35627e-09
3118.36	-7.0064e-09
3127.04	4.54689e-08
3135.72	-7.65138e-08
3144.39	-3.34678e-10
3153.07	3.61397e-08
3161.75	1.54225e-07
3170.43	1.6164e-07
3179.11	4.48379e-07
3187.78	4.58848e-07
3196.46	4.14364e-07
3205.14	5.24098e-08
3213.82	1.90624e-07
3222.5	6.04257e-08
3231.18	1.16979e-07
3239.85	3.88517e-07
3248.53	9.04126e-07
3257.21	7.22176e-07
3265.89	2.70609e-07
3274.57	6.29958e-08
3283.24	4.10764e-07
3291.92	8.46914e-07
3300.6	8.98617e-07
3309.28	2.92268e-07
3317.96	3.67963e-08
3326.64	-7.09207e-08
3335.31	1.58393e-07
3343.99	1.00902e-06
3352.67	2.39918e-06
3361.35	1.79543e-06
3370.03	9.23685e-07
3378.7	3.61343e-08
3387.38	-2.4506e-08
3396.06	-8.24325e-08
3404.74	-5.14094e-08
3413.42	-1.4881e-07
3422.1	-9.77495e-08
3430.77	-6.27611e-08
3439.45	-6.05876e-08
3448.13	-8.75091e-08
3456.81	2.57611e-08
3465.49	-5.07837e-08
3474.16	1.59972e-07
3482.84	2.16013e-08
3491.52	5.26881e-08
3500.2	5.69661e-08
3508.88	5.10456e-08
3517.56	5.96545e-08
3526.23	3.48065e-07
3534.91	4.15715e-07
3543.59	4.101e-07
3552.27	8.59903e-08
3560.95	1.21697e-07
3569.62	-3.08194e-08
3578.3	1.92803e-10
3586.98	-1.55625e-07
3595.66	-3.7433e-08
3604.34	-1.32409e-07
3613.02	-7.89639e-08
3621.69	-4.54088e-08
3630.37	-2.88005e-08
3639.05	-1.12626e-07
3647.73	2.31655e-08
3656.41	-1.77159e-07
3665.08	1.85837e-08
3673.76	-5.41232e-08
3682.44	5.16786e-08
3691.12	-1.29735e-07
3699.8	-4.14109e-08
3708.48	-1.51676e-07
3717.15	-3.17544e-08
3725.83	-8.85295e-08
3734.51	3.2351e-08
3743.19	-1.24849e-08
3751.87	-1.74878e-07
3760.54	-1.52859e-07
3769.22	-8.98446e-08
3777.9	-1.73468e-07
3786.58	-1.87438e-08
3795.26	-1.62149e-07
3803.94	7.55571e-09
3812.61	-8.75909e-08
3821.29	-4.84027e-08
3829.97	3.1376e-08
3838.65	3.03211e-08
3847.33	-1.48599e-07
3856	3.15943e-08
3864.68	-2.02251e-07
3873.36	-1.80289e-08
3882.04	-1.28582e-07
3890.72	-1.22721e-08
3899.4	-1.89855e-07
3908.07	1.04032e-07
3916.75	5.87414e-08
3925.43	2.06351e-07
3934.11	1.23887e-07
3942.79	3.60917e-07
3951.46	3.60144e-07
3960.14	4.28329e-07
3968.82	2.42463e-07
