Infrared Spectrum: 1,1,1-Trichloroethane
Formula: C H3 C Cl3
CAS: 71-55-6
State: gas
Melting point: -30.41 C
Boiling point: 74.1 C
Class: IUPAC A
Instrument: IFS66V (Bruker)
Instrument parameters: KBr Beam Splitter; MCT Detector; Multipass cell
Sampling: 1 L/min Flow
Resolution: 0.9640
Temperature: 23 C
Pressure: 101.3 Pa
Origin: NIST, Analytical Chemistry Division, 301-975-3108
cm-1	(micromol/mol)-1m-1 (base 10)
575.17	3.7062e-06
583.848	1.33822e-06
592.526	1.05114e-06
601.205	7.06133e-08
609.883	-5.67188e-08
618.561	2.80778e-07
627.239	2.41353e-07
635.917	1.90613e-07
644.595	2.54328e-07
653.274	5.82266e-07
661.952	1.54762e-06
670.63	5.42254e-06
679.308	1.68486e-05
687.986	3.72422e-05
696.665	4.09699e-05
705.343	0.000117485
714.021	0.00059894
722.699	0.00183211
731.377	0.00106003
740.055	0.000102265
748.734	3.60832e-05
757.412	1.5671e-05
766.09	1.0767e-05
774.768	7.20453e-06
783.446	4.54194e-06
792.125	5.83132e-06
800.803	8.14155e-06
809.481	7.75362e-06
818.159	5.91965e-06
826.837	4.08675e-06
835.515	2.95153e-06
844.194	2.30544e-06
852.872	2.80722e-06
861.55	6.02541e-06
870.228	5.64613e-06
878.906	2.18164e-06
887.584	4.98833e-07
896.263	2.23828e-07
904.941	9.03448e-08
913.619	1.81874e-07
922.297	2.67888e-07
930.975	3.53252e-07
939.654	6.41699e-07
948.332	1.84352e-06
957.01	3.3113e-06
965.688	3.43987e-06
974.366	2.3112e-06
983.044	1.87758e-06
991.723	5.99023e-06
1000.4	1.05821e-05
1009.08	1.8597e-05
1017.76	1.51954e-05
1026.44	2.91618e-06
1035.11	3.14407e-06
1043.79	6.09337e-06
1052.47	1.77083e-05
1061.15	7.20767e-05
1069.83	0.000168862
1078.5	0.000310011
1087.18	0.000868219
1095.86	0.000657296
1104.54	0.000105647
1113.22	4.02935e-05
1121.9	1.36827e-05
1130.57	2.35753e-06
1139.25	8.37531e-07
1147.93	5.8844e-07
1156.61	4.7567e-07
1165.29	2.53911e-07
1173.96	1.65231e-07
1182.64	2.52851e-07
1191.32	4.7032e-07
1200	5.82508e-07
1208.68	6.48976e-07
1217.36	9.74074e-07
1226.03	1.6105e-06
1234.71	4.64173e-06
1243.39	9.0589e-06
1252.07	9.34484e-06
1260.75	2.34004e-06
1269.42	1.18096e-06
1278.1	5.88238e-07
1286.78	6.01939e-07
1295.46	7.00078e-07
1304.14	7.90965e-07
1312.82	8.49224e-07
1321.49	7.75172e-07
1330.17	4.18005e-07
1338.85	4.2103e-07
1347.53	3.61154e-07
1356.21	7.59273e-07
1364.88	5.4613e-06
1373.56	3.41584e-05
1382.24	2.87988e-05
1390.92	4.81091e-05
1399.6	1.77218e-05
1408.28	4.87887e-06
1416.95	1.28761e-05
1425.63	1.92878e-05
1434.31	1.65602e-05
1442.99	3.19119e-05
1451.67	2.61475e-05
1460.34	2.28069e-05
1469.02	1.78196e-05
1477.7	3.49998e-06
1486.38	6.7385e-07
1495.06	2.59064e-07
1503.74	1.15342e-07
1512.41	2.91133e-08
1521.09	-9.30968e-08
1529.77	9.60106e-08
1538.45	-2.0539e-08
1547.13	7.99552e-08
1555.8	2.72635e-08
1564.48	3.83242e-08
1573.16	3.18671e-08
1581.84	9.78041e-08
1590.52	8.42987e-08
1599.2	5.8534e-08
1607.87	7.96133e-09
1616.55	-2.46425e-07
1625.23	-5.69934e-08
1633.91	-1.58517e-08
1642.59	-8.46516e-09
1651.26	-5.53855e-09
1659.94	4.43666e-08
1668.62	4.52379e-08
1677.3	1.16117e-07
1685.98	1.89953e-07
1694.66	2.96952e-07
1703.33	3.03338e-07
1712.01	4.48737e-07
1720.69	6.05754e-07
1729.37	7.5267e-07
1738.05	5.6516e-07
1746.72	3.54485e-07
1755.4	2.20363e-07
1764.08	1.73583e-07
1772.76	1.32301e-07
1781.44	6.89389e-07
1790.12	1.38564e-06
1798.79	1.4341e-06
1807.47	4.98621e-07
1816.15	3.40052e-07
1824.83	2.24201e-07
1833.51	1.60431e-07
1842.18	4.92795e-08
1850.86	-3.4359e-08
1859.54	-3.14488e-08
1868.22	-3.71929e-08
1876.9	8.44697e-09
1885.58	2.42496e-08
1894.25	1.36312e-07
1902.93	3.04669e-07
1911.61	5.1237e-07
1920.29	3.11488e-07
1928.97	1.79922e-07
1937.64	1.06942e-07
1946.32	8.30201e-08
1955	6.10277e-08
1963.68	7.74888e-08
1972.36	6.71047e-08
1981.04	3.94301e-08
1989.71	-5.36576e-09
1998.39	-1.75651e-08
2007.07	-2.92024e-08
2015.75	-2.37112e-08
2024.43	1.39055e-08
2033.1	4.81627e-08
2041.78	1.01877e-08
2050.46	-1.12408e-09
2059.14	2.44879e-08
2067.82	3.71783e-08
2076.5	1.08301e-07
2085.17	1.44481e-07
2093.85	3.43867e-07
2102.53	1.15482e-06
2111.21	1.87445e-06
2119.89	2.0441e-06
2128.56	3.50995e-06
2137.24	5.5122e-06
2145.92	2.56926e-06
2154.6	1.02937e-06
2163.28	4.30534e-07
2171.96	8.66524e-09
2180.63	9.94866e-08
2189.31	-6.19426e-08
2197.99	-1.43695e-07
2206.67	-1.6801e-07
2215.35	-1.10222e-07
2224.02	-9.78605e-08
2232.7	-5.18277e-08
2241.38	-2.00206e-08
2250.06	7.27196e-09
2258.74	-1.1932e-08
2267.42	-2.92661e-09
2276.09	-1.43293e-08
2284.77	-9.23819e-09
2293.45	-1.9153e-09
2302.13	2.29145e-08
2310.81	8.72763e-08
2319.48	2.89849e-07
2328.16	3.57468e-07
2336.84	2.40346e-07
2345.52	2.8668e-07
2354.2	6.35122e-07
2362.88	1.0603e-06
2371.55	4.49679e-07
2380.23	4.38555e-08
2388.91	1.57735e-08
2397.59	2.45442e-08
2406.27	6.76685e-08
2414.94	1.39593e-07
2423.62	4.54183e-07
2432.3	1.32379e-06
2440.98	3.16629e-06
2449.66	6.30562e-06
2458.34	5.19124e-06
2467.01	2.11252e-06
2475.69	9.2558e-07
2484.37	3.64191e-07
2493.05	3.88593e-07
2501.73	4.30865e-07
2510.4	5.85235e-07
2519.08	5.7885e-07
2527.76	4.42575e-07
2536.44	4.5682e-07
2545.12	4.17567e-07
2553.8	2.96208e-07
2562.47	1.36721e-07
2571.15	1.33489e-08
2579.83	-1.84891e-08
2588.51	-2.80365e-08
2597.19	-1.03532e-08
2605.86	3.95538e-08
2614.54	-1.61155e-09
2623.22	-2.88114e-08
2631.9	-1.48641e-08
2640.58	1.94913e-08
2649.26	7.00295e-08
2657.93	1.47762e-07
2666.61	2.52616e-07
2675.29	1.70174e-07
2683.97	5.40832e-08
2692.65	2.92479e-09
2701.32	-6.66772e-08
2710	2.38749e-08
2718.68	5.18932e-09
2727.36	-3.08158e-08
2736.04	-2.6214e-08
2744.72	-3.97793e-08
2753.39	-1.31688e-08
2762.07	3.47155e-08
2770.75	-7.59209e-09
2779.43	3.84297e-08
2788.11	-7.50296e-09
2796.78	2.49779e-07
2805.46	4.63594e-07
2814.14	6.42541e-07
2822.82	1.13105e-06
2831.5	1.07935e-06
2840.18	9.4751e-07
2848.85	1.0933e-06
2857.53	1.56709e-06
2866.21	2.42937e-06
2874.89	2.54847e-06
2883.57	2.18485e-06
2892.24	2.23117e-06
2900.92	1.74408e-06
2909.6	1.09846e-06
2918.28	4.80151e-07
2926.96	3.2805e-07
2935.63	4.40279e-06
2944.31	1.08762e-05
2952.99	7.00627e-06
2961.67	1.04488e-05
2970.35	1.58768e-06
2979.03	7.91975e-07
2987.7	1.07266e-06
2996.38	4.7994e-06
3005.06	4.20145e-05
3013.74	7.98208e-05
3022.42	3.90123e-05
3031.09	2.40835e-06
3039.77	2.41855e-07
3048.45	2.19567e-07
3057.13	1.40081e-07
3065.81	8.6134e-08
3074.49	2.13502e-08
3083.16	-3.62325e-09
3091.84	7.01604e-08
3100.52	2.33929e-08
3109.2	-3.93956e-08
3117.88	2.00879e-08
3126.55	-2.98481e-08
3135.23	4.87465e-10
3143.91	-1.56425e-09
3152.59	7.36491e-08
3161.27	1.11257e-07
3169.95	2.34038e-07
3178.62	3.97743e-07
3187.3	4.5252e-07
3195.98	3.56261e-07
3204.66	1.05567e-07
3213.34	1.51951e-07
3222.01	8.00189e-08
3230.69	7.59391e-08
3239.37	3.95085e-07
3248.05	8.14349e-07
3256.73	8.26474e-07
3265.41	2.39256e-07
3274.08	8.35839e-08
3282.76	3.27768e-07
3291.44	8.57946e-07
3300.12	8.1604e-07
3308.8	3.35643e-07
3317.47	2.44733e-08
3326.15	-2.06118e-08
3334.83	1.31343e-07
3343.51	9.47971e-07
3352.19	2.08224e-06
3360.87	1.87647e-06
3369.54	9.14481e-07
3378.22	1.1042e-07
3386.9	-4.94595e-08
3395.58	-6.21373e-08
3404.26	-1.00232e-07
3412.93	-4.09507e-08
3421.61	-1.17694e-07
3430.29	-5.49017e-08
3438.97	-5.06327e-08
3447.65	-3.33168e-08
3456.33	1.2745e-08
3465	9.87299e-09
3473.68	9.66836e-08
3482.36	5.9478e-08
3491.04	4.2404e-08
3499.72	1.27947e-07
3508.39	6.36906e-08
3517.07	1.02886e-07
3525.75	3.02017e-07
3534.43	4.33307e-07
3543.11	3.92364e-07
3551.79	1.56535e-07
3560.46	8.06046e-08
3569.14	4.46904e-08
3577.82	-4.37864e-08
3586.5	-5.35102e-08
3595.18	-6.24574e-08
3603.85	-4.56489e-08
3612.53	-1.56873e-07
3621.21	-2.51299e-08
3629.89	-1.97744e-07
3638.57	-3.81132e-08
3647.25	-3.31185e-08
3655.92	-7.80053e-08
3664.6	-4.18238e-08
3673.28	3.87789e-09
3681.96	1.65102e-08
3690.64	-1.46221e-08
3699.31	-6.22009e-08
3707.99	-8.24107e-08
3716.67	-4.22221e-08
3725.35	2.71816e-08
3734.03	4.79826e-08
3742.71	4.6853e-08
3751.38	-5.24116e-08
3760.06	-1.38013e-07
3768.74	-8.54446e-08
3777.42	-1.27498e-07
3786.1	-9.431e-08
3794.77	-9.4972e-08
3803.45	-1.72959e-08
3812.13	-6.43891e-09
3820.81	-9.6389e-08
3829.49	8.97845e-08
3838.17	-1.20495e-07
3846.84	-6.05694e-08
3855.52	-8.36949e-08
3864.2	-9.73184e-08
3872.88	-6.36906e-08
3881.56	-6.0382e-08
3890.23	-6.80196e-08
3898.91	-8.27363e-08
3907.59	2.51554e-08
3916.27	9.87608e-08
3924.95	9.19527e-08
3933.63	1.8743e-07
3942.3	2.7865e-07
3950.98	4.30859e-07
3959.66	3.76865e-07
3968.34	3.91136e-07
