Infrared Spectrum: 1,1,1-Trichloroethane
Formula: C H3 C Cl3
CAS: 71-55-6
State: gas
Melting point: -30.41 C
Boiling point: 74.1 C
Class: IUPAC A
Instrument: IFS66V (Bruker)
Instrument parameters: KBr Beam Splitter; MCT Detector; Multipass cell
Sampling: 1 L/min Flow
Resolution: 1.9290
Temperature: 23 C
Pressure: 101.3 Pa
Origin: NIST, Analytical Chemistry Division, 301-975-3108
cm-1	(micromol/mol)-1m-1 (base 10)
575.652	3.49074e-06
584.33	1.26906e-06
593.008	7.64378e-07
601.687	-6.93219e-08
610.365	-1.00794e-07
619.043	8.87587e-08
627.721	1.04632e-07
636.399	-3.81678e-08
645.077	-3.2089e-08
653.756	1.61687e-07
662.434	1.1403e-06
671.112	5.00537e-06
679.79	1.68531e-05
688.468	3.74161e-05
697.147	3.9747e-05
705.825	0.000122072
714.503	0.00065452
723.181	0.00187865
731.859	0.000931163
740.537	8.5475e-05
749.216	3.18849e-05
757.894	1.39905e-05
766.572	1.13277e-05
775.25	6.37687e-06
783.928	3.94805e-06
792.607	5.77582e-06
801.285	7.55126e-06
809.963	7.33013e-06
818.641	5.75623e-06
827.319	3.83687e-06
835.997	2.72012e-06
844.676	2.10766e-06
853.354	2.77988e-06
862.032	5.9977e-06
870.71	6.81381e-06
879.388	1.83683e-06
888.066	3.61788e-07
896.745	8.12848e-08
905.423	-8.82166e-10
914.101	7.84946e-08
922.779	2.16062e-07
931.457	2.72073e-07
940.136	5.90924e-07
948.814	1.83941e-06
957.492	3.33592e-06
966.17	3.20763e-06
974.848	2.07701e-06
983.526	1.81222e-06
992.205	6.22962e-06
1000.88	1.08734e-05
1009.56	1.87719e-05
1018.24	1.33626e-05
1026.92	2.44461e-06
1035.6	2.79717e-06
1044.27	5.84381e-06
1052.95	1.81199e-05
1061.63	7.62549e-05
1070.31	0.000178887
1078.99	0.000334232
1087.66	0.000884896
1096.34	0.000637833
1105.02	9.37157e-05
1113.7	3.75038e-05
1122.38	1.1531e-05
1131.06	1.5461e-06
1139.73	4.0064e-07
1148.41	3.01064e-07
1157.09	2.42461e-07
1165.77	1.00241e-07
1174.45	1.78216e-08
1183.12	1.45425e-07
1191.8	3.42663e-07
1200.48	5.06796e-07
1209.16	5.26008e-07
1217.84	9.34742e-07
1226.52	1.61669e-06
1235.19	4.87687e-06
1243.87	9.23727e-06
1252.55	8.95058e-06
1261.23	2.05084e-06
1269.91	1.13519e-06
1278.58	4.60889e-07
1287.26	5.76744e-07
1295.94	6.22993e-07
1304.62	7.71121e-07
1313.3	6.95862e-07
1321.98	7.8143e-07
1330.65	2.76531e-07
1339.33	4.27105e-07
1348.01	1.23629e-07
1356.69	7.68283e-07
1365.37	5.56508e-06
1374.04	3.74753e-05
1382.72	4.69135e-05
1391.4	5.0295e-05
1400.08	1.5206e-05
1408.76	4.73176e-06
1417.44	1.32791e-05
1426.11	2.10943e-05
1434.79	1.70118e-05
1443.47	3.28972e-05
1452.15	2.64405e-05
1460.83	2.24177e-05
1469.5	1.68307e-05
1478.18	2.97453e-06
1486.86	5.67095e-07
1495.54	1.23703e-07
1504.22	7.587e-08
1512.9	-3.20672e-09
1521.57	-3.77131e-08
1530.25	5.27808e-08
1538.93	-9.73439e-08
1547.61	3.07994e-08
1556.29	3.17616e-08
1564.96	2.68815e-08
1573.64	3.72674e-08
1582.32	8.18068e-08
1591	1.02033e-07
1599.68	3.78222e-08
1608.36	8.3051e-09
1617.03	-1.87949e-07
1625.71	-2.47207e-08
1634.39	-8.84804e-08
1643.07	-6.69537e-09
1651.75	-1.38962e-07
1660.42	5.1926e-08
1669.1	1.61155e-09
1677.78	1.19596e-07
1686.46	1.51196e-07
1695.14	1.97101e-07
1703.82	2.86635e-07
1712.49	4.46871e-07
1721.17	6.16734e-07
1729.85	8.04634e-07
1738.53	5.23932e-07
1747.21	3.37255e-07
1755.88	1.83174e-07
1764.56	1.81986e-07
1773.24	2.02729e-07
1781.92	7.32215e-07
1790.6	1.38001e-06
1799.28	1.39676e-06
1807.95	4.50871e-07
1816.63	3.47823e-07
1825.31	2.14052e-07
1833.99	1.64319e-07
1842.67	3.04211e-08
1851.34	-2.01607e-08
1860.02	-4.62364e-08
1868.7	-5.3281e-08
1877.38	-2.42387e-08
1886.06	2.34656e-08
1894.74	1.31694e-07
1903.41	3.14115e-07
1912.09	3.66135e-07
1920.77	3.10839e-07
1929.45	1.45232e-07
1938.13	9.01774e-08
1946.8	6.47819e-08
1955.48	6.72775e-08
1964.16	6.30885e-08
1972.84	7.50587e-08
1981.52	2.7409e-08
1990.2	-6.52258e-09
1998.87	-3.06448e-08
2007.55	-3.27839e-08
2016.23	-4.34699e-08
2024.91	9.35096e-09
2033.59	3.75967e-08
2042.26	1.05278e-08
2050.94	-4.6e-09
2059.62	1.49295e-08
2068.3	1.44675e-08
2076.98	8.32238e-08
2085.66	1.17352e-07
2094.33	3.39156e-07
2103.01	1.18716e-06
2111.69	1.94188e-06
2120.37	2.16437e-06
2129.05	3.59321e-06
2137.72	5.59774e-06
2146.4	2.33583e-06
2155.08	1.03322e-06
2163.76	3.88859e-07
2172.44	-4.76697e-08
2181.12	6.66445e-08
2189.79	-1.06246e-07
2198.47	-1.71797e-07
2207.15	-1.50438e-07
2215.83	-1.02219e-07
2224.51	-1.01878e-07
2233.18	-5.37412e-08
2241.86	-3.09868e-08
2250.54	-2.72471e-09
2259.22	-2.13066e-08
2267.9	-1.20902e-08
2276.58	-9.21819e-09
2285.25	-2.43041e-08
2293.93	-1.2314e-09
2302.61	1.00512e-08
2311.29	7.32489e-08
2319.97	2.07333e-07
2328.64	4.44279e-07
2337.32	5.81501e-07
2346	2.9428e-07
2354.68	5.24312e-07
2363.36	7.74186e-07
2372.04	3.3939e-07
2380.71	4.02759e-08
2389.39	4.42902e-09
2398.07	2.32237e-08
2406.75	5.24316e-08
2415.43	1.36116e-07
2424.1	4.63365e-07
2432.78	1.37623e-06
2441.46	3.34755e-06
2450.14	7.23021e-06
2458.82	5.22097e-06
2467.5	2.03524e-06
2476.17	8.83984e-07
2484.85	3.46882e-07
2493.53	3.56528e-07
2502.21	4.26572e-07
2510.89	5.97669e-07
2519.56	5.70312e-07
2528.24	4.29128e-07
2536.92	4.68412e-07
2545.6	4.13396e-07
2554.28	2.70942e-07
2562.96	1.20471e-07
2571.63	-6.3898e-09
2580.31	-8.01953e-09
2588.99	-2.92134e-08
2597.67	-2.37512e-08
2606.35	4.29806e-08
2615.02	8.99992e-09
2623.7	-2.56883e-08
2632.38	-1.19538e-08
2641.06	6.31158e-09
2649.74	6.45255e-08
2658.42	1.53317e-07
2667.09	2.70867e-07
2675.77	1.75633e-07
2684.45	5.07073e-08
2693.13	3.9652e-10
2701.81	-4.76697e-08
2710.48	1.93131e-08
2719.16	1.66429e-09
2727.84	-4.7617e-08
2736.52	-3.6629e-08
2745.2	-7.04533e-08
2753.88	-3.03283e-08
2762.55	4.48977e-08
2771.23	1.82527e-08
2779.91	2.41041e-08
2788.59	1.72886e-08
2797.27	2.62003e-07
2805.94	4.97447e-07
2814.62	6.77575e-07
2823.3	1.11484e-06
2831.98	1.03791e-06
2840.66	9.47123e-07
2849.34	1.15362e-06
2858.01	1.60603e-06
2866.69	2.47622e-06
2875.37	2.49804e-06
2884.05	2.22876e-06
2892.73	2.22161e-06
2901.4	1.7045e-06
2910.08	1.02482e-06
2918.76	3.89597e-07
2927.44	3.14271e-07
2936.12	4.89401e-06
2944.8	1.02226e-05
2953.47	6.14792e-06
2962.15	9.89088e-06
2970.83	1.35316e-06
2979.51	6.63007e-07
2988.19	9.68682e-07
2996.86	5.21529e-06
3005.54	4.40231e-05
3014.22	7.14695e-05
3022.9	3.62544e-05
3031.58	1.71557e-06
3040.26	1.22405e-07
3048.93	1.61024e-07
3057.61	6.88599e-08
3066.29	3.16852e-08
3074.97	5.05181e-08
3083.65	-2.86113e-09
3092.32	4.92012e-08
3101	-1.74105e-08
3109.68	-1.87838e-08
3118.36	-8.49426e-09
3127.04	-1.08697e-08
3135.72	-1.62446e-08
3144.39	-1.75433e-08
3153.07	6.57605e-08
3161.75	1.21985e-07
3170.43	2.01063e-07
3179.11	3.90949e-07
3187.78	5.0763e-07
3196.46	3.38324e-07
3205.14	1.11557e-07
3213.82	1.40048e-07
3222.5	6.48511e-08
3231.18	7.00622e-08
3239.85	4.21847e-07
3248.53	8.57329e-07
3257.21	7.65793e-07
3265.89	2.24016e-07
3274.57	8.64705e-08
3283.24	3.75879e-07
3291.92	8.54938e-07
3300.6	8.64385e-07
3309.28	3.41706e-07
3317.96	1.15773e-08
3326.64	-2.3833e-08
3335.31	1.25371e-07
3343.99	1.06017e-06
3352.67	2.28112e-06
3361.35	1.81367e-06
3370.03	8.7217e-07
3378.7	8.85404e-08
3387.38	-5.41068e-08
3396.06	-6.7523e-08
3404.74	-9.13397e-08
3413.42	-7.92313e-08
3422.1	-1.05327e-07
3430.77	-7.7296e-08
3439.45	-9.10614e-08
3448.13	-5.09419e-08
3456.81	-2.23288e-08
3465.49	6.39889e-09
3474.16	1.18776e-07
3482.84	5.06527e-08
3491.52	3.91227e-08
3500.2	9.93301e-08
3508.88	2.63413e-08
3517.56	9.58506e-08
3526.23	2.82903e-07
3534.91	4.46724e-07
3543.59	4.25619e-07
3552.27	1.57399e-07
3560.95	5.03326e-08
3569.62	2.02971e-08
3578.3	-3.14324e-08
3586.98	-7.41747e-08
3595.66	-4.34626e-08
3604.34	-6.4751e-08
3613.02	-1.18047e-07
3621.69	-2.25253e-08
3630.37	-1.03146e-07
3639.05	-6.12424e-08
3647.73	-5.60057e-08
3656.41	-1.19434e-07
3665.08	-2.85567e-08
3673.76	-1.38346e-08
3682.44	-2.22997e-09
3691.12	-7.22322e-08
3699.8	-5.19441e-08
3708.48	-8.82985e-08
3717.15	-5.43869e-08
3725.83	-1.7878e-08
3734.51	2.98045e-08
3743.19	-1.93222e-08
3751.87	-1.57244e-07
3760.54	-8.94972e-08
3769.22	-1.13468e-07
3777.9	-1.2946e-07
3786.58	-7.02205e-08
3795.26	-8.73672e-08
3803.94	-2.81457e-08
3812.61	-1.33598e-08
3821.29	-8.2478e-08
3829.97	7.96023e-08
3838.65	-6.0764e-08
3847.33	-9.17599e-08
3856	-6.90964e-08
3864.68	-1.4053e-07
3873.36	-7.33617e-08
3882.04	-7.68431e-08
3890.72	-6.71465e-08
3899.4	-9.00556e-08
3908.07	1.75451e-08
3916.75	8.50299e-08
3925.43	1.1719e-07
3934.11	1.8203e-07
3942.79	2.85615e-07
3951.46	4.21588e-07
3960.14	3.79704e-07
3968.82	3.43457e-07
