Infrared Spectrum: 1,1,1-Trichloroethane
Formula: C H3 C Cl3
CAS: 71-55-6
State: gas
Melting point: -30.41 C
Boiling point: 74.1 C
Class: IUPAC A
Instrument: IFS66V (Bruker)
Instrument parameters: KBr Beam Splitter; MCT Detector; Multipass cell
Sampling: 1 L/min Flow
Resolution: 0.4820
Temperature: 23 C
Pressure: 101.3 Pa
Origin: NIST, Analytical Chemistry Division, 301-975-3108
cm-1	(micromol/mol)-1m-1 (base 10)
575.17	3.45404e-06
583.848	1.29946e-06
592.526	1.10113e-06
601.205	-3.5745e-08
609.883	-2.06141e-07
618.561	1.6241e-07
627.239	4.33553e-08
635.917	-1.00481e-07
644.595	2.32819e-10
653.274	1.91081e-07
661.952	1.08798e-06
670.63	4.61468e-06
679.308	1.60207e-05
687.986	3.61864e-05
696.665	3.81406e-05
705.343	0.000111503
714.021	0.000592917
722.699	0.00186223
731.377	0.00105821
740.055	9.34279e-05
748.734	3.34074e-05
757.412	1.38345e-05
766.09	9.52298e-06
774.768	6.52955e-06
783.446	3.98632e-06
792.124	5.41144e-06
800.803	7.85885e-06
809.481	7.55661e-06
818.159	5.72112e-06
826.837	3.88382e-06
835.515	2.76878e-06
844.194	2.18084e-06
852.872	2.68689e-06
861.55	6.1414e-06
870.228	5.3321e-06
878.906	2.06176e-06
887.584	3.94383e-07
896.263	1.22712e-07
904.941	-1.66538e-08
913.619	1.11166e-07
922.297	1.56971e-07
930.975	2.36066e-07
939.654	5.24975e-07
948.332	1.74661e-06
957.01	3.23549e-06
965.688	3.36167e-06
974.366	2.20729e-06
983.044	1.69856e-06
991.723	5.87682e-06
1000.4	1.04216e-05
1009.08	1.86988e-05
1017.76	1.52108e-05
1026.44	2.52645e-06
1035.11	2.64913e-06
1043.79	5.41582e-06
1052.47	1.65211e-05
1061.15	7.07989e-05
1069.83	0.000166056
1078.5	0.000307255
1087.18	0.000888734
1095.86	0.000674456
1104.54	0.000101138
1113.22	3.87825e-05
1121.9	1.26894e-05
1130.57	1.69033e-06
1139.25	4.26792e-07
1147.93	2.56228e-07
1156.61	2.47914e-07
1165.29	8.37167e-08
1173.96	2.8393e-09
1182.64	1.15793e-07
1191.32	3.44569e-07
1200	4.89033e-07
1208.68	5.88456e-07
1217.36	9.00214e-07
1226.03	1.49399e-06
1234.71	4.56573e-06
1243.39	9.09839e-06
1252.07	9.54862e-06
1260.75	2.2673e-06
1269.42	1.09087e-06
1278.1	5.12117e-07
1286.78	5.54648e-07
1295.46	6.29652e-07
1304.14	7.78436e-07
1312.82	8.0737e-07
1321.49	7.48394e-07
1330.17	3.33297e-07
1338.85	3.43301e-07
1347.53	2.7753e-07
1356.21	5.77577e-07
1364.88	5.06182e-06
1373.56	3.42239e-05
1382.24	2.18068e-05
1390.92	4.85607e-05
1399.6	1.73067e-05
1408.28	4.5318e-06
1416.95	1.28773e-05
1425.63	1.88826e-05
1434.31	1.64088e-05
1442.99	3.22031e-05
1451.67	2.51628e-05
1460.34	2.22135e-05
1469.02	1.78873e-05
1477.7	3.31772e-06
1486.38	5.80658e-07
1495.06	2.10208e-07
1503.74	7.91021e-08
1512.41	-2.66523e-08
1521.09	-1.81568e-07
1529.77	6.76867e-08
1538.45	-1.58608e-09
1547.13	8.47298e-08
1555.8	6.87726e-09
1564.48	1.76579e-08
1573.16	3.26965e-08
1581.84	8.35312e-08
1590.52	6.78577e-08
1599.2	2.56647e-08
1607.87	-1.71868e-08
1616.55	-3.74855e-07
1625.23	-7.84346e-08
1633.91	-2.48789e-08
1642.59	-1.02986e-08
1651.26	9.38916e-09
1659.94	3.58178e-08
1668.62	2.20669e-08
1677.3	1.06358e-07
1685.98	2.1082e-07
1694.66	3.20998e-07
1703.33	2.95415e-07
1712.01	4.67084e-07
1720.69	5.90002e-07
1729.37	7.52228e-07
1738.05	5.70773e-07
1746.72	3.53587e-07
1755.4	2.13228e-07
1764.08	1.56471e-07
1772.76	1.82527e-08
1781.44	6.76596e-07
1790.12	1.39483e-06
1798.79	1.45617e-06
1807.47	4.80277e-07
1816.15	3.37133e-07
1824.83	2.33147e-07
1833.51	1.45803e-07
1842.18	4.71677e-08
1850.86	-4.16674e-08
1859.54	-2.69033e-08
1868.22	-3.62161e-08
1876.9	3.33659e-08
1885.58	2.61176e-08
1894.25	1.36299e-07
1902.93	2.90038e-07
1911.61	4.85866e-07
1920.29	3.07511e-07
1928.97	2.03013e-07
1937.64	1.05185e-07
1946.32	8.61577e-08
1955	6.89254e-08
1963.68	7.22776e-08
1972.36	8.87496e-08
1981.04	3.15197e-08
1989.71	-7.19921e-09
1998.39	-1.3669e-08
2007.07	-2.33037e-08
2015.75	-2.3331e-08
2024.43	9.77295e-09
2033.1	6.26484e-08
2041.78	4.90194e-09
2050.46	2.13539e-09
2059.14	3.51393e-08
2067.82	4.09198e-08
2076.5	1.15966e-07
2085.17	1.41078e-07
2093.85	3.13326e-07
2102.53	1.16395e-06
2111.21	1.90088e-06
2119.89	2.01028e-06
2128.56	3.53122e-06
2137.24	5.69854e-06
2145.92	2.6108e-06
2154.6	9.66558e-07
2163.28	4.28613e-07
2171.96	1.155e-09
2180.63	1.28722e-07
2189.31	-6.52221e-08
2197.99	-1.20691e-07
2206.67	-1.66568e-07
2215.35	-1.07501e-07
2224.02	-1.0926e-07
2232.7	-5.94453e-08
2241.38	-1.85801e-08
2250.06	1.32107e-08
2258.74	-1.51969e-08
2267.42	-4.70004e-09
2276.09	-1.63828e-08
2284.77	1.2103e-08
2293.45	-7.7758e-09
2302.13	1.81999e-08
2310.81	6.07185e-08
2319.48	2.15061e-07
2328.16	1.22628e-07
2336.84	1.565e-07
2345.52	1.80917e-07
2354.2	7.3345e-07
2362.88	1.67081e-06
2371.55	6.4575e-07
2380.23	-1.97278e-08
2388.91	2.42259e-08
2397.59	1.07715e-08
2406.27	8.77019e-08
2414.94	1.33522e-07
2423.62	4.4781e-07
2432.3	1.30311e-06
2440.98	3.14508e-06
2449.66	6.22791e-06
2458.34	5.26808e-06
2467.01	2.09228e-06
2475.69	9.16315e-07
2484.37	3.33988e-07
2493.05	3.99985e-07
2501.73	4.35583e-07
2510.4	5.73306e-07
2519.08	5.98856e-07
2527.76	4.65053e-07
2536.44	4.54139e-07
2545.12	4.26447e-07
2553.8	2.96588e-07
2562.47	1.19305e-07
2571.15	3.09577e-09
2579.83	-4.42338e-08
2588.51	-3.42954e-08
2597.19	-2.5912e-08
2605.86	5.99619e-08
2614.54	-4.61637e-09
2623.22	-3.20035e-08
2631.9	-1.75178e-08
2640.58	2.47207e-08
2649.26	8.79675e-08
2657.93	1.15918e-07
2666.61	2.46568e-07
2675.29	1.46751e-07
2683.97	6.09095e-08
2692.65	-5.59312e-09
2701.32	-7.65502e-08
2710	4.49123e-08
2718.68	7.79581e-09
2727.36	-2.69434e-08
2736.04	-3.09013e-08
2744.71	-2.1363e-08
2753.39	-7.39201e-09
2762.07	-1.11062e-08
2770.75	-5.50363e-08
2779.43	4.1822e-08
2788.11	-3.8477e-08
2796.78	2.54211e-07
2805.46	4.3061e-07
2814.14	6.46055e-07
2822.82	1.17898e-06
2831.5	1.05815e-06
2840.17	9.5238e-07
2848.85	1.04539e-06
2857.53	1.56996e-06
2866.21	2.44871e-06
2874.89	2.5434e-06
2883.57	2.15523e-06
2892.24	2.2076e-06
2900.92	1.75387e-06
2909.6	1.07238e-06
2918.28	4.71683e-07
2926.96	2.28105e-07
2935.63	4.32473e-06
2944.31	1.09209e-05
2952.99	5.49697e-06
2961.67	1.05593e-05
2970.35	1.43078e-06
2979.03	7.11492e-07
2987.7	9.57125e-07
2996.38	4.43105e-06
3005.06	4.27976e-05
3013.74	8.25292e-05
3022.42	3.96787e-05
3031.09	2.06723e-06
3039.77	1.22594e-07
3048.45	1.84144e-07
3057.13	1.28873e-07
3065.81	5.77901e-08
3074.49	-1.82472e-08
3083.16	1.13408e-08
3091.84	5.65387e-08
3100.52	3.09686e-08
3109.2	-5.63259e-08
3117.88	3.91445e-08
3126.55	-4.91758e-08
3135.23	-1.20193e-08
3143.91	-1.98078e-09
3152.59	7.70868e-08
3161.27	1.11108e-07
3169.95	2.44797e-07
3178.62	4.02935e-07
3187.3	4.21765e-07
3195.98	3.66601e-07
3204.66	5.35339e-08
3213.34	1.55934e-07
3222.01	1.03324e-07
3230.69	5.1202e-08
3239.37	4.03483e-07
3248.05	8.57339e-07
3256.73	8.525e-07
3265.41	2.2098e-07
3274.08	7.03023e-08
3282.76	2.9416e-07
3291.44	8.86501e-07
3300.12	8.011e-07
3308.8	3.00746e-07
3317.47	2.00315e-08
3326.15	-2.32219e-08
3334.83	1.4493e-07
3343.51	9.28112e-07
3352.19	2.11558e-06
3360.87	1.8988e-06
3369.54	9.35126e-07
3378.22	7.60882e-08
3386.9	-2.84385e-08
3395.58	-5.87559e-08
3404.26	-1.37627e-07
3412.93	-1.61609e-08
3421.61	-1.22285e-07
3430.29	-9.97849e-09
3438.97	-2.99991e-08
3447.65	-3.60833e-08
3456.33	2.90569e-08
3465	-4.93049e-08
3473.68	1.33791e-07
3482.36	7.44385e-08
3491.04	2.05518e-08
3499.72	1.43382e-07
3508.39	1.10047e-07
3517.07	1.24678e-07
3525.75	3.34588e-07
3534.43	4.3388e-07
3543.11	3.60621e-07
3551.79	1.2018e-07
3560.46	1.19529e-07
3569.14	4.86374e-08
3577.82	-2.70088e-08
3586.5	-4.60309e-08
3595.18	-8.44315e-08
3603.85	-4.19311e-08
3612.53	-2.08946e-07
3621.21	-3.44136e-08
3629.89	-2.64166e-07
3638.57	-4.75479e-08
3647.25	-1.9224e-08
3655.92	-4.91376e-08
3664.6	-4.03832e-08
3673.28	2.50281e-08
3681.96	3.17052e-08
3690.64	-3.75785e-09
3699.31	-1.07994e-07
3707.99	-9.59124e-08
3716.67	-2.72762e-08
3725.35	3.69764e-08
3734.03	6.36961e-08
3742.71	8.8022e-08
3751.38	-8.73072e-09
3760.06	-1.94631e-07
3768.74	-9.63817e-08
3777.42	-1.65333e-07
3786.1	-1.26592e-07
3794.77	-1.17563e-07
3803.45	7.59936e-09
3812.13	-5.27299e-09
3820.81	-1.55109e-07
3829.49	1.0974e-07
3838.17	-8.8755e-08
3846.84	-7.20612e-08
3855.52	-1.04314e-07
3864.2	-8.84295e-08
3872.88	-4.4734e-08
3881.56	-5.28554e-08
3890.23	-7.72851e-08
3898.91	-7.31289e-08
3907.59	4.37882e-08
3916.27	9.63399e-08
3924.95	4.71477e-08
3933.63	1.63928e-07
3942.3	2.78866e-07
3950.98	4.58528e-07
3959.66	3.78275e-07
3968.34	4.12019e-07
