Infrared Spectrum: 1,1,1-Trichloroethane
Formula: C H3 C Cl3
CAS: 71-55-6
State: gas
Melting point: -30.41 C
Boiling point: 74.1 C
Class: IUPAC A
Instrument: IFS66V (Bruker)
Instrument parameters: KBr Beam Splitter; MCT Detector; Multipass cell
Sampling: 1 L/min Flow
Resolution: 0.4820
Temperature: 23 C
Pressure: 101.3 Pa
Origin: NIST, Analytical Chemistry Division, 301-975-3108
cm-1	(micromol/mol)-1m-1 (base 10)
575.17	2.98869e-06
583.848	1.48252e-06
592.526	1.07887e-06
601.205	1.6552e-09
609.883	-1.40465e-07
618.561	1.41476e-07
627.239	-4.88011e-09
635.917	-3.38339e-07
644.595	7.11736e-08
653.274	4.47286e-08
661.952	1.1309e-06
670.63	4.49645e-06
679.308	1.61172e-05
687.986	3.6189e-05
696.665	3.80185e-05
705.343	0.000111266
714.021	0.000591994
722.699	0.00186058
731.377	0.00105804
740.055	9.35392e-05
748.734	3.35708e-05
757.412	1.39282e-05
766.09	9.46374e-06
774.768	6.54398e-06
783.446	3.98698e-06
792.124	5.3344e-06
800.803	7.78368e-06
809.481	7.61798e-06
818.159	5.71338e-06
826.837	3.70271e-06
835.515	2.86921e-06
844.194	2.21034e-06
852.872	2.70365e-06
861.55	6.28505e-06
870.228	5.21021e-06
878.906	2.08059e-06
887.584	3.98865e-07
896.263	1.15626e-07
904.941	1.98897e-08
913.619	8.54756e-08
922.297	1.28982e-07
930.975	2.33805e-07
939.654	5.07357e-07
948.332	1.75856e-06
957.01	3.20813e-06
965.688	3.33798e-06
974.366	2.22715e-06
983.044	1.70046e-06
991.723	5.95061e-06
1000.4	1.04673e-05
1009.08	1.86293e-05
1017.76	1.52303e-05
1026.44	2.56731e-06
1035.11	2.61203e-06
1043.79	5.43326e-06
1052.47	1.64741e-05
1061.15	7.07776e-05
1069.83	0.000165747
1078.5	0.000307139
1087.18	0.000890338
1095.86	0.000675292
1104.54	0.000100953
1113.22	3.86925e-05
1121.9	1.26431e-05
1130.57	1.60893e-06
1139.25	3.9367e-07
1147.93	1.35657e-07
1156.61	1.73301e-07
1165.29	3.89063e-08
1173.96	-2.78601e-08
1182.64	3.27493e-08
1191.32	2.433e-07
1200	4.16941e-07
1208.68	5.59696e-07
1217.36	8.78996e-07
1226.03	1.42043e-06
1234.71	4.50766e-06
1243.39	9.05184e-06
1252.07	9.55853e-06
1260.75	2.24097e-06
1269.42	9.95446e-07
1278.1	4.21596e-07
1286.78	4.27107e-07
1295.46	4.88826e-07
1304.14	6.98476e-07
1312.82	6.77195e-07
1321.49	6.53427e-07
1330.17	1.44915e-07
1338.85	1.58077e-07
1347.53	1.04352e-07
1356.21	2.62096e-07
1364.88	4.49591e-06
1373.56	3.3372e-05
1382.24	1.77563e-05
1390.92	4.99643e-05
1399.6	1.78701e-05
1408.28	4.83268e-06
1416.95	1.31483e-05
1425.63	1.87246e-05
1434.31	1.66476e-05
1442.99	3.23353e-05
1451.67	2.50812e-05
1460.34	2.22605e-05
1469.02	1.79416e-05
1477.7	3.36974e-06
1486.38	7.04551e-07
1495.06	3.09217e-07
1503.74	1.65964e-07
1512.41	2.71307e-08
1521.09	-1.27449e-07
1529.77	1.22243e-07
1538.45	4.152e-08
1547.13	1.26455e-07
1555.8	3.27166e-08
1564.48	5.14421e-08
1573.16	9.34733e-08
1581.84	1.25675e-07
1590.52	1.11739e-07
1599.2	3.57268e-08
1607.87	-8.98718e-09
1616.55	-4.00422e-07
1625.23	-7.15737e-08
1633.91	1.4131e-08
1642.59	3.06084e-08
1651.26	3.54103e-08
1659.94	5.28754e-08
1668.62	4.04341e-08
1677.3	1.16184e-07
1685.98	2.27443e-07
1694.66	3.82882e-07
1703.33	3.2575e-07
1712.01	5.0461e-07
1720.69	6.39674e-07
1729.37	8.10556e-07
1738.05	6.00906e-07
1746.72	4.16632e-07
1755.4	2.39571e-07
1764.08	1.68945e-07
1772.76	-7.40856e-08
1781.44	6.85101e-07
1790.12	1.41492e-06
1798.79	1.50843e-06
1807.47	4.59798e-07
1816.15	3.75456e-07
1824.83	2.87997e-07
1833.51	1.57511e-07
1842.18	7.79853e-08
1850.86	-2.08337e-08
1859.54	1.61373e-08
1868.22	-2.71653e-08
1876.9	1.0245e-07
1885.58	2.76982e-08
1894.25	1.31994e-07
1902.93	2.82384e-07
1911.61	4.31456e-07
1920.29	3.00584e-07
1928.97	2.29663e-07
1937.64	1.39288e-07
1946.32	9.214e-08
1955	1.16113e-07
1963.68	6.57842e-08
1972.36	1.36658e-07
1981.04	4.34281e-08
1989.71	1.67339e-08
1998.39	-3.61415e-09
2007.07	9.20909e-09
2015.75	-6.41162e-09
2024.43	1.58099e-08
2033.1	7.68049e-08
2041.78	1.83327e-08
2050.46	1.00894e-08
2059.14	4.33407e-08
2067.82	5.56856e-08
2076.5	1.51434e-07
2085.17	1.15897e-07
2093.85	2.75976e-07
2102.53	1.16257e-06
2111.21	1.97458e-06
2119.89	2.07834e-06
2128.56	3.53856e-06
2137.24	5.72624e-06
2145.92	2.64114e-06
2154.6	8.86521e-07
2163.28	4.3181e-07
2171.96	4.25313e-08
2180.63	1.74021e-07
2189.31	-6.93692e-08
2197.99	-6.11787e-08
2206.67	-1.22448e-07
2215.35	-8.76473e-08
2224.02	-1.09796e-07
2232.7	-5.78137e-08
2241.38	8.98718e-09
2250.06	3.36751e-08
2258.74	-2.66978e-08
2267.42	6.21154e-09
2276.09	-1.9364e-08
2284.77	5.21606e-08
2293.45	5.30755e-09
2302.13	5.20169e-08
2310.81	-1.8149e-08
2319.48	-5.36939e-09
2328.16	1.22732e-07
2336.84	-6.60806e-09
2345.52	1.54605e-07
2354.2	5.92787e-07
2362.88	2.35434e-06
2371.55	8.09145e-07
2380.23	-8.08719e-08
2388.91	4.88338e-08
2397.59	6.22246e-09
2406.27	1.25309e-07
2414.94	1.57078e-07
2423.62	4.60565e-07
2432.3	1.28733e-06
2440.98	3.12204e-06
2449.66	6.19592e-06
2458.34	5.28525e-06
2467.01	2.09898e-06
2475.69	9.01685e-07
2484.37	3.13986e-07
2493.05	4.3515e-07
2501.73	4.66088e-07
2510.4	5.59676e-07
2519.08	6.13608e-07
2527.76	4.77096e-07
2536.44	4.40034e-07
2545.12	4.30384e-07
2553.8	2.91335e-07
2562.47	8.97209e-08
2571.15	-2.24634e-09
2579.83	-5.26553e-08
2588.51	1.18665e-08
2597.19	-2.26107e-08
2605.86	1.08374e-07
2614.54	-1.36199e-08
2623.22	-2.00297e-08
2631.9	-3.21127e-08
2640.58	1.19884e-08
2649.26	9.88681e-08
2657.93	8.91916e-08
2666.61	2.26893e-07
2675.29	1.10158e-07
2683.97	9.8417e-08
2692.65	7.72487e-09
2701.32	-5.71717e-08
2710	7.67376e-08
2718.68	3.84697e-09
2727.36	-4.11744e-08
2736.04	-2.10883e-08
2744.71	5.75318e-09
2753.39	1.58208e-08
2762.07	-7.77743e-08
2770.75	-1.38209e-07
2779.43	2.87313e-08
2788.11	-4.53488e-08
2796.78	2.44235e-07
2805.46	4.38108e-07
2814.14	6.82209e-07
2822.82	1.24972e-06
2831.5	1.05247e-06
2840.17	9.76245e-07
2848.85	1.01648e-06
2857.53	1.59319e-06
2866.21	2.43296e-06
2874.89	2.51844e-06
2883.57	2.125e-06
2892.24	2.16404e-06
2900.92	1.73525e-06
2909.6	1.02239e-06
2918.28	4.77485e-07
2926.96	1.63394e-07
2935.63	4.27383e-06
2944.31	1.08766e-05
2952.99	5.54067e-06
2961.67	1.06806e-05
2970.35	1.38147e-06
2979.03	7.74517e-07
2987.7	9.9406e-07
2996.38	4.43813e-06
3005.06	4.27595e-05
3013.74	8.37954e-05
3022.42	3.97534e-05
3031.09	2.09708e-06
3039.77	1.61189e-07
3048.45	2.43201e-07
3057.13	1.6126e-07
3065.81	4.25459e-08
3074.49	-3.48338e-08
3083.16	5.77664e-08
3091.84	8.60813e-08
3100.52	5.38849e-08
3109.2	-2.64795e-08
3117.88	8.76201e-08
3126.55	-9.14652e-08
3135.23	-1.7285e-08
3143.91	2.95026e-08
3152.59	7.29088e-08
3161.27	1.17425e-07
3169.95	2.97332e-07
3178.62	4.25281e-07
3187.3	4.01629e-07
3195.98	3.68902e-07
3204.66	4.15619e-09
3213.34	1.94775e-07
3222.01	1.28862e-07
3230.69	5.09965e-08
3239.37	4.07874e-07
3248.05	9.49549e-07
3256.73	9.01201e-07
3265.41	1.98193e-07
3274.08	5.34029e-09
3282.76	2.97379e-07
3291.44	8.92689e-07
3300.12	7.68962e-07
3308.8	2.80849e-07
3317.47	-4.65329e-08
3326.15	4.92558e-09
3334.83	1.92833e-07
3343.51	8.8575e-07
3352.19	2.21757e-06
3360.87	1.9018e-06
3369.54	1.04241e-06
3378.22	9.15325e-08
3386.9	-9.2e-09
3395.58	-5.27554e-08
3404.26	-1.99806e-07
3412.93	4.52597e-08
3421.61	-1.13374e-07
3430.29	3.32786e-08
3438.97	4.20621e-08
3447.65	3.35296e-08
3456.33	1.87492e-08
3465	-1.47946e-07
3473.68	1.57127e-07
3482.36	9.7735e-08
3491.04	-3.80041e-08
3499.72	1.59652e-07
3508.39	1.8155e-07
3517.07	1.86535e-07
3525.75	4.09001e-07
3534.43	4.62444e-07
3543.11	3.75996e-07
3551.79	7.64847e-08
3560.46	1.31885e-07
3569.14	9.09468e-08
3577.82	3.10013e-08
3586.5	-3.47992e-08
3595.18	-1.27005e-07
3603.85	-2.34875e-08
3612.53	-2.56187e-07
3621.21	-5.82012e-08
3629.89	-2.53338e-07
3638.57	-5.22443e-08
3647.25	1.03314e-09
3655.92	9.27639e-11
3664.6	-1.80344e-08
3673.28	1.34362e-08
3681.96	2.99009e-08
3690.64	-6.06512e-08
3699.31	-1.45983e-07
3707.99	-1.38396e-07
3716.67	4.94704e-08
3725.35	7.37982e-08
3734.03	9.60397e-08
3742.71	1.42422e-07
3751.38	8.18996e-08
3760.06	-1.77359e-07
3768.74	-1.72739e-07
3777.42	-2.15702e-07
3786.1	-1.53288e-07
3794.77	-1.62993e-07
3803.45	9.51467e-09
3812.13	-1.3338e-08
3820.81	-2.22904e-07
3829.49	1.36136e-07
3838.17	6.34742e-08
3846.84	-6.58915e-08
3855.52	-1.68736e-07
3864.2	-4.74533e-08
3872.88	-5.27208e-08
3881.56	-3.08358e-08
3890.23	-1.00096e-07
3898.91	-6.03857e-08
3907.59	3.32004e-08
3916.27	7.66394e-08
3924.95	1.82727e-08
3933.63	1.04532e-07
3942.3	2.68559e-07
3950.98	5.19605e-07
3959.66	4.21112e-07
3968.34	4.06666e-07
