Infrared Spectrum: 1,1,1-Trichloroethane
Formula: C H3 C Cl3
CAS: 71-55-6
State: gas
Melting point: -30.41 C
Boiling point: 74.1 C
Class: IUPAC A
Instrument: IFS66V (Bruker)
Instrument parameters: KBr Beam Splitter; MCT Detector; Multipass cell
Sampling: 1 L/min Flow
Resolution: 0.1250
Temperature: 23 C
Pressure: 101.3 Pa
Origin: NIST, Analytical Chemistry Division, 301-975-3108
cm-1	(micromol/mol)-1m-1 (base 10)
575.05	2.3914e-06
583.608	6.09283e-07
592.165	4.50736e-07
600.723	-4.21232e-08
609.281	-9.19956e-07
617.838	2.86659e-07
626.396	3.42108e-08
634.954	-1.03744e-06
643.511	-1.50784e-07
652.069	-1.16791e-07
660.626	6.80466e-07
669.184	3.86613e-06
677.742	1.3313e-05
686.299	3.35569e-05
694.857	3.50402e-05
703.415	8.34282e-05
711.972	0.000395787
720.53	0.00163917
729.088	0.00182162
737.645	0.000173592
746.203	3.38424e-05
754.761	1.81765e-05
763.318	1.66267e-05
771.876	7.13625e-06
780.434	4.92442e-06
788.991	3.91562e-06
797.549	9.01949e-06
806.106	9.30529e-06
814.664	5.27258e-06
823.222	4.12893e-06
831.779	3.88815e-06
840.337	2.4006e-06
848.895	1.98276e-06
857.452	4.30527e-06
866.01	6.26227e-06
874.568	3.66009e-06
883.125	1.10024e-06
891.683	3.78567e-07
900.241	5.90468e-08
908.798	5.85957e-08
917.356	1.56124e-07
925.914	2.73679e-08
934.471	3.25716e-07
943.029	9.08184e-07
951.586	2.37772e-06
960.144	4.02139e-06
968.702	2.52076e-06
977.259	1.49751e-06
985.817	2.51724e-06
994.375	7.97243e-06
1002.93	1.32198e-05
1011.49	1.7559e-05
1020.05	7.75848e-06
1028.61	2.38635e-06
1037.16	3.00068e-06
1045.72	6.92691e-06
1054.28	2.31e-05
1062.84	9.00467e-05
1071.39	0.000213104
1079.95	0.000387892
1088.51	0.000879395
1097.07	0.000588157
1105.62	8.38273e-05
1114.18	3.62648e-05
1122.74	1.04236e-05
1131.3	1.54879e-06
1139.85	4.60613e-07
1148.41	2.5613e-07
1156.97	1.49583e-07
1165.53	8.41665e-08
1174.09	-4.3582e-09
1182.64	1.13775e-07
1191.2	4.14786e-07
1199.76	4.56214e-07
1208.32	5.53798e-07
1216.87	8.7824e-07
1225.43	1.47427e-06
1233.99	4.17637e-06
1242.55	8.5894e-06
1251.1	9.65269e-06
1259.66	2.65987e-06
1268.22	1.2412e-06
1276.78	6.86293e-07
1285.33	3.93697e-07
1293.89	6.53403e-07
1302.45	7.16775e-07
1311.01	8.64521e-07
1319.57	7.18922e-07
1328.12	3.97946e-07
1336.68	3.84002e-07
1345.24	2.91589e-07
1353.8	9.62246e-07
1362.35	2.22822e-06
1370.91	2.16332e-05
1379.47	3.44425e-05
1388.03	2.48566e-05
1396.58	3.88068e-05
1405.14	3.88936e-06
1413.7	9.36618e-06
1422.26	1.39946e-05
1430.81	1.4414e-05
1439.37	2.40042e-05
1447.93	3.19646e-05
1456.49	5.3497e-05
1465.05	2.40728e-05
1473.6	8.04563e-06
1482.16	1.23538e-06
1490.72	3.12197e-07
1499.28	1.88338e-07
1507.83	1.38146e-07
1516.39	6.57041e-08
1524.95	7.34383e-08
1533.51	-3.45964e-08
1542.06	-2.37169e-07
1550.62	1.30546e-07
1559.18	-7.1994e-08
1567.74	-4.03225e-08
1576.29	-2.11173e-07
1584.85	-2.96889e-08
1593.41	2.44649e-07
1601.97	4.98829e-08
1610.53	-1.9493e-07
1619.08	-2.70489e-07
1627.64	-1.40623e-07
1636.2	2.7277e-08
1644.76	-3.88637e-08
1653.31	-8.58843e-07
1661.87	1.12135e-07
1670.43	1.29564e-07
1678.99	4.5521e-08
1687.54	1.59227e-07
1696.1	7.56974e-08
1704.66	3.1936e-07
1713.22	4.5158e-07
1721.77	8.35204e-07
1730.33	9.122e-07
1738.89	6.11931e-07
1747.45	3.22711e-07
1756.01	1.96388e-07
1764.56	2.20399e-07
1773.12	2.43361e-07
1781.68	6.5611e-07
1790.24	1.41364e-06
1798.79	1.51183e-06
1807.35	3.9712e-07
1815.91	2.39261e-07
1824.47	2.34259e-07
1833.02	2.18634e-07
1841.58	3.33341e-08
1850.14	-4.37094e-08
1858.7	1.07936e-08
1867.25	-4.91117e-08
1875.81	-3.91802e-09
1884.37	-6.96258e-08
1892.93	-2.18747e-08
1901.49	3.13343e-07
1910.04	6.72684e-07
1918.6	4.60638e-07
1927.16	1.83579e-07
1935.72	2.45049e-07
1944.27	3.51603e-08
1952.83	2.43012e-08
1961.39	5.69513e-08
1969.95	-3.17516e-08
1978.5	5.68749e-08
1987.06	-1.74328e-08
1995.62	-6.38488e-08
2004.18	-3.49966e-09
2012.73	3.48511e-09
2021.29	1.01221e-07
2029.85	8.18891e-09
2038.41	1.51228e-08
2046.97	-1.61123e-08
2055.52	2.31625e-08
2064.08	-5.39755e-08
2072.64	1.09715e-07
2081.2	1.63818e-07
2089.75	8.16236e-08
2098.31	6.25933e-07
2106.87	1.69836e-06
2115.43	1.93089e-06
2123.98	2.76715e-06
2132.54	4.08552e-06
2141.1	2.87839e-06
2149.66	1.35485e-06
2158.21	7.61649e-07
2166.77	2.34263e-07
2175.33	7.82512e-09
2183.89	-4.85405e-08
2192.45	-1.63484e-07
2201	-8.87502e-08
2209.56	-2.16481e-07
2218.12	-1.71614e-07
2226.68	-2.48003e-07
2235.23	-1.54589e-07
2243.79	-1.22361e-07
2252.35	7.12264e-08
2260.91	-6.9593e-09
2269.46	-1.45018e-07
2278.02	4.39895e-08
2286.58	1.23619e-07
2295.14	9.26173e-08
2303.69	-7.14484e-09
2312.25	1.30208e-07
2320.81	2.00106e-07
2329.37	1.13579e-07
2337.93	3.11284e-07
2346.48	5.13453e-08
2355.04	6.9684e-08
2363.6	1.71112e-07
2372.16	7.09281e-08
2380.71	1.71789e-07
2389.27	5.01812e-08
2397.83	2.21075e-08
2406.39	8.98489e-08
2414.94	1.86537e-07
2423.5	4.58783e-07
2432.06	1.29905e-06
2440.62	2.90463e-06
2449.17	5.70991e-06
2457.73	5.11075e-06
2466.29	2.2481e-06
2474.85	9.0488e-07
2483.41	3.68192e-07
2491.96	3.62517e-07
2500.52	3.7255e-07
2509.08	5.41967e-07
2517.64	5.01623e-07
2526.19	3.95221e-07
2534.75	5.14144e-07
2543.31	4.76838e-07
2551.87	2.938e-07
2560.42	1.59591e-07
2568.98	-7.10482e-09
2577.54	-8.60291e-08
2586.1	-2.21439e-08
2594.65	-3.15697e-08
2603.21	-3.1115e-08
2611.77	6.84471e-08
2620.33	-4.32219e-08
2628.89	-1.03717e-07
2637.44	4.63869e-08
2646	-6.9011e-09
2654.56	1.84471e-07
2663.12	1.71614e-07
2671.67	1.66721e-07
2680.23	2.22996e-07
2688.79	-9.00999e-08
2697.35	5.30479e-08
2705.9	-3.9966e-08
2714.46	6.84143e-08
2723.02	2.70332e-08
2731.58	-6.91674e-08
2740.13	4.11083e-10
2748.69	1.92321e-07
2757.25	-1.257e-07
2765.81	-3.47238e-08
2774.37	6.76504e-08
2782.92	-4.64087e-08
2791.48	6.55004e-08
2800.04	3.82471e-07
2808.6	4.95969e-07
2817.15	1.1479e-06
2825.71	9.15739e-07
2834.27	1.18813e-06
2842.83	9.68056e-07
2851.38	1.26509e-06
2859.94	1.72976e-06
2868.5	2.41877e-06
2877.06	2.44934e-06
2885.61	2.20221e-06
2894.17	2.32353e-06
2902.73	1.72311e-06
2911.29	9.3884e-07
2919.85	2.1397e-07
2928.4	4.16525e-07
2936.96	6.0309e-06
2945.52	9.20066e-06
2954.08	6.70077e-06
2962.63	9.47113e-06
2971.19	1.3031e-06
2979.75	5.45405e-07
2988.31	1.04451e-06
2996.86	4.94061e-06
3005.42	4.45166e-05
3013.98	8.01792e-05
3022.54	3.89195e-05
3031.09	2.08527e-06
3039.65	1.98477e-07
3048.21	1.06711e-07
3056.77	2.8161e-08
3065.33	1.16016e-07
3073.88	6.93238e-08
3082.44	-1.18359e-07
3091	-1.55935e-07
3099.56	1.95432e-07
3108.11	1.61879e-07
3116.67	-1.87115e-07
3125.23	5.07342e-08
3133.79	7.99865e-08
3142.34	5.01994e-08
3150.9	6.68792e-08
3159.46	-3.84999e-08
3168.02	2.34175e-07
3176.57	2.49043e-07
3185.13	5.33851e-07
3193.69	3.56121e-07
3202.25	3.63208e-07
3210.81	8.77425e-08
3219.36	6.43617e-08
3227.92	-8.55743e-08
3236.48	1.15758e-08
3245.04	3.07654e-07
3253.59	7.10795e-07
3262.15	5.11838e-07
3270.71	3.38907e-08
3279.27	-7.53918e-08
3287.82	6.95406e-07
3296.38	1.07241e-06
3304.94	4.55923e-07
3313.5	5.70095e-08
3322.05	4.35457e-08
3330.61	-2.49622e-07
3339.17	4.71577e-07
3347.73	1.55076e-06
3356.29	3.4298e-06
3364.84	1.34081e-06
3373.4	5.98431e-07
3381.96	3.37961e-09
3390.52	-2.28358e-07
3399.07	8.8983e-09
3407.63	-6.32278e-07
3416.19	-4.29818e-07
3424.75	-5.34226e-08
3433.3	4.46443e-08
3441.86	-1.73255e-07
3450.42	-2.85542e-07
3458.98	8.78771e-08
3467.53	8.3719e-08
3476.09	9.2399e-08
3484.65	1.48335e-07
3493.21	-3.44e-08
3501.77	2.8623e-08
3510.32	1.04302e-07
3518.88	4.17718e-07
3527.44	3.14114e-07
3536	4.59128e-07
3544.55	4.24397e-07
3553.11	2.52092e-07
3561.67	1.44086e-07
3570.23	2.19911e-08
3578.78	4.29418e-08
3587.34	-1.36378e-07
3595.9	5.63583e-08
3604.46	-6.85235e-08
3613.01	3.63899e-08
3621.57	-2.01794e-08
3630.13	-2.12664e-07
3638.69	7.83458e-08
3647.25	4.40913e-08
3655.8	-1.04677e-07
3664.36	-3.07257e-08
3672.92	5.85666e-08
3681.48	-4.24543e-09
3690.03	-9.18533e-08
3698.59	-6.58715e-08
3707.15	-7.92662e-08
3715.71	-1.55404e-07
3724.26	1.00275e-07
3732.82	-1.15274e-07
3741.38	-1.86493e-07
3749.94	4.2578e-08
3758.49	1.8255e-08
3767.05	-1.53192e-07
3775.61	6.48965e-08
3784.17	-1.4728e-07
3792.73	-3.44527e-07
3801.28	-2.69463e-07
3809.84	-1.39859e-07
3818.4	-8.83646e-09
3826.96	1.74525e-07
3835.51	-3.88855e-08
3844.07	-2.13217e-08
3852.63	-1.06525e-07
3861.19	-1.5763e-08
3869.74	-8.75934e-08
3878.3	2.62984e-08
3886.86	-1.65226e-07
3895.42	1.75187e-07
3903.97	-1.42551e-07
3912.53	1.50154e-07
3921.09	4.60776e-08
3929.65	-2.31338e-07
3938.21	1.16791e-07
3946.76	3.86269e-07
3955.32	4.73727e-07
3963.88	4.01148e-07
3972.44	3.08698e-07
