Infrared Spectrum: 1,1,1-Trichloroethane
Formula: C H3 C Cl3
CAS: 71-55-6
State: gas
Melting point: -30.41 C
Boiling point: 74.1 C
Class: IUPAC A
Instrument: IFS66V (Bruker)
Instrument parameters: KBr Beam Splitter; MCT Detector; Multipass cell
Sampling: 1 L/min Flow
Resolution: 0.2410
Temperature: 23 C
Pressure: 101.3 Pa
Origin: NIST, Analytical Chemistry Division, 301-975-3108
cm-1	(micromol/mol)-1m-1 (base 10)
575.05	3.19245e-06
583.608	1.29331e-06
592.165	8.35528e-07
600.723	-7.16628e-08
609.281	-1.91254e-07
617.838	1.67954e-07
626.396	4.71222e-08
634.954	-1.01957e-07
643.511	2.38298e-07
652.069	-7.72105e-08
660.626	7.2876e-07
669.184	3.86134e-06
677.742	1.31339e-05
686.299	3.32686e-05
694.857	3.52226e-05
703.415	8.30694e-05
711.972	0.000396973
720.53	0.00163806
729.088	0.00181833
737.645	0.000173129
746.203	3.43572e-05
754.761	1.83293e-05
763.318	1.68549e-05
771.876	6.80097e-06
780.434	4.68269e-06
788.991	4.18307e-06
797.549	9.01506e-06
806.106	9.02804e-06
814.664	5.10393e-06
823.222	4.31497e-06
831.779	3.41922e-06
840.337	2.34298e-06
848.895	1.99036e-06
857.452	4.24057e-06
866.01	6.27245e-06
874.568	3.66459e-06
883.125	8.34686e-07
891.683	3.02629e-07
900.241	-8.35057e-09
908.798	1.4362e-08
917.356	1.41345e-07
925.914	1.80828e-07
934.471	3.11072e-07
943.029	8.95565e-07
951.586	2.31955e-06
960.144	3.92377e-06
968.702	2.57188e-06
977.259	1.56601e-06
985.817	2.52835e-06
994.375	8.02378e-06
1002.93	1.32515e-05
1011.49	1.75467e-05
1020.05	7.87448e-06
1028.61	2.29615e-06
1037.16	3.06027e-06
1045.72	6.82909e-06
1054.28	2.29332e-05
1062.84	9.00266e-05
1071.39	0.000213404
1079.95	0.000387953
1088.51	0.000879971
1097.07	0.000588119
1105.62	8.3779e-05
1114.18	3.62627e-05
1122.74	1.06156e-05
1131.3	1.44681e-06
1139.85	4.21097e-07
1148.41	3.01881e-07
1156.97	2.27646e-07
1165.53	1.0664e-07
1174.09	1.59699e-08
1182.64	1.12712e-07
1191.2	3.90811e-07
1199.76	5.06811e-07
1208.32	5.39991e-07
1216.87	8.8717e-07
1225.43	1.44523e-06
1233.99	4.17256e-06
1242.55	8.71204e-06
1251.1	9.70253e-06
1259.66	2.59511e-06
1268.22	1.24724e-06
1276.78	6.41573e-07
1285.33	4.8012e-07
1293.89	6.65492e-07
1302.45	7.08796e-07
1311.01	8.81383e-07
1319.57	6.98354e-07
1328.12	4.44437e-07
1336.68	3.90247e-07
1345.24	2.94416e-07
1353.8	4.75755e-07
1362.35	2.09143e-06
1370.91	2.17996e-05
1379.47	3.42064e-05
1388.03	2.47562e-05
1396.58	3.87091e-05
1405.14	3.91638e-06
1413.7	9.38827e-06
1422.26	1.40763e-05
1430.81	1.42617e-05
1439.37	2.39223e-05
1447.93	3.18036e-05
1456.49	5.35662e-05
1465.05	2.41066e-05
1473.6	7.97744e-06
1482.16	1.24991e-06
1490.72	2.85702e-07
1499.28	1.34597e-07
1507.83	3.12469e-08
1516.39	8.81403e-08
1524.95	5.11784e-08
1533.51	6.06512e-08
1542.06	-3.07294e-07
1550.62	5.78847e-08
1559.18	-6.8718e-08
1567.74	-7.59573e-09
1576.29	-3.43126e-07
1584.85	-1.51332e-08
1593.41	1.16904e-07
1601.97	2.61576e-08
1610.53	-5.77592e-08
1619.08	-1.33413e-07
1627.64	-2.02516e-08
1636.2	-4.78716e-08
1644.76	-7.58463e-08
1653.31	-7.19369e-07
1661.87	5.11384e-08
1670.43	9.75713e-08
1678.99	6.92128e-08
1687.54	1.84822e-07
1696.1	-3.60433e-08
1704.66	2.6565e-07
1713.22	4.85785e-07
1721.77	7.05138e-07
1730.33	9.29633e-07
1738.89	5.5841e-07
1747.45	2.85756e-07
1756.01	2.07156e-07
1764.56	2.04004e-07
1773.12	2.26138e-07
1781.68	7.19346e-07
1790.24	1.37356e-06
1798.79	1.47474e-06
1807.35	4.91687e-07
1815.91	2.8506e-07
1824.47	1.94397e-07
1833.02	2.05694e-07
1841.58	4.46867e-08
1850.14	-1.83891e-09
1858.7	-1.05915e-08
1867.25	-2.40695e-08
1875.81	-2.06463e-08
1884.37	-1.47931e-08
1892.93	8.13612e-08
1901.49	3.30598e-07
1910.04	5.15138e-07
1918.6	3.71358e-07
1927.16	1.45843e-07
1935.72	2.16671e-07
1944.27	9.55068e-08
1952.83	8.76655e-08
1961.39	7.18847e-08
1969.95	-1.86601e-08
1978.5	4.63874e-08
1987.06	-8.64159e-09
1995.62	-1.26286e-08
2004.18	5.04381e-09
2012.73	-5.08492e-08
2021.29	1.38e-08
2029.85	-4.2053e-09
2038.41	4.93613e-08
2046.97	1.30179e-08
2055.52	-1.83873e-08
2064.08	-4.15291e-08
2072.64	4.08652e-08
2081.2	1.08161e-07
2089.75	2.06125e-07
2098.31	6.27299e-07
2106.87	1.69311e-06
2115.43	1.84985e-06
2123.98	2.71178e-06
2132.54	4.06044e-06
2141.1	2.9258e-06
2149.66	1.28508e-06
2158.21	6.81096e-07
2166.77	1.82929e-07
2175.33	7.31416e-08
2183.89	4.45558e-08
2192.45	-1.01114e-07
2201	-1.44033e-07
2209.56	-2.03953e-07
2218.12	-1.17359e-07
2226.68	-1.61587e-07
2235.23	-1.73741e-08
2243.79	-6.99003e-08
2252.35	4.84719e-08
2260.91	-1.95695e-08
2269.46	-5.21679e-08
2278.02	-9.31277e-10
2286.58	1.36763e-08
2295.14	7.78671e-09
2303.69	4.02704e-09
2312.25	-7.41202e-09
2320.81	2.09395e-07
2329.37	1.19844e-07
2337.93	3.90874e-07
2346.48	6.91127e-08
2355.04	1.04507e-07
2363.6	1.43417e-07
2372.16	3.27511e-08
2380.71	1.07131e-07
2389.27	-2.33238e-08
2397.83	6.9211e-08
2406.39	9.11869e-08
2414.94	1.68126e-07
2423.5	4.42378e-07
2432.06	1.2387e-06
2440.62	3.03833e-06
2449.17	5.72429e-06
2457.73	5.21979e-06
2466.29	2.23129e-06
2474.85	9.49713e-07
2483.41	3.2395e-07
2491.96	3.47774e-07
2500.52	4.09549e-07
2509.08	5.99973e-07
2517.64	5.71353e-07
2526.19	3.87193e-07
2534.75	4.55587e-07
2543.31	4.26852e-07
2551.87	3.31624e-07
2560.42	1.47469e-07
2568.98	1.32561e-08
2577.54	-3.88517e-08
2586.1	-4.60109e-08
2594.65	-8.98537e-10
2603.21	1.7305e-08
2611.77	3.87098e-08
2620.33	-1.23867e-09
2628.89	-1.67175e-08
2637.44	-5.15476e-08
2646	1.68357e-08
2654.56	1.35075e-07
2663.12	1.99497e-07
2671.67	1.52833e-07
2680.23	1.37834e-07
2688.79	1.29524e-08
2697.35	3.65799e-08
2705.9	-3.86225e-08
2714.46	5.50217e-09
2723.02	-5.18077e-08
2731.58	-3.14742e-08
2740.13	-4.00376e-08
2748.69	2.09797e-07
2757.25	-6.07931e-08
2765.81	2.1574e-08
2774.37	6.19081e-08
2782.92	-3.30403e-08
2791.48	7.11008e-08
2800.04	3.63778e-07
2808.6	5.21806e-07
2817.15	8.89027e-07
2825.71	1.03864e-06
2834.27	1.23682e-06
2842.83	1.07371e-06
2851.38	1.2293e-06
2859.94	1.81269e-06
2868.5	2.6216e-06
2877.06	2.43733e-06
2885.61	2.18228e-06
2894.17	2.35889e-06
2902.73	1.68876e-06
2911.29	9.18168e-07
2919.85	2.863e-07
2928.4	3.69417e-07
2936.96	5.92384e-06
2945.52	9.08554e-06
2954.08	6.83591e-06
2962.63	9.45139e-06
2971.19	1.25871e-06
2979.75	6.50968e-07
2988.31	9.29967e-07
2996.86	5.05272e-06
3005.42	4.42182e-05
3013.98	7.98995e-05
3022.54	3.8887e-05
3031.09	2.03774e-06
3039.65	1.67141e-07
3048.21	1.29309e-07
3056.77	9.92883e-08
3065.33	9.79496e-08
3073.88	1.56862e-08
3082.44	-1.11639e-07
3091	-1.45075e-08
3099.56	-3.91555e-08
3108.11	3.10122e-09
3116.67	-7.50515e-08
3125.23	2.05136e-08
3133.79	-3.83661e-08
3142.34	7.28779e-08
3150.9	8.73072e-10
3159.46	-2.28927e-08
3168.02	1.4139e-07
3176.57	2.73799e-07
3185.13	3.60835e-07
3193.69	3.81585e-07
3202.25	2.79219e-07
3210.81	6.68737e-08
3219.36	6.07222e-08
3227.92	-8.00152e-08
3236.48	2.02849e-07
3245.04	5.27648e-07
3253.59	7.59707e-07
3262.15	4.39639e-07
3270.71	6.27702e-09
3279.27	1.04672e-07
3287.82	6.78224e-07
3296.38	9.89502e-07
3304.94	3.77109e-07
3313.5	6.86471e-08
3322.05	-9.41317e-08
3330.61	-2.93552e-08
3339.17	5.04701e-07
3347.73	1.39439e-06
3356.29	3.32392e-06
3364.84	1.50939e-06
3373.4	4.28371e-07
3381.96	-1.36079e-07
3390.52	-9.84225e-08
3399.07	-1.5102e-07
3407.63	-1.26905e-07
3416.19	-1.41358e-07
3424.75	-4.02941e-08
3433.3	8.15595e-09
3441.86	-1.57246e-07
3450.42	-1.752e-07
3458.98	2.43114e-08
3467.53	-1.25573e-07
3476.09	-1.59408e-08
3484.65	-2.12375e-08
3493.21	1.6612e-08
3501.77	2.45351e-08
3510.32	1.00252e-07
3518.88	2.10152e-07
3527.44	2.87657e-07
3536	4.52424e-07
3544.55	3.76098e-07
3553.11	2.06154e-07
3561.67	7.01732e-08
3570.23	4.65602e-08
3578.78	-5.27117e-09
3587.34	-1.04174e-07
3595.9	-9.24601e-08
3604.46	-1.29307e-07
3613.01	-1.35635e-07
3621.57	-1.34035e-08
3630.13	-1.45699e-07
3638.69	-2.86659e-09
3647.25	-1.2514e-08
3655.8	-1.73432e-08
3664.36	-8.91043e-08
3672.92	-1.31215e-08
3681.48	-4.9927e-08
3690.03	-7.11608e-08
3698.59	4.34517e-08
3707.15	-1.30051e-08
3715.71	-7.89148e-08
3724.26	6.34087e-08
3732.82	-1.87092e-08
3741.38	-1.71595e-08
3749.94	-4.13963e-08
3758.49	-1.10793e-07
3767.05	-3.28966e-08
3775.61	4.50214e-08
3784.17	-1.36765e-07
3792.73	-1.559e-07
3801.28	-3.95889e-07
3809.84	-5.56492e-08
3818.4	-4.24222e-08
3826.96	4.28205e-08
3835.51	1.35726e-08
3844.07	-8.72726e-08
3852.63	-3.5032e-08
3861.19	-2.95589e-08
3869.74	-9.40935e-08
3878.3	-8.8133e-08
3886.86	-6.24719e-08
3895.42	7.6121e-08
3903.97	-1.0769e-07
3912.53	1.30741e-07
3921.09	1.27861e-07
3929.65	-4.91103e-11
3938.21	1.20779e-07
3946.76	4.198e-07
3955.32	4.43246e-07
3963.88	3.62332e-07
3972.44	4.4473e-07
