Infrared Spectrum: 1,1,1-Trichloroethane
Formula: C H3 C Cl3
CAS: 71-55-6
State: gas
Melting point: -30.41 C
Boiling point: 74.1 C
Class: IUPAC A
Instrument: IFS66V (Bruker)
Instrument parameters: KBr Beam Splitter; MCT Detector; Multipass cell
Sampling: 1 L/min Flow
Resolution: 0.9640
Temperature: 23 C
Pressure: 101.3 Pa
Origin: NIST, Analytical Chemistry Division, 301-975-3108
cm-1	(micromol/mol)-1m-1 (base 10)
575.17	3.67418e-06
583.848	1.20901e-06
592.526	9.47039e-07
601.205	-7.53516e-08
609.883	-2.27966e-07
618.561	1.17988e-07
627.239	2.75891e-08
635.917	-5.07782e-08
644.595	-4.51815e-08
653.274	1.97109e-07
661.952	1.01991e-06
670.63	4.69702e-06
679.308	1.59386e-05
687.986	3.62364e-05
696.665	3.82042e-05
705.343	0.000111764
714.021	0.000593874
722.699	0.00186203
731.377	0.0010627
740.055	9.37931e-05
748.734	3.33264e-05
757.412	1.3932e-05
766.09	9.73694e-06
774.768	6.54306e-06
783.446	4.01809e-06
792.125	5.43342e-06
800.803	7.88349e-06
809.481	7.56103e-06
818.159	5.77273e-06
826.837	3.91849e-06
835.515	2.79344e-06
844.194	2.17045e-06
852.872	2.67141e-06
861.55	6.00241e-06
870.228	5.56227e-06
878.906	2.0768e-06
887.584	3.9704e-07
896.263	1.32625e-07
904.941	3.7724e-09
913.619	1.01542e-07
922.297	1.90073e-07
930.975	2.70021e-07
939.654	5.47596e-07
948.332	1.76044e-06
957.01	3.24247e-06
965.688	3.35032e-06
974.366	2.2025e-06
983.044	1.70618e-06
991.723	5.84864e-06
1000.4	1.03979e-05
1009.08	1.8703e-05
1017.76	1.52117e-05
1026.44	2.52308e-06
1035.11	2.68525e-06
1043.79	5.43481e-06
1052.47	1.65859e-05
1061.15	7.09027e-05
1069.83	0.000167248
1078.5	0.000307333
1087.18	0.000885685
1095.86	0.000671431
1104.54	0.000101403
1113.22	3.88092e-05
1121.9	1.27149e-05
1130.57	1.71013e-06
1139.25	4.28635e-07
1147.93	3.00524e-07
1156.61	2.67253e-07
1165.29	8.77801e-08
1173.96	2.7369e-08
1182.64	1.4039e-07
1191.32	3.78288e-07
1200	5.03164e-07
1208.68	5.71255e-07
1217.36	9.04999e-07
1226.03	1.53037e-06
1234.71	4.60153e-06
1243.39	9.11816e-06
1252.07	9.45504e-06
1260.75	2.25317e-06
1269.42	1.13269e-06
1278.1	5.42505e-07
1286.78	5.73834e-07
1295.46	6.77464e-07
1304.14	7.7123e-07
1312.82	8.40172e-07
1321.49	7.64145e-07
1330.17	3.90614e-07
1338.85	3.92471e-07
1347.53	3.19992e-07
1356.21	6.72669e-07
1364.88	5.26804e-06
1373.56	3.46672e-05
1382.24	2.38377e-05
1390.92	4.80391e-05
1399.6	1.71551e-05
1408.28	4.46504e-06
1416.95	1.27914e-05
1425.63	1.94419e-05
1434.31	1.63605e-05
1442.99	3.21542e-05
1451.67	2.54476e-05
1460.34	2.23438e-05
1469.02	1.78726e-05
1477.7	3.31143e-06
1486.38	5.59601e-07
1495.06	1.85764e-07
1503.74	6.20972e-08
1512.41	-1.94531e-08
1521.09	-1.43089e-07
1529.77	6.46201e-08
1538.45	-5.95799e-08
1547.13	5.52891e-08
1555.8	1.24213e-08
1564.48	1.25886e-08
1573.16	7.7376e-09
1581.84	7.80435e-08
1590.52	6.35214e-08
1599.2	4.05033e-08
1607.87	-1.37072e-08
1616.55	-2.80576e-07
1625.23	-7.43075e-08
1633.91	-2.63559e-08
1642.59	-2.31983e-08
1651.26	-1.63737e-08
1659.94	3.11487e-08
1668.62	2.73144e-08
1677.3	1.05598e-07
1685.98	1.80173e-07
1694.66	2.93321e-07
1703.33	2.92767e-07
1712.01	4.36547e-07
1720.69	5.92219e-07
1729.37	7.4479e-07
1738.05	5.55201e-07
1746.72	3.3662e-07
1755.4	2.08942e-07
1764.08	1.60498e-07
1772.76	1.10145e-07
1781.44	6.79819e-07
1790.12	1.39205e-06
1798.79	1.44258e-06
1807.47	4.81039e-07
1816.15	3.31156e-07
1824.83	2.10034e-07
1833.51	1.50583e-07
1842.18	3.94228e-08
1850.86	-4.65293e-08
1859.54	-4.15255e-08
1868.22	-4.79662e-08
1876.9	9.00355e-10
1885.58	1.51169e-08
1894.25	1.27401e-07
1902.93	2.95791e-07
1911.61	5.17128e-07
1920.29	3.06092e-07
1928.97	1.74151e-07
1937.64	9.53904e-08
1946.32	7.51951e-08
1955	5.23352e-08
1963.68	7.34381e-08
1972.36	6.12933e-08
1981.04	3.15488e-08
1989.71	-1.18501e-08
1998.39	-2.41186e-08
2007.07	-3.84279e-08
2015.75	-3.22218e-08
2024.43	8.1323e-09
2033.1	4.47104e-08
2041.78	3.28857e-09
2050.46	-1.06715e-08
2059.14	1.76979e-08
2067.82	2.83876e-08
2076.5	1.02273e-07
2085.17	1.34755e-07
2093.85	3.29752e-07
2102.53	1.14705e-06
2111.21	1.87299e-06
2119.89	2.02733e-06
2128.56	3.51551e-06
2137.24	5.66574e-06
2145.92	2.58997e-06
2154.6	1.01837e-06
2163.28	4.24138e-07
2171.96	-1.2323e-08
2180.63	9.06576e-08
2189.31	-7.26232e-08
2197.99	-1.48915e-07
2206.67	-1.78005e-07
2215.35	-1.16535e-07
2224.02	-1.06107e-07
2232.7	-5.57948e-08
2241.38	-2.23124e-08
2250.06	3.76694e-09
2258.74	-1.89075e-08
2267.42	-8.88169e-09
2276.09	-1.97933e-08
2284.77	-1.68157e-08
2293.45	-7.80854e-09
2302.13	1.60791e-08
2310.81	7.94841e-08
2319.48	2.76869e-07
2328.16	3.53885e-07
2336.84	2.44509e-07
2345.52	2.78374e-07
2354.2	6.26657e-07
2362.88	1.03061e-06
2371.55	4.38659e-07
2380.23	3.19581e-08
2388.91	7.7085e-09
2397.59	1.47658e-08
2406.27	6.00619e-08
2414.94	1.2693e-07
2423.62	4.38573e-07
2432.3	1.31024e-06
2440.98	3.15923e-06
2449.66	6.31706e-06
2458.34	5.2533e-06
2467.01	2.096e-06
2475.69	9.1186e-07
2484.37	3.46726e-07
2493.05	3.81014e-07
2501.73	4.22412e-07
2510.4	5.81122e-07
2519.08	5.76104e-07
2527.76	4.37429e-07
2536.44	4.54416e-07
2545.12	4.14525e-07
2553.8	2.93101e-07
2562.47	1.30262e-07
2571.15	6.12969e-09
2579.83	-2.45388e-08
2588.51	-3.01483e-08
2597.19	-1.31452e-08
2605.86	3.69691e-08
2614.54	-6.89363e-09
2623.22	-3.48283e-08
2631.9	-1.96896e-08
2640.58	1.33416e-08
2649.26	6.48456e-08
2657.93	1.42785e-07
2666.61	2.51943e-07
2675.29	1.65731e-07
2683.97	4.82572e-08
2692.65	-2.77928e-09
2701.32	-7.45585e-08
2710	1.92203e-08
2718.68	1.70977e-09
2727.36	-3.82169e-08
2736.04	-3.1185e-08
2744.72	-4.87884e-08
2753.39	-2.16104e-08
2762.07	2.86986e-08
2770.75	-1.21775e-08
2779.43	3.14597e-08
2788.11	-1.99006e-08
2796.78	2.42356e-07
2805.46	4.55331e-07
2814.14	6.3231e-07
2822.82	1.13229e-06
2831.5	1.05675e-06
2840.18	9.22473e-07
2848.85	1.0767e-06
2857.53	1.5595e-06
2866.21	2.43505e-06
2874.89	2.55243e-06
2883.57	2.17006e-06
2892.24	2.22988e-06
2900.92	1.72272e-06
2909.6	1.07188e-06
2918.28	4.32463e-07
2926.96	2.36923e-07
2935.63	4.31495e-06
2944.31	1.08501e-05
2952.99	5.68955e-06
2961.67	1.05556e-05
2970.35	1.47438e-06
2979.03	7.10266e-07
2987.7	9.37585e-07
2996.38	4.45633e-06
3005.06	4.27316e-05
3013.74	8.28996e-05
3022.42	3.96085e-05
3031.09	2.0626e-06
3039.77	1.24735e-07
3048.45	1.64781e-07
3057.13	1.10178e-07
3065.81	6.08659e-08
3074.49	2.65014e-09
3083.16	-2.06245e-08
3091.84	6.4902e-08
3100.52	1.38818e-08
3109.2	-4.83882e-08
3117.88	1.6401e-08
3126.55	-3.59706e-08
3135.23	-4.90921e-09
3143.91	-1.07552e-08
3152.59	6.97912e-08
3161.27	1.07222e-07
3169.95	2.32663e-07
3178.62	3.98425e-07
3187.3	4.53072e-07
3195.98	3.55313e-07
3204.66	9.70474e-08
3213.34	1.49095e-07
3222.01	7.52024e-08
3230.69	6.98821e-08
3239.37	3.92693e-07
3248.05	8.18052e-07
3256.73	8.39177e-07
3265.41	2.32095e-07
3274.08	7.66175e-08
3282.76	3.2367e-07
3291.44	8.65445e-07
3300.12	8.2071e-07
3308.8	3.30643e-07
3317.47	1.83181e-08
3326.15	-3.35332e-08
3334.83	1.18852e-07
3343.51	9.44817e-07
3352.19	2.09645e-06
3360.87	1.8847e-06
3369.54	9.15738e-07
3378.22	9.74094e-08
3386.9	-5.65842e-08
3395.58	-6.36797e-08
3404.26	-1.0451e-07
3412.93	-4.45503e-08
3421.61	-1.26088e-07
3430.29	-5.70407e-08
3438.97	-5.29827e-08
3447.65	-3.34405e-08
3456.33	1.35854e-08
3465	6.80996e-09
3473.68	9.47028e-08
3482.36	5.79265e-08
3491.04	3.95884e-08
3499.72	1.34951e-07
3508.39	5.99855e-08
3517.07	1.02122e-07
3525.75	3.0416e-07
3534.43	4.31812e-07
3543.11	3.89881e-07
3551.79	1.49601e-07
3560.46	7.43621e-08
3569.14	4.61364e-08
3577.82	-4.87702e-08
3586.5	-5.86195e-08
3595.18	-6.98239e-08
3603.85	-5.05982e-08
3612.53	-1.69705e-07
3621.21	-2.17504e-08
3629.89	-2.08297e-07
3638.57	-4.4192e-08
3647.25	-3.25456e-08
3655.92	-8.57157e-08
3664.6	-4.54598e-08
3673.28	6.02056e-09
3681.96	1.78616e-08
3690.64	-1.40783e-08
3699.31	-6.59242e-08
3707.99	-8.49226e-08
3716.67	-4.4463e-08
3725.35	2.83821e-08
3734.03	5.17277e-08
3742.71	5.44906e-08
3751.38	-5.94107e-08
3760.06	-1.44151e-07
3768.74	-8.93316e-08
3777.42	-1.35179e-07
3786.1	-1.02731e-07
3794.77	-1.00587e-07
3803.45	-1.78361e-08
3812.13	-8.7962e-09
3820.81	-1.07281e-07
3829.49	9.2682e-08
3838.17	-1.34235e-07
3846.84	-6.23373e-08
3855.52	-7.6683e-08
3864.2	-1.054e-07
3872.88	-6.7825e-08
3881.56	-6.26993e-08
3890.23	-7.66775e-08
3898.91	-9.3366e-08
3907.59	2.06136e-08
3916.27	9.80042e-08
3924.95	8.25835e-08
3933.63	1.81408e-07
3942.3	2.71649e-07
3950.98	4.29313e-07
3959.66	3.67098e-07
3968.34	3.89908e-07
