Infrared Spectrum: 1,1,1-Trichloroethane
Formula: C H3 C Cl3
CAS: 71-55-6
State: gas
Melting point: -30.41 C
Boiling point: 74.1 C
Class: IUPAC A
Instrument: IFS66V (Bruker)
Instrument parameters: KBr Beam Splitter; MCT Detector; Multipass cell
Sampling: 1 L/min Flow
Resolution: 0.1250
Temperature: 23 C
Pressure: 101.3 Pa
Origin: NIST, Analytical Chemistry Division, 301-975-3108
cm-1	(micromol/mol)-1m-1 (base 10)
575.05	2.95629e-06
583.608	1.14599e-06
592.165	8.38863e-07
600.723	-7.44314e-08
609.281	-4.2785e-07
617.838	2.51132e-07
626.396	4.28581e-08
634.954	-2.1424e-07
643.511	2.5076e-07
652.069	-1.34493e-07
660.626	7.37177e-07
669.184	3.81118e-06
677.742	1.3234e-05
686.299	3.33516e-05
694.857	3.51765e-05
703.415	8.31712e-05
711.972	0.000396427
720.53	0.00163801
729.088	0.00181927
737.645	0.000173259
746.203	3.42479e-05
754.761	1.82979e-05
763.318	1.68129e-05
771.876	6.88843e-06
780.434	4.71922e-06
788.991	4.08975e-06
797.549	9.0423e-06
806.106	9.05727e-06
814.664	5.14026e-06
823.222	4.29444e-06
831.779	3.48409e-06
840.337	2.37683e-06
848.895	1.96024e-06
857.452	4.24062e-06
866.01	6.27284e-06
874.568	3.68197e-06
883.125	8.88663e-07
891.683	3.50257e-07
900.241	-2.45558e-08
908.798	4.26544e-08
917.356	1.4481e-07
925.914	1.48474e-07
934.471	2.95226e-07
943.029	9.0782e-07
951.586	2.3276e-06
960.144	3.9461e-06
968.702	2.56238e-06
977.259	1.54013e-06
985.817	2.52653e-06
994.375	8.00601e-06
1002.93	1.32481e-05
1011.49	1.75409e-05
1020.05	7.86233e-06
1028.61	2.30096e-06
1037.16	3.047e-06
1045.72	6.83429e-06
1054.28	2.29423e-05
1062.84	9.00595e-05
1071.39	0.000213341
1079.95	0.000387937
1088.51	0.000879962
1097.07	0.000588307
1105.62	8.38027e-05
1114.18	3.62579e-05
1122.74	1.05716e-05
1131.3	1.47181e-06
1139.85	4.41299e-07
1148.41	2.89137e-07
1156.97	2.0561e-07
1165.53	1.18774e-07
1174.09	1.31765e-08
1182.64	1.21375e-07
1191.2	3.91849e-07
1199.76	5.04395e-07
1208.32	5.25356e-07
1216.87	9.01592e-07
1225.43	1.45111e-06
1233.99	4.1713e-06
1242.55	8.69965e-06
1251.1	9.7137e-06
1259.66	2.57151e-06
1268.22	1.24215e-06
1276.78	6.37888e-07
1285.33	4.61304e-07
1293.89	6.57936e-07
1302.45	7.1719e-07
1311.01	8.95022e-07
1319.57	7.11006e-07
1328.12	4.59714e-07
1336.68	4.09064e-07
1345.24	2.7683e-07
1353.8	6.19163e-07
1362.35	2.09861e-06
1370.91	2.17816e-05
1379.47	3.42211e-05
1388.03	2.47697e-05
1396.58	3.87152e-05
1405.14	3.91291e-06
1413.7	9.3818e-06
1422.26	1.40534e-05
1430.81	1.42924e-05
1439.37	2.39429e-05
1447.93	3.18352e-05
1456.49	5.35274e-05
1465.05	2.41054e-05
1473.6	7.97793e-06
1482.16	1.24072e-06
1490.72	2.80966e-07
1499.28	1.43151e-07
1507.83	7.04916e-08
1516.39	8.31442e-08
1524.95	6.55368e-08
1533.51	5.4805e-08
1542.06	-3.04489e-07
1550.62	6.76577e-08
1559.18	-8.03758e-08
1567.74	-1.53556e-08
1576.29	-3.29681e-07
1584.85	-2.23513e-08
1593.41	1.41522e-07
1601.97	2.39701e-08
1610.53	-7.93099e-08
1619.08	-1.63898e-07
1627.64	-3.64372e-08
1636.2	-2.90814e-08
1644.76	-6.93165e-08
1653.31	-7.82094e-07
1661.87	7.86332e-08
1670.43	1.0925e-07
1678.99	5.67003e-08
1687.54	1.6559e-07
1696.1	2.28969e-08
1704.66	2.69776e-07
1713.22	4.74157e-07
1721.77	7.47076e-07
1730.33	9.30342e-07
1738.89	5.79823e-07
1747.45	2.93524e-07
1756.01	2.02682e-07
1764.56	2.18147e-07
1773.12	2.33619e-07
1781.68	7.05054e-07
1790.24	1.37071e-06
1798.79	1.46902e-06
1807.35	4.72822e-07
1815.91	2.82061e-07
1824.47	1.99652e-07
1833.02	2.08415e-07
1841.58	4.49026e-08
1850.14	-3.5324e-09
1858.7	4.4055e-09
1867.25	-1.37403e-08
1875.81	-1.50354e-08
1884.37	-1.1503e-08
1892.93	6.14878e-08
1901.49	3.33454e-07
1910.04	5.57905e-07
1918.6	3.91765e-07
1927.16	1.39197e-07
1935.72	2.25459e-07
1944.27	9.8256e-08
1952.83	7.31945e-08
1961.39	7.83749e-08
1969.95	-1.95865e-08
1978.5	5.61364e-08
1987.06	-1.96228e-08
1995.62	-1.17686e-08
2004.18	2.07906e-08
2012.73	-4.84859e-08
2021.29	4.39167e-08
2029.85	-8.82555e-09
2038.41	5.85302e-08
2046.97	3.55787e-09
2055.52	-7.89061e-09
2064.08	-3.50839e-08
2072.64	5.8723e-08
2081.2	1.17832e-07
2089.75	1.79963e-07
2098.31	6.20786e-07
2106.87	1.69652e-06
2115.43	1.8775e-06
2123.98	2.70674e-06
2132.54	4.0658e-06
2141.1	2.90908e-06
2149.66	1.30226e-06
2158.21	6.94919e-07
2166.77	1.92358e-07
2175.33	5.41974e-08
2183.89	2.61601e-08
2192.45	-1.05677e-07
2201	-1.2793e-07
2209.56	-2.1393e-07
2218.12	-1.22481e-07
2226.68	-1.81884e-07
2235.23	-4.06935e-08
2243.79	-9.03181e-08
2252.35	5.1338e-08
2260.91	-1.80476e-08
2269.46	-6.27319e-08
2278.02	4.66015e-09
2286.58	4.09082e-08
2295.14	2.90923e-08
2303.69	1.49991e-08
2312.25	6.39907e-09
2320.81	2.11206e-07
2329.37	1.26206e-07
2337.93	3.37975e-07
2346.48	6.669e-08
2355.04	9.30284e-08
2363.6	1.36876e-07
2372.16	3.07039e-08
2380.71	1.30735e-07
2389.27	2.91032e-10
2397.83	7.56901e-08
2406.39	1.03295e-07
2414.94	1.88789e-07
2423.5	4.42249e-07
2432.06	1.23753e-06
2440.62	3.02882e-06
2449.17	5.72269e-06
2457.73	5.20752e-06
2466.29	2.23471e-06
2474.85	9.54116e-07
2483.41	3.16217e-07
2491.96	3.50519e-07
2500.52	4.06863e-07
2509.08	5.91057e-07
2517.64	5.53881e-07
2526.19	3.89521e-07
2534.75	4.77889e-07
2543.31	4.29236e-07
2551.87	3.24675e-07
2560.42	1.55113e-07
2568.98	1.06045e-08
2577.54	-4.34474e-08
2586.1	-2.95507e-08
2594.65	-1.69526e-09
2603.21	1.19687e-08
2611.77	5.37463e-08
2620.33	1.61559e-08
2628.89	-2.75244e-08
2637.44	-4.23779e-08
2646	1.44425e-09
2654.56	1.41456e-07
2663.12	1.80745e-07
2671.67	1.44814e-07
2680.23	1.63454e-07
2688.79	-1.2478e-09
2697.35	6.15496e-08
2705.9	-5.71078e-08
2714.46	2.27878e-08
2723.02	-3.13114e-08
2731.58	-4.24798e-08
2740.13	-5.71114e-08
2748.69	2.05738e-07
2757.25	-9.00126e-08
2765.81	2.83247e-08
2774.37	6.08402e-08
2782.92	-6.1244e-08
2791.48	5.19383e-08
2800.04	3.66893e-07
2808.6	5.4431e-07
2817.15	9.35482e-07
2825.71	1.0107e-06
2834.27	1.22809e-06
2842.83	1.04955e-06
2851.38	1.24398e-06
2859.94	1.82397e-06
2868.5	2.60088e-06
2877.06	2.44683e-06
2885.61	2.1526e-06
2894.17	2.37731e-06
2902.73	1.68438e-06
2911.29	9.38509e-07
2919.85	2.65188e-07
2928.4	3.51006e-07
2936.96	5.95396e-06
2945.52	9.10216e-06
2954.08	6.8125e-06
2962.63	9.49476e-06
2971.19	1.25161e-06
2979.75	6.13805e-07
2988.31	9.47848e-07
2996.86	5.02239e-06
3005.42	4.42508e-05
3013.98	7.99886e-05
3022.54	3.89014e-05
3031.09	2.0181e-06
3039.65	1.80109e-07
3048.21	1.13484e-07
3056.77	8.88193e-08
3065.33	1.20087e-07
3073.88	1.39914e-08
3082.44	-1.15627e-07
3091	-3.73358e-08
3099.56	-1.97538e-09
3108.11	8.8692e-09
3116.67	-1.04742e-07
3125.23	3.8649e-08
3133.79	-1.18232e-09
3142.34	6.94075e-08
3150.9	-2.24131e-08
3159.46	-1.7622e-08
3168.02	1.46229e-07
3176.57	2.54959e-07
3185.13	3.89732e-07
3193.69	3.98597e-07
3202.25	2.9821e-07
3210.81	6.18734e-08
3219.36	5.47249e-08
3227.92	-8.88775e-08
3236.48	1.84623e-07
3245.04	5.01714e-07
3253.59	7.44442e-07
3262.15	4.8403e-07
3270.71	-6.42453e-09
3279.27	5.69259e-08
3287.82	6.85828e-07
3296.38	1.03276e-06
3304.94	3.81681e-07
3313.5	7.97864e-08
3322.05	-9.25918e-08
3330.61	-5.29824e-08
3339.17	5.32945e-07
3347.73	1.41852e-06
3356.29	3.34992e-06
3364.84	1.50816e-06
3373.4	4.51587e-07
3381.96	-1.32591e-07
3390.52	-1.35952e-07
3399.07	-1.25533e-07
3407.63	-2.12075e-07
3416.19	-2.09543e-07
3424.75	-5.18583e-08
3433.3	2.43776e-08
3441.86	-1.65346e-07
3450.42	-2.44147e-07
3458.98	5.33753e-08
3467.53	-1.13161e-07
3476.09	1.82623e-09
3484.65	-2.59382e-09
3493.21	7.49407e-09
3501.77	2.94961e-08
3510.32	1.28556e-07
3518.88	2.59157e-07
3527.44	3.12194e-07
3536	4.19894e-07
3544.55	3.59224e-07
3553.11	2.16404e-07
3561.67	8.75388e-08
3570.23	6.29975e-08
3578.78	1.20742e-08
3587.34	-1.1945e-07
3595.9	-6.92256e-08
3604.46	-1.38004e-07
3613.01	-1.07311e-07
3621.57	-1.24416e-08
3630.13	-1.85431e-07
3638.69	1.22233e-08
3647.25	-1.3955e-08
3655.8	-1.80112e-08
3664.36	-1.08468e-07
3672.92	-1.95319e-08
3681.48	-4.4215e-08
3690.03	-8.93978e-08
3698.59	4.53828e-08
3707.15	-3.10677e-09
3715.71	-1.05881e-07
3724.26	5.6904e-08
3732.82	-3.04383e-08
3741.38	-5.0454e-08
3749.94	-4.29054e-08
3758.49	-1.04179e-07
3767.05	-1.7582e-08
3775.61	7.84368e-08
3784.17	-1.3079e-07
3792.73	-2.00434e-07
3801.28	-3.53211e-07
3809.84	-8.01902e-08
3818.4	-4.9148e-08
3826.96	6.60352e-08
3835.51	1.70072e-08
3844.07	-6.05419e-08
3852.63	-3.88455e-08
3861.19	1.5643e-10
3869.74	-9.3745e-08
3878.3	-6.91456e-08
3886.86	-8.38827e-08
3895.42	1.00944e-07
3903.97	-1.0893e-07
3912.53	1.46069e-07
3921.09	1.01767e-07
3929.65	-3.8067e-08
3938.21	1.13521e-07
3946.76	4.16008e-07
3955.32	4.62923e-07
3963.88	3.46554e-07
3972.44	4.17154e-07
