Infrared Spectrum: 1,1,1-Trichloroethane
Formula: C H3 C Cl3
CAS: 71-55-6
State: gas
Melting point: -30.41 C
Boiling point: 74.1 C
Class: IUPAC A
Instrument: IFS66V (Bruker)
Instrument parameters: KBr Beam Splitter; MCT Detector; Multipass cell
Sampling: 1 L/min Flow
Resolution: 1.9290
Temperature: 23 C
Pressure: 101.3 Pa
Origin: NIST, Analytical Chemistry Division, 301-975-3108
cm-1	(micromol/mol)-1m-1 (base 10)
575.652	3.4649e-06
584.33	1.33315e-06
593.008	7.52684e-07
601.687	-3.50284e-08
610.365	-8.68397e-08
619.043	7.6763e-08
627.721	9.36406e-08
636.399	-2.68342e-08
645.077	-5.06382e-08
653.756	1.69189e-07
662.434	1.11661e-06
671.112	5.07332e-06
679.79	1.68115e-05
688.468	3.71075e-05
697.147	3.98631e-05
705.825	0.000123037
714.503	0.00065747
723.181	0.00187298
731.859	0.000943424
740.537	8.64834e-05
749.216	3.17687e-05
757.894	1.41955e-05
766.572	1.09852e-05
775.25	6.357e-06
783.928	3.95817e-06
792.607	5.78156e-06
801.285	7.58927e-06
809.963	7.32849e-06
818.641	5.72152e-06
827.319	3.83858e-06
835.997	2.73154e-06
844.676	2.11084e-06
853.354	2.78749e-06
862.032	5.95984e-06
870.71	6.54132e-06
879.388	1.84984e-06
888.066	3.63634e-07
896.745	8.1454e-08
905.423	-3.14124e-09
914.101	7.77052e-08
922.779	2.07526e-07
931.457	2.76758e-07
940.136	5.90466e-07
948.814	1.84731e-06
957.492	3.33529e-06
966.17	3.22071e-06
974.848	2.06755e-06
983.526	1.83354e-06
992.205	6.2373e-06
1000.88	1.09398e-05
1009.56	1.8624e-05
1018.24	1.34183e-05
1026.92	2.4487e-06
1035.6	2.81043e-06
1044.27	5.82052e-06
1052.95	1.82303e-05
1061.63	7.64891e-05
1070.31	0.000181017
1078.99	0.000334822
1087.66	0.000878434
1096.34	0.000629909
1105.02	9.46595e-05
1113.7	3.75147e-05
1122.38	1.16044e-05
1131.06	1.54665e-06
1139.73	4.138e-07
1148.41	2.99498e-07
1157.09	2.52209e-07
1165.77	8.19233e-08
1174.45	3.81332e-08
1183.12	1.33085e-07
1191.8	3.60775e-07
1200.48	4.84464e-07
1209.16	5.54943e-07
1217.84	9.15352e-07
1226.52	1.64726e-06
1235.19	4.852e-06
1243.87	9.24757e-06
1252.55	8.89448e-06
1261.23	2.09472e-06
1269.91	1.11078e-06
1278.58	5.00305e-07
1287.26	5.40723e-07
1295.94	6.56536e-07
1304.62	7.22071e-07
1313.3	7.40585e-07
1321.98	7.12778e-07
1330.65	3.43476e-07
1339.33	3.47366e-07
1348.01	2.13119e-07
1356.69	6.17142e-07
1365.37	5.82405e-06
1374.04	3.67384e-05
1382.72	6.35781e-05
1391.4	5.03088e-05
1400.08	1.5206e-05
1408.76	4.89515e-06
1417.44	1.3141e-05
1426.11	2.08656e-05
1434.79	1.6938e-05
1443.47	3.28517e-05
1452.15	2.77226e-05
1460.83	2.27275e-05
1469.5	1.67815e-05
1478.18	3.04199e-06
1486.86	5.37223e-07
1495.54	1.65389e-07
1504.22	3.36624e-08
1512.9	2.89096e-08
1521.57	-5.36976e-08
1530.25	7.65575e-08
1538.93	-9.79569e-08
1547.61	4.80681e-08
1556.29	-4.41265e-09
1564.96	4.77807e-08
1573.64	1.39983e-08
1582.32	9.39735e-08
1591	8.45625e-08
1599.68	5.11729e-08
1608.36	-6.75721e-09
1617.03	-1.53077e-07
1625.71	-4.13927e-08
1634.39	-7.8862e-08
1643.07	-2.28581e-08
1651.75	-1.35754e-07
1660.42	3.80023e-08
1669.1	2.59812e-08
1677.78	1.00816e-07
1686.46	1.46816e-07
1695.14	1.9428e-07
1703.82	3.01937e-07
1712.49	4.35854e-07
1721.17	6.30243e-07
1729.85	7.925e-07
1738.53	5.30697e-07
1747.21	3.36666e-07
1755.88	1.92356e-07
1764.56	1.7225e-07
1773.24	2.19805e-07
1781.92	7.2187e-07
1790.6	1.38533e-06
1799.28	1.38557e-06
1807.95	4.62121e-07
1816.63	3.37575e-07
1825.31	2.24678e-07
1833.99	1.59618e-07
1842.67	2.93807e-08
1851.34	-2.54064e-08
1860.02	-3.85898e-08
1868.7	-5.67169e-08
1877.38	-1.75306e-08
1886.06	1.58535e-08
1894.74	1.34097e-07
1903.41	3.11918e-07
1912.09	3.97619e-07
1920.77	3.02856e-07
1929.45	1.47151e-07
1938.13	8.91279e-08
1946.8	6.90454e-08
1955.48	6.30722e-08
1964.16	6.63517e-08
1972.84	6.99494e-08
1981.52	3.46955e-08
1990.2	-1.20993e-08
1998.87	-2.78492e-08
2007.55	-3.71674e-08
2016.23	-3.81933e-08
2024.91	3.61597e-09
2033.59	3.38916e-08
2042.26	7.34836e-09
2050.94	-1.0968e-09
2059.62	1.07824e-08
2068.3	1.90384e-08
2076.98	7.95114e-08
2085.66	1.19487e-07
2094.33	3.41895e-07
2103.01	1.19932e-06
2111.69	1.95086e-06
2120.37	2.1678e-06
2129.05	3.5987e-06
2137.72	5.4065e-06
2146.4	2.32905e-06
2155.08	1.03893e-06
2163.76	3.73384e-07
2172.44	-2.62103e-08
2181.12	5.42414e-08
2189.79	-9.42609e-08
2198.47	-1.76897e-07
2207.15	-1.46818e-07
2215.83	-1.02781e-07
2224.51	-9.71402e-08
2233.18	-5.5551e-08
2241.86	-3.21309e-08
2250.54	-4.38719e-09
2259.22	-1.68175e-08
2267.9	-1.27032e-08
2276.58	-9.66018e-09
2285.25	-2.43514e-08
2293.93	-6.9482e-10
2302.61	3.12123e-09
2311.29	6.57933e-08
2319.97	2.18064e-07
2328.64	4.42178e-07
2337.32	5.78203e-07
2346	2.90866e-07
2354.68	5.22524e-07
2363.36	7.72605e-07
2372.04	3.40871e-07
2380.71	3.74621e-08
2389.39	3.89426e-09
2398.07	2.49207e-08
2406.75	5.01907e-08
2415.43	1.34777e-07
2424.1	4.67157e-07
2432.78	1.3767e-06
2441.46	3.3544e-06
2450.14	7.27334e-06
2458.82	5.17318e-06
2467.5	2.03941e-06
2476.17	8.77405e-07
2484.85	3.51381e-07
2493.53	3.53423e-07
2502.21	4.30914e-07
2510.89	5.98611e-07
2519.56	5.70964e-07
2528.24	4.2685e-07
2536.92	4.66466e-07
2545.6	4.13569e-07
2554.28	2.74781e-07
2562.96	1.18545e-07
2571.63	6.80269e-10
2580.31	-1.10225e-08
2588.99	-3.05884e-08
2597.67	-2.46279e-08
2606.35	4.00285e-08
2615.02	9.03811e-09
2623.7	-2.26053e-08
2632.38	-1.21048e-08
2641.06	8.85441e-09
2649.74	6.14297e-08
2658.42	1.5756e-07
2667.09	2.67338e-07
2675.77	1.77623e-07
2684.45	4.9856e-08
2693.13	-4.60727e-09
2701.81	-4.82918e-08
2710.48	1.65647e-08
2719.16	-4.92194e-09
2727.84	-4.41793e-08
2736.52	-3.73093e-08
2745.2	-7.38564e-08
2753.88	-3.3184e-08
2762.55	4.72932e-08
2771.23	2.50626e-08
2779.91	2.22324e-08
2788.59	1.47949e-08
2797.27	2.57154e-07
2805.94	4.97787e-07
2814.62	6.76573e-07
2823.3	1.10912e-06
2831.98	1.06908e-06
2840.66	9.58504e-07
2849.34	1.14598e-06
2858.01	1.59638e-06
2866.69	2.46833e-06
2875.37	2.49787e-06
2884.05	2.23546e-06
2892.73	2.22775e-06
2901.4	1.7104e-06
2910.08	1.02429e-06
2918.76	3.89627e-07
2927.44	3.20052e-07
2936.12	4.92214e-06
2944.8	1.00903e-05
2953.47	6.68268e-06
2962.15	9.88164e-06
2970.83	1.35428e-06
2979.51	6.63142e-07
2988.19	9.72369e-07
2996.86	5.31322e-06
3005.54	4.36222e-05
3014.22	7.0315e-05
3022.9	3.61204e-05
3031.58	1.776e-06
3040.26	1.20822e-07
3048.93	1.54601e-07
3057.61	6.38852e-08
3066.29	3.34969e-08
3074.97	4.11726e-08
3083.65	-5.63313e-09
3092.32	4.04632e-08
3101	-1.39601e-08
3109.68	-2.54901e-08
3118.36	-1.48386e-08
3127.04	-1.98005e-08
3135.72	-1.15209e-08
3144.39	-1.61918e-08
3153.07	6.65335e-08
3161.75	1.15442e-07
3170.43	2.05883e-07
3179.11	3.84339e-07
3187.78	5.07579e-07
3196.46	3.26272e-07
3205.14	1.19576e-07
3213.82	1.35241e-07
3222.5	6.07585e-08
3231.18	6.5746e-08
3239.85	4.24582e-07
3248.53	8.50814e-07
3257.21	7.67685e-07
3265.89	2.19818e-07
3274.57	8.54719e-08
3283.24	3.72533e-07
3291.92	8.52076e-07
3300.6	8.49164e-07
3309.28	3.50302e-07
3317.96	9.30731e-09
3326.64	-2.1001e-08
3335.31	1.29207e-07
3343.99	1.06298e-06
3352.67	2.24494e-06
3361.35	1.81797e-06
3370.03	8.64821e-07
3378.7	9.97521e-08
3387.38	-5.50999e-08
3396.06	-6.90382e-08
3404.74	-9.23183e-08
3413.42	-7.11281e-08
3422.1	-9.93865e-08
3430.77	-8.04336e-08
3439.45	-9.07959e-08
3448.13	-5.11238e-08
3456.81	-2.86222e-08
3465.49	1.3047e-08
3474.16	1.12419e-07
3482.84	5.16968e-08
3491.52	4.49905e-08
3500.2	9.61634e-08
3508.88	2.69452e-08
3517.56	9.76313e-08
3526.23	2.76402e-07
3534.91	4.51196e-07
3543.59	4.33618e-07
3552.27	1.65118e-07
3560.95	4.46667e-08
3569.62	2.2016e-08
3578.3	-2.99336e-08
3586.98	-6.5926e-08
3595.66	-3.7633e-08
3604.34	-5.65441e-08
3613.02	-1.14747e-07
3621.69	-3.04939e-08
3630.37	-1.08576e-07
3639.05	-5.1664e-08
3647.73	-6.8116e-08
3656.41	-1.08978e-07
3665.08	-3.03265e-08
3673.76	-1.24849e-08
3682.44	-8.11957e-09
3691.12	-7.02987e-08
3699.8	-5.05563e-08
3708.48	-8.21834e-08
3717.15	-5.41523e-08
3725.83	-8.09774e-09
3734.51	2.59539e-08
3743.19	-2.99154e-08
3751.87	-1.44319e-07
3760.54	-8.40241e-08
3769.22	-1.08743e-07
3777.9	-1.25217e-07
3786.58	-7.27214e-08
3795.26	-8.16213e-08
3803.94	-3.57578e-08
3812.61	-5.87323e-09
3821.29	-7.42839e-08
3829.97	7.60609e-08
3838.65	-6.49147e-08
3847.33	-8.68143e-08
3856	-9.11287e-08
3864.68	-1.29684e-07
3873.36	-7.64356e-08
3882.04	-7.2023e-08
3890.72	-6.56641e-08
3899.4	-7.62974e-08
3908.07	7.58481e-09
3916.75	8.4366e-08
3925.43	1.1172e-07
3934.11	1.87187e-07
3942.79	2.81093e-07
3951.46	4.22774e-07
3960.14	3.82058e-07
3968.82	3.5346e-07
