Infrared Spectrum: 1,1,1-Trichloroethane
Formula: C H3 C Cl3
CAS: 71-55-6
State: gas
Melting point: -30.41 C
Boiling point: 74.1 C
Class: IUPAC A
Instrument: IFS66V (Bruker)
Instrument parameters: KBr Beam Splitter; MCT Detector; Multipass cell
Sampling: 1 L/min Flow
Resolution: 0.1250
Temperature: 23 C
Pressure: 101.3 Pa
Origin: NIST, Analytical Chemistry Division, 301-975-3108
cm-1	(micromol/mol)-1m-1 (base 10)
575.05	2.81091e-06
583.608	1.01461e-06
592.165	7.90978e-07
600.723	-6.94693e-08
609.281	-5.59727e-07
617.838	2.74236e-07
626.396	3.95294e-08
634.954	-3.46856e-07
643.511	2.0951e-07
652.069	-1.59598e-07
660.626	7.38741e-07
669.184	3.79781e-06
677.742	1.32726e-05
686.299	3.34003e-05
694.857	3.51481e-05
703.415	8.3225e-05
711.972	0.000396193
720.53	0.00163808
729.088	0.00181961
737.645	0.000173345
746.203	3.41621e-05
754.761	1.82645e-05
763.318	1.6774e-05
771.876	6.94758e-06
780.434	4.75256e-06
788.991	4.04078e-06
797.549	9.03932e-06
806.106	9.09818e-06
814.664	5.16639e-06
823.222	4.27102e-06
831.779	3.55035e-06
840.337	2.39472e-06
848.895	1.95186e-06
857.452	4.24825e-06
866.01	6.27327e-06
874.568	3.6838e-06
883.125	9.34467e-07
891.683	3.69316e-07
900.241	-2.22458e-08
908.798	5.33316e-08
917.356	1.48037e-07
925.914	1.23489e-07
934.471	2.9587e-07
943.029	9.13142e-07
951.586	2.33317e-06
960.144	3.9619e-06
968.702	2.55629e-06
977.259	1.52505e-06
985.817	2.5245e-06
994.375	7.9974e-06
1002.93	1.32452e-05
1011.49	1.75397e-05
1020.05	7.84246e-06
1028.61	2.31634e-06
1037.16	3.03746e-06
1045.72	6.84707e-06
1054.28	2.29661e-05
1062.84	9.0071e-05
1071.39	0.000213292
1079.95	0.000387935
1088.51	0.000879896
1097.07	0.000588351
1105.62	8.38135e-05
1114.18	3.62558e-05
1122.74	1.05384e-05
1131.3	1.48975e-06
1139.85	4.46301e-07
1148.41	2.81315e-07
1156.97	1.94708e-07
1165.53	1.14627e-07
1174.09	1.03935e-08
1182.64	1.21775e-07
1191.2	3.90794e-07
1199.76	4.95871e-07
1208.32	5.24505e-07
1216.87	9.03327e-07
1225.43	1.45686e-06
1233.99	4.17309e-06
1242.55	8.68381e-06
1251.1	9.70739e-06
1259.66	2.5757e-06
1268.22	1.24079e-06
1276.78	6.40616e-07
1285.33	4.48575e-07
1293.89	6.54105e-07
1302.45	7.19045e-07
1311.01	8.95887e-07
1319.57	7.14836e-07
1328.12	4.60391e-07
1336.68	4.14029e-07
1345.24	2.73654e-07
1353.8	7.01071e-07
1362.35	2.11128e-06
1370.91	2.17595e-05
1379.47	3.42543e-05
1388.03	2.47895e-05
1396.58	3.87254e-05
1405.14	3.90856e-06
1413.7	9.37654e-06
1422.26	1.40376e-05
1430.81	1.43123e-05
1439.37	2.39556e-05
1447.93	3.18635e-05
1456.49	5.35119e-05
1465.05	2.41021e-05
1473.6	7.98814e-06
1482.16	1.23643e-06
1490.72	2.84436e-07
1499.28	1.52406e-07
1507.83	9.14641e-08
1516.39	7.76583e-08
1524.95	7.03279e-08
1533.51	4.21196e-08
1542.06	-2.93076e-07
1550.62	7.81348e-08
1559.18	-8.30824e-08
1567.74	-1.95865e-08
1576.29	-3.10968e-07
1584.85	-2.19875e-08
1593.41	1.61741e-07
1601.97	2.70478e-08
1610.53	-1.01719e-07
1619.08	-1.85668e-07
1627.64	-5.53579e-08
1636.2	-1.59886e-08
1644.76	-6.1466e-08
1653.31	-8.07312e-07
1661.87	9.43453e-08
1670.43	1.1323e-07
1678.99	5.17164e-08
1687.54	1.57827e-07
1696.1	4.54519e-08
1704.66	2.77754e-07
1713.22	4.6643e-07
1721.77	7.69918e-07
1730.33	9.28301e-07
1738.89	5.89998e-07
1747.45	2.99989e-07
1756.01	2.00783e-07
1764.56	2.23647e-07
1773.12	2.36642e-07
1781.68	6.92707e-07
1790.24	1.37568e-06
1798.79	1.46987e-06
1807.35	4.58725e-07
1815.91	2.77524e-07
1824.47	2.06291e-07
1833.02	2.09347e-07
1841.58	4.32437e-08
1850.14	-9.62225e-09
1858.7	1.12811e-08
1867.25	-1.39222e-08
1875.81	-1.27727e-08
1884.37	-1.68071e-08
1892.93	4.51281e-08
1901.49	3.33461e-07
1910.04	5.85913e-07
1918.6	4.07034e-07
1927.16	1.44323e-07
1935.72	2.28897e-07
1944.27	9.12203e-08
1952.83	6.2139e-08
1961.39	7.7982e-08
1969.95	-2.04595e-08
1978.5	5.86466e-08
1987.06	-2.30534e-08
1995.62	-1.9521e-08
2004.18	2.26095e-08
2012.73	-4.101e-08
2021.29	5.99781e-08
2029.85	-8.2071e-09
2038.41	5.46704e-08
2046.97	-2.87758e-09
2055.52	1.06954e-09
2064.08	-3.36542e-08
2072.64	7.20559e-08
2081.2	1.26297e-07
2089.75	1.58427e-07
2098.31	6.17737e-07
2106.87	1.69872e-06
2115.43	1.89097e-06
2123.98	2.71092e-06
2132.54	4.06985e-06
2141.1	2.89901e-06
2149.66	1.31303e-06
2158.21	7.07957e-07
2166.77	2.0186e-07
2175.33	4.26689e-08
2183.89	1.08628e-08
2192.45	-1.15081e-07
2201	-1.18432e-07
2209.56	-2.16539e-07
2218.12	-1.30051e-07
2226.68	-1.95421e-07
2235.23	-6.44454e-08
2243.79	-1.0121e-07
2252.35	5.55689e-08
2260.91	-1.5341e-08
2269.46	-7.62868e-08
2278.02	9.96421e-09
2286.58	5.96252e-08
2295.14	4.46807e-08
2303.69	1.68071e-08
2312.25	2.49451e-08
2320.81	2.12253e-07
2329.37	1.26686e-07
2337.93	3.28237e-07
2346.48	6.51475e-08
2355.04	8.82736e-08
2363.6	1.41991e-07
2372.16	3.44946e-08
2380.71	1.44756e-07
2389.27	1.36494e-08
2397.83	7.19831e-08
2406.39	1.06314e-07
2414.94	1.94471e-07
2423.5	4.44082e-07
2432.06	1.24418e-06
2440.62	3.01424e-06
2449.17	5.72121e-06
2457.73	5.19212e-06
2466.29	2.23745e-06
2474.85	9.4839e-07
2483.41	3.22791e-07
2491.96	3.52527e-07
2500.52	4.02515e-07
2509.08	5.82071e-07
2517.64	5.41207e-07
2526.19	3.91322e-07
2534.75	4.90232e-07
2543.31	4.37239e-07
2551.87	3.17876e-07
2560.42	1.59693e-07
2568.98	8.3417e-09
2577.54	-5.0032e-08
2586.1	-2.3097e-08
2594.65	-7.03206e-09
2603.21	4.06353e-09
2611.77	5.94942e-08
2620.33	1.38968e-08
2628.89	-3.90347e-08
2637.44	-2.83611e-08
2646	-5.09306e-09
2654.56	1.48248e-07
2663.12	1.71076e-07
2671.67	1.44912e-07
2680.23	1.78537e-07
2688.79	-1.72655e-08
2697.35	6.52567e-08
2705.9	-6.0993e-08
2714.46	3.25228e-08
2723.02	-1.5763e-08
2731.58	-4.8646e-08
2740.13	-5.594e-08
2748.69	2.06349e-07
2757.25	-1.02691e-07
2765.81	2.52725e-08
2774.37	6.26046e-08
2782.92	-6.65263e-08
2791.48	4.84496e-08
2800.04	3.7195e-07
2808.6	5.43066e-07
2817.15	9.73939e-07
2825.71	9.90316e-07
2834.27	1.21984e-06
2842.83	1.03141e-06
2851.38	1.24909e-06
2859.94	1.8142e-06
2868.5	2.5743e-06
2877.06	2.44996e-06
2885.61	2.14759e-06
2894.17	2.37794e-06
2902.73	1.68794e-06
2911.29	9.45978e-07
2919.85	2.53402e-07
2928.4	3.52898e-07
2936.96	5.97248e-06
2945.52	9.11907e-06
2954.08	6.79368e-06
2962.63	9.51203e-06
2971.19	1.25654e-06
2979.75	5.94e-07
2988.31	9.64695e-07
2996.86	5.00556e-06
3005.42	4.42912e-05
3013.98	8.0032e-05
3022.54	3.89097e-05
3031.09	2.01992e-06
3039.65	1.82102e-07
3048.21	1.04881e-07
3056.77	7.76692e-08
3065.33	1.29593e-07
3073.88	1.89789e-08
3082.44	-1.16504e-07
3091	-5.81446e-08
3099.56	3.55459e-08
3108.11	2.63966e-08
3116.67	-1.24904e-07
3125.23	4.60449e-08
3133.79	2.11326e-08
3142.34	6.31612e-08
3150.9	-1.89935e-08
3159.46	-1.80294e-08
3168.02	1.56855e-07
3176.57	2.46992e-07
3185.13	4.16139e-07
3193.69	3.96782e-07
3202.25	3.12943e-07
3210.81	6.26701e-08
3219.36	5.60855e-08
3227.92	-9.15841e-08
3236.48	1.56324e-07
3245.04	4.75892e-07
3253.59	7.33106e-07
3262.15	5.04515e-07
3270.71	-5.74788e-09
3279.27	2.47123e-08
3287.82	6.87694e-07
3296.38	1.04981e-06
3304.94	3.93504e-07
3313.5	8.54106e-08
3322.05	-7.67269e-08
3330.61	-8.01284e-08
3339.17	5.34226e-07
3347.73	1.44225e-06
3356.29	3.37251e-06
3364.84	1.48686e-06
3373.4	4.78809e-07
3381.96	-1.17784e-07
3390.52	-1.60846e-07
3399.07	-1.00322e-07
3407.63	-2.89111e-07
3416.19	-2.56519e-07
3424.75	-5.40556e-08
3433.3	3.40107e-08
3441.86	-1.66347e-07
3450.42	-2.74734e-07
3458.98	6.30739e-08
3467.53	-8.11033e-08
3476.09	2.47123e-08
3484.65	2.16164e-08
3493.21	5.09306e-11
3501.77	3.28357e-08
3510.32	1.3442e-07
3518.88	2.9208e-07
3527.44	3.17745e-07
3536	4.1296e-07
3544.55	3.61589e-07
3553.11	2.25426e-07
3561.67	9.77067e-08
3570.23	6.08984e-08
3578.78	2.00703e-08
3587.34	-1.24791e-07
3595.9	-4.68161e-08
3604.46	-1.30328e-07
3613.01	-7.93317e-08
3621.57	-1.17832e-08
3630.13	-2.04337e-07
3638.69	2.43412e-08
3647.25	-8.85101e-09
3655.8	-2.7779e-08
3664.36	-1.0758e-07
3672.92	-1.38822e-08
3681.48	-3.59352e-08
3690.03	-9.5644e-08
3698.59	3.68155e-08
3707.15	-7.85786e-09
3715.71	-1.20691e-07
3724.26	5.86575e-08
3732.82	-4.34001e-08
3741.38	-7.71162e-08
3749.94	-3.23046e-08
3758.49	-8.64802e-08
3767.05	-3.15806e-08
3775.61	8.80008e-08
3784.17	-1.26322e-07
3792.73	-2.3367e-07
3801.28	-3.29295e-07
3809.84	-9.68627e-08
3818.4	-4.65651e-08
3826.96	8.47231e-08
3835.51	1.21688e-08
3844.07	-4.75364e-08
3852.63	-4.75874e-08
3861.19	8.29805e-09
3869.74	-9.24281e-08
3878.3	-5.41392e-08
3886.86	-9.89618e-08
3895.42	1.18585e-07
3903.97	-1.12244e-07
3912.53	1.50798e-07
3921.09	8.8943e-08
3929.65	-6.94402e-08
3938.21	1.14048e-07
3946.76	4.10755e-07
3955.32	4.71861e-07
3963.88	3.48216e-07
3972.44	3.96942e-07
