Infrared Spectrum: 1,1,1-Trichloroethane
Formula: C H3 C Cl3
CAS: 71-55-6
State: gas
Melting point: -30.41 C
Boiling point: 74.1 C
Class: IUPAC A
Instrument: IFS66V (Bruker)
Instrument parameters: KBr Beam Splitter; MCT Detector; Multipass cell
Sampling: 1 L/min Flow
Resolution: 0.1250
Temperature: 23 C
Pressure: 101.3 Pa
Origin: NIST, Analytical Chemistry Division, 301-975-3108
cm-1	(micromol/mol)-1m-1 (base 10)
575.05	2.86669e-06
583.608	1.00049e-06
592.165	8.01024e-07
600.723	-4.73514e-08
609.281	-4.96296e-07
617.838	2.56389e-07
626.396	6.39143e-08
634.954	-3.26352e-07
643.511	2.16733e-07
652.069	-1.08072e-07
660.626	8.0948e-07
669.184	3.88875e-06
677.742	1.33506e-05
686.299	3.35028e-05
694.857	3.54574e-05
703.415	8.38252e-05
711.972	0.000397338
720.53	0.00163459
729.088	0.00181189
737.645	0.000174842
746.203	3.47519e-05
754.761	1.85007e-05
763.318	1.67639e-05
771.876	7.0467e-06
780.434	4.822e-06
788.991	4.12386e-06
797.549	9.02689e-06
806.106	9.12068e-06
814.664	5.1966e-06
823.222	4.30945e-06
831.779	3.56877e-06
840.337	2.41637e-06
848.895	1.97572e-06
857.452	4.26175e-06
866.01	6.28745e-06
874.568	3.68606e-06
883.125	9.47109e-07
891.683	3.70794e-07
900.241	-6.99185e-09
908.798	6.37688e-08
917.356	1.56251e-07
925.914	1.41736e-07
934.471	3.18326e-07
943.029	9.29221e-07
951.586	2.34358e-06
960.144	3.965e-06
968.702	2.57677e-06
977.259	1.54596e-06
985.817	2.54982e-06
994.375	8.02235e-06
1002.93	1.32496e-05
1011.49	1.75505e-05
1020.05	7.88758e-06
1028.61	2.37491e-06
1037.16	3.10723e-06
1045.72	6.9427e-06
1054.28	2.31271e-05
1062.84	9.01884e-05
1071.39	0.000213093
1079.95	0.000388059
1088.51	0.000877734
1097.07	0.000586789
1105.62	8.43259e-05
1114.18	3.64205e-05
1122.74	1.06611e-05
1131.3	1.57074e-06
1139.85	4.88427e-07
1148.41	3.17873e-07
1156.97	2.30793e-07
1165.53	1.25628e-07
1174.09	2.96353e-08
1182.64	1.35433e-07
1191.2	3.94745e-07
1199.76	5.03113e-07
1208.32	5.42973e-07
1216.87	9.10783e-07
1225.43	1.46646e-06
1233.99	4.19009e-06
1242.55	8.68044e-06
1251.1	9.68771e-06
1259.66	2.60653e-06
1268.22	1.25318e-06
1276.78	6.4832e-07
1285.33	4.65688e-07
1293.89	6.56064e-07
1302.45	7.22483e-07
1311.01	8.92714e-07
1319.57	7.16356e-07
1328.12	4.66355e-07
1336.68	4.21634e-07
1345.24	2.8693e-07
1353.8	6.804e-07
1362.35	2.14492e-06
1370.91	2.17891e-05
1379.47	3.43304e-05
1388.03	2.51999e-05
1396.58	3.8678e-05
1405.14	3.97305e-06
1413.7	9.39755e-06
1422.26	1.40613e-05
1430.81	1.43617e-05
1439.37	2.39557e-05
1447.93	3.18515e-05
1456.49	5.33168e-05
1465.05	2.40778e-05
1473.6	8.02501e-06
1482.16	1.25338e-06
1490.72	3.01943e-07
1499.28	1.59467e-07
1507.83	8.89533e-08
1516.39	7.31125e-08
1524.95	7.02496e-08
1533.51	3.87026e-08
1542.06	-2.67013e-07
1550.62	7.48114e-08
1559.18	-7.83982e-08
1567.74	-1.5015e-08
1576.29	-2.90862e-07
1584.85	-6.03693e-09
1593.41	1.60263e-07
1601.97	3.05011e-08
1610.53	-9.91119e-08
1619.08	-1.75789e-07
1627.64	-5.77428e-08
1636.2	-2.00643e-08
1644.76	-5.33884e-08
1653.31	-7.52985e-07
1661.87	9.68491e-08
1670.43	1.06116e-07
1678.99	5.69116e-08
1687.54	1.60061e-07
1696.1	4.28806e-08
1704.66	2.8201e-07
1713.22	4.64134e-07
1721.77	7.6022e-07
1730.33	9.18306e-07
1738.89	5.84915e-07
1747.45	3.03182e-07
1756.01	2.02449e-07
1764.56	2.20643e-07
1773.12	2.3333e-07
1781.68	6.89427e-07
1790.24	1.3785e-06
1798.79	1.46339e-06
1807.35	4.62743e-07
1815.91	2.84545e-07
1824.47	2.11731e-07
1833.02	2.05616e-07
1841.58	4.27423e-08
1850.14	-1.3629e-08
1858.7	1.06042e-08
1867.25	-1.60809e-08
1875.81	-1.36017e-08
1884.37	-1.6452e-08
1892.93	4.80663e-08
1901.49	3.35234e-07
1910.04	5.87608e-07
1918.6	4.06046e-07
1927.16	1.49957e-07
1935.72	2.2146e-07
1944.27	8.75236e-08
1952.83	6.18972e-08
1961.39	7.6452e-08
1969.95	-1.39546e-08
1978.5	5.63204e-08
1987.06	-1.99279e-08
1995.62	-2.41932e-08
2004.18	1.59554e-08
2012.73	-3.64016e-08
2021.29	5.3643e-08
2029.85	-4.93104e-09
2038.41	4.57854e-08
2046.97	-4.93468e-09
2055.52	4.32353e-09
2064.08	-2.76964e-08
2072.64	7.48095e-08
2081.2	1.26237e-07
2089.75	1.57511e-07
2098.31	6.1782e-07
2106.87	1.69703e-06
2115.43	1.8862e-06
2123.98	2.70921e-06
2132.54	4.07024e-06
2141.1	2.90546e-06
2149.66	1.3121e-06
2158.21	7.16956e-07
2166.77	2.06523e-07
2175.33	4.76297e-08
2183.89	1.14973e-08
2192.45	-1.18974e-07
2201	-1.22788e-07
2209.56	-2.07493e-07
2218.12	-1.31046e-07
2226.68	-1.85533e-07
2235.23	-7.0486e-08
2243.79	-9.5334e-08
2252.35	5.47962e-08
2260.91	-1.33107e-08
2269.46	-7.64484e-08
2278.02	5.61313e-09
2286.58	5.66405e-08
2295.14	4.43593e-08
2303.69	1.43402e-08
2312.25	3.1567e-08
2320.81	2.28077e-07
2329.37	1.37871e-07
2337.93	3.82511e-07
2346.48	8.31965e-08
2355.04	1.15898e-07
2363.6	1.82492e-07
2372.16	6.00019e-08
2380.71	1.39562e-07
2389.27	1.47131e-08
2397.83	6.62298e-08
2406.39	1.03303e-07
2414.94	1.8844e-07
2423.5	4.45116e-07
2432.06	1.24918e-06
2440.62	3.01985e-06
2449.17	5.73699e-06
2457.73	5.1816e-06
2466.29	2.23746e-06
2474.85	9.46319e-07
2483.41	3.37675e-07
2491.96	3.54775e-07
2500.52	4.04347e-07
2509.08	5.80302e-07
2517.64	5.40241e-07
2526.19	3.9504e-07
2534.75	4.88087e-07
2543.31	4.43219e-07
2551.87	3.14704e-07
2560.42	1.64765e-07
2568.98	9.67473e-09
2577.54	-4.86683e-08
2586.1	-2.64286e-08
2594.65	-1.21757e-08
2603.21	1.83891e-09
2611.77	5.4216e-08
2620.33	4.20712e-09
2628.89	-3.87771e-08
2637.44	-2.29418e-08
2646	-1.34417e-09
2654.56	1.45579e-07
2663.12	1.70125e-07
2671.67	1.54232e-07
2680.23	1.75489e-07
2688.79	-1.75597e-08
2697.35	4.88156e-08
2705.9	-5.29282e-08
2714.46	2.49135e-08
2723.02	-1.27687e-08
2731.58	-4.91812e-08
2740.13	-5.04599e-08
2748.69	2.07456e-07
2757.25	-9.29112e-08
2765.81	2.4135e-08
2774.37	6.67882e-08
2782.92	-5.13348e-08
2791.48	5.45688e-08
2800.04	3.74928e-07
2808.6	5.37621e-07
2817.15	9.64734e-07
2825.71	9.98969e-07
2834.27	1.21845e-06
2842.83	1.03258e-06
2851.38	1.24187e-06
2859.94	1.80181e-06
2868.5	2.57508e-06
2877.06	2.44257e-06
2885.61	2.15874e-06
2894.17	2.3721e-06
2902.73	1.68868e-06
2911.29	9.50608e-07
2919.85	2.66076e-07
2928.4	3.75476e-07
2936.96	5.97333e-06
2945.52	9.14135e-06
2954.08	6.87541e-06
2962.63	9.49337e-06
2971.19	1.27439e-06
2979.75	6.13548e-07
2988.31	9.85385e-07
2996.86	5.06816e-06
3005.42	4.4172e-05
3013.98	7.94908e-05
3022.54	3.88295e-05
3031.09	2.07439e-06
3039.65	1.8531e-07
3048.21	1.13236e-07
3056.77	7.99316e-08
3065.33	1.3081e-07
3073.88	1.85182e-08
3082.44	-1.06453e-07
3091	-5.17823e-08
3099.56	4.26605e-08
3108.11	2.47898e-08
3116.67	-1.21372e-07
3125.23	3.92046e-08
3133.79	2.08391e-08
3142.34	5.6726e-08
3150.9	-1.01549e-08
3159.46	-1.28614e-08
3168.02	1.56611e-07
3176.57	2.5039e-07
3185.13	4.14498e-07
3193.69	3.88583e-07
3202.25	3.0826e-07
3210.81	6.87544e-08
3219.36	6.72375e-08
3227.92	-8.0048e-08
3236.48	1.53059e-07
3245.04	4.96227e-07
3253.59	7.33175e-07
3262.15	5.02047e-07
3270.71	5.56583e-09
3279.27	3.56031e-08
3287.82	6.77491e-07
3296.38	1.03182e-06
3304.94	4.0359e-07
3313.5	9.92064e-08
3322.05	-7.13736e-08
3330.61	-6.93638e-08
3339.17	5.21981e-07
3347.73	1.44556e-06
3356.29	3.36151e-06
3364.84	1.47741e-06
3373.4	4.85968e-07
3381.96	-1.0709e-07
3390.52	-1.56036e-07
3399.07	-9.07267e-08
3407.63	-2.84096e-07
3416.19	-2.38427e-07
3424.75	-5.18368e-08
3433.3	3.10141e-08
3441.86	-1.54286e-07
3450.42	-2.65745e-07
3458.98	4.81208e-08
3467.53	-5.90142e-08
3476.09	4.71877e-08
3484.65	3.09559e-08
3493.21	7.0737e-09
3501.77	3.6016e-08
3510.32	1.21373e-07
3518.88	2.812e-07
3527.44	3.07725e-07
3536	4.21266e-07
3544.55	3.73826e-07
3553.11	2.24781e-07
3561.67	9.02502e-08
3570.23	5.01307e-08
3578.78	1.62191e-08
3587.34	-1.17139e-07
3595.9	-4.31843e-08
3604.46	-1.18552e-07
3613.01	-7.49969e-08
3621.57	-9.8257e-09
3630.13	-2.00592e-07
3638.69	1.89639e-08
3647.25	-1.30961e-08
3655.8	-3.39479e-08
3664.36	-1.01311e-07
3672.92	-1.41492e-08
3681.48	-2.79219e-08
3690.03	-9.19981e-08
3698.59	3.54522e-08
3707.15	-1.08425e-08
3715.71	-1.14554e-07
3724.26	5.54364e-08
3732.82	-3.53412e-08
3741.38	-7.05242e-08
3749.94	-3.20217e-08
3758.49	-8.09392e-08
3767.05	-4.78916e-08
3775.61	7.44749e-08
3784.17	-1.1556e-07
3792.73	-2.23372e-07
3801.28	-3.19919e-07
3809.84	-9.45937e-08
3818.4	-4.10962e-08
3826.96	8.12848e-08
3835.51	7.6703e-09
3844.07	-5.34775e-08
3852.63	-5.34302e-08
3861.19	3.07394e-09
3869.74	-9.6178e-08
3878.3	-5.43542e-08
3886.86	-9.48665e-08
3895.42	1.11451e-07
3903.97	-1.09672e-07
3912.53	1.44612e-07
3921.09	9.52503e-08
3929.65	-4.92449e-08
3938.21	1.2705e-07
3946.76	4.03232e-07
3955.32	4.69716e-07
3963.88	3.55475e-07
3972.44	3.99503e-07
