Infrared Spectrum: 1,1,1-Trichloroethane
Formula: C H3 C Cl3
CAS: 71-55-6
State: gas
Melting point: -30.41 C
Boiling point: 74.1 C
Class: IUPAC A
Instrument: IFS66V (Bruker)
Instrument parameters: KBr Beam Splitter; MCT Detector; Multipass cell
Sampling: 1 L/min Flow
Resolution: 0.4820
Temperature: 23 C
Pressure: 101.3 Pa
Origin: NIST, Analytical Chemistry Division, 301-975-3108
cm-1	(micromol/mol)-1m-1 (base 10)
575.17	3.4569e-06
583.848	1.29766e-06
592.526	1.09432e-06
601.205	-3.70983e-08
609.883	-2.06731e-07
618.561	1.60469e-07
627.239	4.20202e-08
635.917	-1.01827e-07
644.595	-4.09253e-10
653.274	1.89553e-07
661.952	1.08565e-06
670.63	4.61698e-06
679.308	1.60194e-05
687.986	3.61887e-05
696.665	3.81417e-05
705.343	0.000111508
714.021	0.000592932
722.699	0.00186223
731.377	0.00105833
740.055	9.34382e-05
748.734	3.3407e-05
757.412	1.3838e-05
766.09	9.52944e-06
774.768	6.53031e-06
783.446	3.98717e-06
792.124	5.41067e-06
800.803	7.85831e-06
809.481	7.55743e-06
818.159	5.72249e-06
826.837	3.88217e-06
835.515	2.77106e-06
844.194	2.18032e-06
852.872	2.68631e-06
861.55	6.13823e-06
870.228	5.33777e-06
878.906	2.06261e-06
887.584	3.94059e-07
896.263	1.23054e-07
904.941	-1.54625e-08
913.619	1.10205e-07
922.297	1.57488e-07
930.975	2.37161e-07
939.654	5.25473e-07
948.332	1.74716e-06
957.01	3.2349e-06
965.688	3.36059e-06
974.366	2.20702e-06
983.044	1.69861e-06
991.723	5.87615e-06
1000.4	1.04207e-05
1009.08	1.8698e-05
1017.76	1.52108e-05
1026.44	2.52657e-06
1035.11	2.64944e-06
1043.79	5.41648e-06
1052.47	1.65224e-05
1061.15	7.0801e-05
1069.83	0.000166091
1078.5	0.000307255
1087.18	0.000888662
1095.86	0.000674378
1104.54	0.000101143
1113.22	3.87815e-05
1121.9	1.26889e-05
1130.57	1.68952e-06
1139.25	4.25883e-07
1147.93	2.55981e-07
1156.61	2.47059e-07
1165.29	8.25726e-08
1173.96	2.88659e-09
1182.64	1.15111e-07
1191.32	3.4397e-07
1200	4.88064e-07
1208.68	5.86664e-07
1217.36	8.99264e-07
1226.03	1.49373e-06
1234.71	4.56588e-06
1243.39	9.09793e-06
1252.07	9.54473e-06
1260.75	2.26522e-06
1269.42	1.09018e-06
1278.1	5.11233e-07
1286.78	5.52391e-07
1295.46	6.28361e-07
1304.14	7.75786e-07
1312.82	8.05516e-07
1321.49	7.46133e-07
1330.17	3.31107e-07
1338.85	3.40251e-07
1347.53	2.74294e-07
1356.21	5.73395e-07
1364.88	5.05688e-06
1373.56	3.42174e-05
1382.24	2.17788e-05
1390.92	4.85761e-05
1399.6	1.73143e-05
1408.28	4.53777e-06
1416.95	1.28811e-05
1425.63	1.89003e-05
1434.31	1.64125e-05
1442.99	3.22054e-05
1451.67	2.51736e-05
1460.34	2.22192e-05
1469.02	1.78885e-05
1477.7	3.31893e-06
1486.38	5.82423e-07
1495.06	2.11243e-07
1503.74	8.047e-08
1512.41	-2.48625e-08
1521.09	-1.7876e-07
1529.77	6.90363e-08
1538.45	-2.6847e-09
1547.13	8.47207e-08
1555.8	8.03772e-09
1564.48	1.84637e-08
1573.16	3.31731e-08
1581.84	8.44497e-08
1590.52	6.87017e-08
1599.2	2.68979e-08
1607.87	-1.63919e-08
1616.55	-3.71221e-07
1625.23	-7.79144e-08
1633.91	-2.40659e-08
1642.59	-9.62198e-09
1651.26	9.27275e-09
1659.94	3.61925e-08
1668.62	2.30727e-08
1677.3	1.06922e-07
1685.98	2.10241e-07
1694.66	3.21381e-07
1703.33	2.95937e-07
1712.01	4.66737e-07
1720.69	5.91181e-07
1729.37	7.52921e-07
1738.05	5.70793e-07
1746.72	3.54023e-07
1755.4	2.13688e-07
1764.08	1.57204e-07
1772.76	2.07191e-08
1781.44	6.77133e-07
1790.12	1.39545e-06
1798.79	1.4568e-06
1807.47	4.80184e-07
1816.15	3.37599e-07
1824.83	2.33097e-07
1833.51	1.46367e-07
1842.18	4.75169e-08
1850.86	-4.148e-08
1859.54	-2.66833e-08
1868.22	-3.63998e-08
1876.9	3.32604e-08
1885.58	2.58393e-08
1894.25	1.3601e-07
1902.93	2.90346e-07
1911.61	4.86568e-07
1920.29	3.0756e-07
1928.97	2.02402e-07
1937.64	1.05589e-07
1946.32	8.59849e-08
1955	6.91073e-08
1963.68	7.24122e-08
1972.36	8.84149e-08
1981.04	3.19908e-08
1989.71	-6.89363e-09
1998.39	-1.38728e-08
2007.07	-2.32001e-08
2015.75	-2.32146e-08
2024.43	1.00367e-08
2033.1	6.227e-08
2041.78	5.18023e-09
2050.46	1.79162e-09
2059.14	3.46064e-08
2067.82	4.07415e-08
2076.5	1.1618e-07
2085.17	1.40586e-07
2093.85	3.13613e-07
2102.53	1.16351e-06
2111.21	1.90059e-06
2119.89	2.01195e-06
2128.56	3.53108e-06
2137.24	5.69818e-06
2145.92	2.61057e-06
2154.6	9.67549e-07
2163.28	4.28751e-07
2171.96	1.70795e-09
2180.63	1.28473e-07
2189.31	-6.52821e-08
2197.99	-1.20733e-07
2206.67	-1.6636e-07
2215.35	-1.07588e-07
2224.02	-1.08992e-07
2232.7	-5.91815e-08
2241.38	-1.81581e-08
2250.06	1.32816e-08
2258.74	-1.54134e-08
2267.42	-4.56544e-09
2276.09	-1.64829e-08
2284.77	1.17737e-08
2293.45	-7.41202e-09
2302.13	1.89875e-08
2310.81	6.07931e-08
2319.48	2.15709e-07
2328.16	1.3254e-07
2336.84	1.53139e-07
2345.52	1.85762e-07
2354.2	7.28155e-07
2362.88	1.65511e-06
2371.55	6.39534e-07
2380.23	-1.82472e-08
2388.91	2.39331e-08
2397.59	1.08788e-08
2406.27	8.69925e-08
2414.94	1.33678e-07
2423.62	4.47659e-07
2432.3	1.30326e-06
2440.98	3.14531e-06
2449.66	6.23002e-06
2458.34	5.26801e-06
2467.01	2.09256e-06
2475.69	9.15998e-07
2484.37	3.34197e-07
2493.05	3.99856e-07
2501.73	4.3545e-07
2510.4	5.73448e-07
2519.08	5.98156e-07
2527.76	4.64116e-07
2536.44	4.53921e-07
2545.12	4.25972e-07
2553.8	2.96488e-07
2562.47	1.19589e-07
2571.15	3.32495e-09
2579.83	-4.34499e-08
2588.51	-3.34496e-08
2597.19	-2.52027e-08
2605.86	5.97745e-08
2614.54	-4.96014e-09
2623.22	-3.19399e-08
2631.9	-1.78525e-08
2640.58	2.41532e-08
2649.26	8.72799e-08
2657.93	1.16846e-07
2666.61	2.4645e-07
2675.29	1.47e-07
2683.97	6.09823e-08
2692.65	-5.00198e-09
2701.32	-7.62701e-08
2710	4.4363e-08
2718.68	7.65211e-09
2727.36	-2.75309e-08
2736.04	-3.07103e-08
2744.71	-2.1865e-08
2753.39	-7.3138e-09
2762.07	-1.02713e-08
2770.75	-5.44142e-08
2779.43	4.12163e-08
2788.11	-3.7704e-08
2796.78	2.53687e-07
2805.46	4.31961e-07
2814.14	6.4599e-07
2822.82	1.17814e-06
2831.5	1.0578e-06
2840.17	9.51221e-07
2848.85	1.04637e-06
2857.53	1.57004e-06
2866.21	2.44821e-06
2874.89	2.54353e-06
2883.57	2.15528e-06
2892.24	2.20799e-06
2900.92	1.75245e-06
2909.6	1.072e-06
2918.28	4.705e-07
2926.96	2.27772e-07
2935.63	4.32418e-06
2944.31	1.09193e-05
2952.99	5.49941e-06
2961.67	1.05596e-05
2970.35	1.43135e-06
2979.03	7.12243e-07
2987.7	9.5657e-07
2996.38	4.43164e-06
3005.06	4.27948e-05
3013.74	8.25826e-05
3022.42	3.96782e-05
3031.09	2.06746e-06
3039.77	1.23254e-07
3048.45	1.84338e-07
3057.13	1.28542e-07
3065.81	5.7952e-08
3074.49	-1.77979e-08
3083.16	1.06442e-08
3091.84	5.7379e-08
3100.52	3.09613e-08
3109.2	-5.57456e-08
3117.88	3.89572e-08
3126.55	-4.95741e-08
3135.23	-1.18338e-08
3143.91	-1.83345e-09
3152.59	7.66976e-08
3161.27	1.10975e-07
3169.95	2.45195e-07
3178.62	4.03334e-07
3187.3	4.22483e-07
3195.98	3.66037e-07
3204.66	5.45779e-08
3213.34	1.56254e-07
3222.01	1.02511e-07
3230.69	5.21097e-08
3239.37	4.0301e-07
3248.05	8.57022e-07
3256.73	8.52693e-07
3265.41	2.21107e-07
3274.08	6.9251e-08
3282.76	2.95453e-07
3291.44	8.85792e-07
3300.12	8.01518e-07
3308.8	3.01777e-07
3317.47	1.84273e-08
3326.15	-2.31146e-08
3334.83	1.44377e-07
3343.51	9.27761e-07
3352.19	2.1163e-06
3360.87	1.89787e-06
3369.54	9.3568e-07
3378.22	7.7145e-08
3386.9	-2.95371e-08
3395.58	-5.90288e-08
3404.26	-1.37178e-07
3412.93	-1.61991e-08
3421.61	-1.22339e-07
3430.29	-1.13081e-08
3438.97	-2.96572e-08
3447.65	-3.46755e-08
3456.33	2.85094e-08
3465	-4.83482e-08
3473.68	1.32203e-07
3482.36	7.40602e-08
3491.04	2.03826e-08
3499.72	1.43297e-07
3508.39	1.0905e-07
3517.07	1.24735e-07
3525.75	3.34456e-07
3534.43	4.34253e-07
3543.11	3.6179e-07
3551.79	1.20589e-07
3560.46	1.18112e-07
3569.14	4.93613e-08
3577.82	-2.74945e-08
3586.5	-4.66239e-08
3595.18	-8.46261e-08
3603.85	-4.20257e-08
3612.53	-2.08039e-07
3621.21	-3.42972e-08
3629.89	-2.6206e-07
3638.57	-4.72023e-08
3647.25	-1.97242e-08
3655.92	-4.96869e-08
3664.6	-4.0416e-08
3673.28	2.38221e-08
3681.96	3.09704e-08
3690.64	-4.8219e-09
3699.31	-1.06844e-07
3707.99	-9.62435e-08
3716.67	-2.69033e-08
3725.35	3.7191e-08
3734.03	6.3425e-08
3742.71	8.72526e-08
3751.38	-8.89078e-09
3760.06	-1.92349e-07
3768.74	-9.73348e-08
3777.42	-1.64721e-07
3786.1	-1.25957e-07
3794.77	-1.17628e-07
3803.45	6.51348e-09
3812.13	-5.80229e-09
3820.81	-1.54055e-07
3829.49	1.09434e-07
3838.17	-8.87751e-08
3846.84	-7.14264e-08
3855.52	-1.04232e-07
3864.2	-8.82294e-08
3872.88	-4.59272e-08
3881.56	-5.29573e-08
3890.23	-7.76725e-08
3898.91	-7.39146e-08
3907.59	4.28787e-08
3916.27	9.62598e-08
3924.95	4.82554e-08
3933.63	1.63785e-07
3942.3	2.78417e-07
3950.98	4.58199e-07
3959.66	3.78377e-07
3968.34	4.10913e-07
