Infrared Spectrum: 1,1,1-Trichloroethane
Formula: C H3 C Cl3
CAS: 71-55-6
State: gas
Melting point: -30.41 C
Boiling point: 74.1 C
Class: IUPAC A
Instrument: IFS66V (Bruker)
Instrument parameters: KBr Beam Splitter; MCT Detector; Multipass cell
Sampling: 1 L/min Flow
Resolution: 0.9640
Temperature: 23 C
Pressure: 101.3 Pa
Origin: NIST, Analytical Chemistry Division, 301-975-3108
cm-1	(micromol/mol)-1m-1 (base 10)
575.17	3.68031e-06
583.848	1.20514e-06
592.526	9.48307e-07
601.205	-7.55426e-08
609.883	-2.29674e-07
618.561	1.19316e-07
627.239	2.76145e-08
635.917	-4.92103e-08
644.595	-4.55689e-08
653.274	1.99395e-07
661.952	1.02044e-06
670.63	4.69806e-06
679.308	1.59405e-05
687.986	3.62378e-05
696.665	3.82039e-05
705.343	0.000111748
714.021	0.000593785
722.699	0.00186228
731.377	0.0010622
740.055	9.37501e-05
748.734	3.33312e-05
757.412	1.39182e-05
766.09	9.72401e-06
774.768	6.54201e-06
783.446	4.01544e-06
792.125	5.43058e-06
800.803	7.882e-06
809.481	7.55811e-06
818.159	5.77064e-06
826.837	3.91627e-06
835.515	2.7893e-06
844.194	2.1697e-06
852.872	2.67059e-06
861.55	6.00451e-06
870.228	5.54312e-06
878.906	2.07568e-06
887.584	3.95915e-07
896.263	1.32691e-07
904.941	3.50502e-09
913.619	1.00949e-07
922.297	1.88813e-07
930.975	2.68824e-07
939.654	5.46359e-07
948.332	1.75913e-06
957.01	3.24122e-06
965.688	3.3485e-06
974.366	2.20167e-06
983.044	1.70411e-06
991.723	5.84691e-06
1000.4	1.03935e-05
1009.08	1.87052e-05
1017.76	1.52119e-05
1026.44	2.52162e-06
1035.11	2.68268e-06
1043.79	5.43355e-06
1052.47	1.65819e-05
1061.15	7.08906e-05
1069.83	0.00016717
1078.5	0.000307318
1087.18	0.000885925
1095.86	0.00067171
1104.54	0.000101375
1113.22	3.88058e-05
1121.9	1.27123e-05
1130.57	1.70891e-06
1139.25	4.27496e-07
1147.93	3.00111e-07
1156.61	2.66e-07
1165.29	8.61613e-08
1173.96	2.54464e-08
1182.64	1.3898e-07
1191.32	3.77125e-07
1200	5.02295e-07
1208.68	5.69676e-07
1217.36	9.03057e-07
1226.03	1.5284e-06
1234.71	4.59958e-06
1243.39	9.11722e-06
1252.07	9.45677e-06
1260.75	2.25028e-06
1269.42	1.12991e-06
1278.1	5.40284e-07
1286.78	5.70898e-07
1295.46	6.74577e-07
1304.14	7.68389e-07
1312.82	8.37563e-07
1321.49	7.60016e-07
1330.17	3.85643e-07
1338.85	3.86154e-07
1347.53	3.12778e-07
1356.21	6.64435e-07
1364.88	5.25508e-06
1373.56	3.46324e-05
1382.24	2.3549e-05
1390.92	4.80898e-05
1399.6	1.71656e-05
1408.28	4.47528e-06
1416.95	1.28008e-05
1425.63	1.94348e-05
1434.31	1.63658e-05
1442.99	3.21623e-05
1451.67	2.54413e-05
1460.34	2.23345e-05
1469.02	1.78755e-05
1477.7	3.31282e-06
1486.38	5.61978e-07
1495.06	1.88698e-07
1503.74	6.38252e-08
1512.41	-1.84382e-08
1521.09	-1.42644e-07
1529.77	6.675e-08
1538.45	-5.8996e-08
1547.13	5.7068e-08
1555.8	1.3438e-08
1564.48	1.39019e-08
1573.16	9.0563e-09
1581.84	7.97515e-08
1590.52	6.47128e-08
1599.2	4.15037e-08
1607.87	-1.20775e-08
1616.55	-2.81289e-07
1625.23	-7.3811e-08
1633.91	-2.48534e-08
1642.59	-2.21324e-08
1651.26	-1.26559e-08
1659.94	3.20745e-08
1668.62	2.82639e-08
1677.3	1.06926e-07
1685.98	1.84131e-07
1694.66	2.96266e-07
1703.33	2.9364e-07
1712.01	4.37395e-07
1720.69	5.92589e-07
1729.37	7.44458e-07
1738.05	5.55363e-07
1746.72	3.36511e-07
1755.4	2.0983e-07
1764.08	1.61135e-07
1772.76	1.09269e-07
1781.44	6.80434e-07
1790.12	1.39342e-06
1798.79	1.44352e-06
1807.47	4.81625e-07
1816.15	3.31926e-07
1824.83	2.10014e-07
1833.51	1.51271e-07
1842.18	3.99267e-08
1850.86	-4.62073e-08
1859.54	-4.11963e-08
1868.22	-4.73296e-08
1876.9	1.96987e-09
1885.58	1.56553e-08
1894.25	1.28347e-07
1902.93	2.9587e-07
1911.61	5.18292e-07
1920.29	3.06188e-07
1928.97	1.74971e-07
1937.64	9.59815e-08
1946.32	7.55844e-08
1955	5.25171e-08
1963.68	7.38273e-08
1972.36	6.15661e-08
1981.04	3.18489e-08
1989.71	-1.12936e-08
1998.39	-2.36748e-08
2007.07	-3.7844e-08
2015.75	-3.17289e-08
2024.43	8.7962e-09
2033.1	4.53852e-08
2041.78	4.01795e-09
2050.46	-1.03386e-08
2059.14	1.82381e-08
2067.82	2.88823e-08
2076.5	1.03224e-07
2085.17	1.35874e-07
2093.85	3.30709e-07
2102.53	1.14748e-06
2111.21	1.87188e-06
2119.89	2.02657e-06
2128.56	3.51646e-06
2137.24	5.67008e-06
2145.92	2.59108e-06
2154.6	1.01831e-06
2163.28	4.25699e-07
2171.96	-1.16646e-08
2180.63	9.216e-08
2189.31	-7.22503e-08
2197.99	-1.48262e-07
2206.67	-1.7851e-07
2215.35	-1.16626e-07
2224.02	-1.06051e-07
2232.7	-5.55547e-08
2241.38	-2.1363e-08
2250.06	4.4654e-09
2258.74	-1.85437e-08
2267.42	-8.68889e-09
2276.09	-1.97514e-08
2284.77	-1.63192e-08
2293.45	-7.36655e-09
2302.13	1.73869e-08
2310.81	8.1514e-08
2319.48	2.81717e-07
2328.16	3.51339e-07
2336.84	2.33569e-07
2345.52	2.76733e-07
2354.2	6.30449e-07
2362.88	1.031e-06
2371.55	4.35794e-07
2380.23	3.24255e-08
2388.91	7.85765e-09
2397.59	1.49896e-08
2406.27	6.03293e-08
2414.94	1.2729e-07
2423.62	4.38879e-07
2432.3	1.31074e-06
2440.98	3.15867e-06
2449.66	6.30849e-06
2458.34	5.25457e-06
2467.01	2.09637e-06
2475.69	9.12269e-07
2484.37	3.46659e-07
2493.05	3.81731e-07
2501.73	4.2266e-07
2510.4	5.81099e-07
2519.08	5.76224e-07
2527.76	4.37482e-07
2536.44	4.54496e-07
2545.12	4.14527e-07
2553.8	2.93187e-07
2562.47	1.30735e-07
2571.15	6.49347e-09
2579.83	-2.43733e-08
2588.51	-2.98227e-08
2597.19	-1.26304e-08
2605.86	3.71274e-08
2614.54	-7.00458e-09
2623.22	-3.4972e-08
2631.9	-1.97096e-08
2640.58	1.386e-08
2649.26	6.50984e-08
2657.93	1.42975e-07
2666.61	2.51899e-07
2675.29	1.65647e-07
2683.97	4.86392e-08
2692.65	-2.60466e-09
2701.32	-7.47004e-08
2710	1.94968e-08
2718.68	1.8189e-09
2727.36	-3.8206e-08
2736.04	-3.05339e-08
2744.72	-4.77261e-08
2753.39	-2.0479e-08
2762.07	2.90915e-08
2770.75	-1.22612e-08
2779.43	3.16852e-08
2788.11	-2.02698e-08
2796.78	2.42548e-07
2805.46	4.55254e-07
2814.14	6.32064e-07
2822.82	1.13267e-06
2831.5	1.05617e-06
2840.18	9.21762e-07
2848.85	1.07635e-06
2857.53	1.56032e-06
2866.21	2.43594e-06
2874.89	2.55335e-06
2883.57	2.16949e-06
2892.24	2.23096e-06
2900.92	1.72311e-06
2909.6	1.07275e-06
2918.28	4.34051e-07
2926.96	2.37878e-07
2935.63	4.31681e-06
2944.31	1.08591e-05
2952.99	5.64458e-06
2961.67	1.05514e-05
2970.35	1.47323e-06
2979.03	7.09635e-07
2987.7	9.36639e-07
2996.38	4.45338e-06
3005.06	4.27384e-05
3013.74	8.30125e-05
3022.42	3.96154e-05
3031.09	2.06135e-06
3039.77	1.24975e-07
3048.45	1.64881e-07
3057.13	1.10869e-07
3065.81	6.15243e-08
3074.49	2.12266e-09
3083.16	-2.12266e-08
3091.84	6.60388e-08
3100.52	1.41147e-08
3109.2	-4.93468e-08
3117.88	1.68921e-08
3126.55	-3.66108e-08
3135.23	-4.83646e-09
3143.91	-1.15555e-08
3152.59	6.97803e-08
3161.27	1.06879e-07
3169.95	2.32761e-07
3178.62	3.99139e-07
3187.3	4.52975e-07
3195.98	3.55202e-07
3204.66	9.67637e-08
3213.34	1.4963e-07
3222.01	7.5297e-08
3230.69	7.10371e-08
3239.37	3.92542e-07
3248.05	8.17383e-07
3256.73	8.38931e-07
3265.41	2.32326e-07
3274.08	7.64647e-08
3282.76	3.23435e-07
3291.44	8.65898e-07
3300.12	8.21028e-07
3308.8	3.29303e-07
3317.47	1.81399e-08
3326.15	-3.39279e-08
3334.83	1.18427e-07
3343.51	9.4408e-07
3352.19	2.09634e-06
3360.87	1.88404e-06
3369.54	9.15101e-07
3378.22	9.77131e-08
3386.9	-5.70025e-08
3395.58	-6.38434e-08
3404.26	-1.04823e-07
3412.93	-4.39501e-08
3421.61	-1.26896e-07
3430.29	-5.66405e-08
3438.97	-5.23752e-08
3447.65	-3.37351e-08
3456.33	1.40637e-08
3465	7.04642e-09
3473.68	9.36661e-08
3482.36	5.78865e-08
3491.04	3.94392e-08
3499.72	1.34891e-07
3508.39	6.01274e-08
3517.07	1.02253e-07
3525.75	3.04888e-07
3534.43	4.31354e-07
3543.11	3.89115e-07
3551.79	1.4859e-07
3560.46	7.49496e-08
3569.14	4.69567e-08
3577.82	-4.9354e-08
3586.5	-5.90433e-08
3595.18	-7.07479e-08
3603.85	-5.05709e-08
3612.53	-1.70867e-07
3621.21	-2.13284e-08
3629.89	-2.10147e-07
3638.57	-4.36009e-08
3647.25	-3.19035e-08
3655.92	-8.54683e-08
3664.6	-4.57108e-08
3673.28	5.28572e-09
3681.96	1.79053e-08
3690.64	-1.25359e-08
3699.31	-6.61134e-08
3707.99	-8.55429e-08
3716.67	-4.43793e-08
3725.35	2.88496e-08
3734.03	5.12657e-08
3742.71	5.45324e-08
3751.38	-5.78556e-08
3760.06	-1.45219e-07
3768.74	-8.86423e-08
3777.42	-1.35395e-07
3786.1	-1.03173e-07
3794.77	-1.01189e-07
3803.45	-1.72723e-08
3812.13	-8.89988e-09
3820.81	-1.07792e-07
3829.49	9.30713e-08
3838.17	-1.35801e-07
3846.84	-6.16753e-08
3855.52	-7.55189e-08
3864.2	-1.04709e-07
3872.88	-6.82979e-08
3881.56	-6.19899e-08
3890.23	-7.67703e-08
3898.91	-9.43773e-08
3907.59	2.10829e-08
3916.27	9.82988e-08
3924.95	8.25744e-08
3933.63	1.82243e-07
3942.3	2.71944e-07
3950.98	4.28958e-07
3959.66	3.67123e-07
3968.34	3.89867e-07
