Infrared Spectrum: 1,1,1-Trichloroethane
Formula: C H3 C Cl3
CAS: 71-55-6
State: gas
Melting point: -30.41 C
Boiling point: 74.1 C
Class: IUPAC A
Instrument: IFS66V (Bruker)
Instrument parameters: KBr Beam Splitter; MCT Detector; Multipass cell
Sampling: 1 L/min Flow
Resolution: 0.9640
Temperature: 23 C
Pressure: 101.3 Pa
Origin: NIST, Analytical Chemistry Division, 301-975-3108
cm-1	(micromol/mol)-1m-1 (base 10)
575.17	3.68089e-06
583.848	1.22756e-06
592.526	9.04521e-07
601.205	-7.63702e-08
609.883	-2.0368e-07
618.561	1.01791e-07
627.239	3.86098e-08
635.917	-4.44121e-08
644.595	-4.2826e-08
653.274	1.86721e-07
661.952	1.01814e-06
670.63	4.71432e-06
679.308	1.5929e-05
687.986	3.62714e-05
696.665	3.8263e-05
705.343	0.000111983
714.021	0.000594654
722.699	0.00186086
731.377	0.00106613
740.055	9.40302e-05
748.734	3.32105e-05
757.412	1.39763e-05
766.09	9.82726e-06
774.768	6.51746e-06
783.446	4.01093e-06
792.125	5.42383e-06
800.803	7.86445e-06
809.481	7.55424e-06
818.159	5.77846e-06
826.837	3.90505e-06
835.515	2.80119e-06
844.194	2.15422e-06
852.872	2.65006e-06
861.55	5.93184e-06
870.228	5.67957e-06
878.906	2.07201e-06
887.584	3.9102e-07
896.263	1.18443e-07
904.941	2.06081e-09
913.619	8.25453e-08
922.297	1.92607e-07
930.975	2.69239e-07
939.654	5.4418e-07
948.332	1.75772e-06
957.01	3.23614e-06
965.688	3.33774e-06
974.366	2.19268e-06
983.044	1.69805e-06
991.723	5.84084e-06
1000.4	1.0397e-05
1009.08	1.8669e-05
1017.76	1.52017e-05
1026.44	2.51118e-06
1035.11	2.68692e-06
1043.79	5.42886e-06
1052.47	1.65916e-05
1061.15	7.09629e-05
1069.83	0.000167875
1078.5	0.000307506
1087.18	0.00088363
1095.86	0.000669031
1104.54	0.000101612
1113.22	3.88211e-05
1121.9	1.27258e-05
1130.57	1.70312e-06
1139.25	4.22236e-07
1147.93	2.95091e-07
1156.61	2.61718e-07
1165.29	7.93059e-08
1173.96	2.49717e-08
1182.64	1.33467e-07
1191.32	3.68946e-07
1200	4.88724e-07
1208.68	5.55965e-07
1217.36	8.98266e-07
1226.03	1.52411e-06
1234.71	4.5939e-06
1243.39	9.10392e-06
1252.07	9.39117e-06
1260.75	2.23546e-06
1269.42	1.12666e-06
1278.1	5.27928e-07
1286.78	5.53097e-07
1295.46	6.60739e-07
1304.14	7.37418e-07
1312.82	8.0893e-07
1321.49	7.28337e-07
1330.17	3.56466e-07
1338.85	3.54222e-07
1347.53	2.57423e-07
1356.21	6.11038e-07
1364.88	5.18399e-06
1373.56	3.4633e-05
1382.24	2.41333e-05
1390.92	4.8193e-05
1399.6	1.73182e-05
1408.28	4.55311e-06
1416.95	1.28415e-05
1425.63	1.97712e-05
1434.31	1.64036e-05
1442.99	3.21694e-05
1451.67	2.56433e-05
1460.34	2.24549e-05
1469.02	1.78869e-05
1477.7	3.33854e-06
1486.38	5.77563e-07
1495.06	2.06045e-07
1503.74	7.53188e-08
1512.41	2.87204e-09
1521.09	-1.09267e-07
1529.77	7.78689e-08
1538.45	-6.49184e-08
1547.13	6.05548e-08
1555.8	2.27908e-08
1564.48	2.57629e-08
1573.16	1.49423e-08
1581.84	8.66742e-08
1590.52	7.64629e-08
1599.2	5.34211e-08
1607.87	-6.71174e-09
1616.55	-2.35331e-07
1625.23	-6.32541e-08
1633.91	-2.02916e-08
1642.59	-2.02971e-08
1651.26	-2.25362e-08
1659.94	3.459e-08
1668.62	3.24946e-08
1677.3	1.09021e-07
1685.98	1.7092e-07
1694.66	2.88565e-07
1703.33	3.00217e-07
1712.01	4.32514e-07
1720.69	6.01916e-07
1729.37	7.59762e-07
1738.05	5.56396e-07
1746.72	3.43587e-07
1755.4	2.13859e-07
1764.08	1.65453e-07
1772.76	1.42211e-07
1781.44	6.85489e-07
1790.12	1.39017e-06
1798.79	1.4413e-06
1807.47	4.85563e-07
1816.15	3.37675e-07
1824.83	2.1479e-07
1833.51	1.57257e-07
1842.18	4.37809e-08
1850.86	-4.02995e-08
1859.54	-3.90682e-08
1868.22	-4.80954e-08
1876.9	-1.21321e-09
1885.58	1.60954e-08
1894.25	1.29187e-07
1902.93	3.01435e-07
1911.61	5.21913e-07
1920.29	3.08707e-07
1928.97	1.72246e-07
1937.64	9.42208e-08
1946.32	7.40511e-08
1955	5.39904e-08
1963.68	7.47222e-08
1972.36	6.01983e-08
1981.04	3.29912e-08
1989.71	-7.49023e-09
1998.39	-2.40659e-08
2007.07	-3.8648e-08
2015.75	-3.30003e-08
2024.43	8.67979e-09
2033.1	4.23131e-08
2041.78	5.30391e-09
2050.46	-8.58703e-09
2059.14	1.56935e-08
2067.82	2.76946e-08
2076.5	1.02028e-07
2085.17	1.31939e-07
2093.85	3.32859e-07
2102.53	1.14168e-06
2111.21	1.88079e-06
2119.89	2.04759e-06
2128.56	3.50813e-06
2137.24	5.63847e-06
2145.92	2.58462e-06
2154.6	1.03109e-06
2163.28	4.23182e-07
2171.96	-1.82036e-08
2180.63	7.14773e-08
2189.31	-7.61319e-08
2197.99	-1.53355e-07
2206.67	-1.72052e-07
2215.35	-1.13641e-07
2224.02	-1.0417e-07
2232.7	-5.28245e-08
2241.38	-2.079e-08
2250.06	3.69055e-09
2258.74	-1.7958e-08
2267.42	-6.26247e-09
2276.09	-1.63683e-08
2284.77	-2.28363e-08
2293.45	-4.25259e-09
2302.13	1.78216e-08
2310.81	7.89057e-08
2319.48	2.59372e-07
2328.16	3.85323e-07
2336.84	3.87779e-07
2345.52	2.87564e-07
2354.2	5.61715e-07
2362.88	8.73121e-07
2371.55	3.89794e-07
2380.23	4.04123e-08
2388.91	7.2083e-09
2397.59	1.78871e-08
2406.27	6.01783e-08
2414.94	1.27561e-07
2423.62	4.39181e-07
2432.3	1.30982e-06
2440.98	3.16595e-06
2449.66	6.38243e-06
2458.34	5.2462e-06
2467.01	2.09984e-06
2475.69	9.10649e-07
2484.37	3.51633e-07
2493.05	3.78899e-07
2501.73	4.25886e-07
2510.4	5.85e-07
2519.08	5.7221e-07
2527.76	4.33e-07
2536.44	4.58807e-07
2545.12	4.15751e-07
2553.8	2.91275e-07
2562.47	1.31894e-07
2571.15	6.85725e-09
2579.83	-1.854e-08
2588.51	-2.26981e-08
2597.19	-1.01895e-08
2605.86	3.63471e-08
2614.54	-1.53515e-09
2623.22	-3.1898e-08
2631.9	-1.88456e-08
2640.58	1.02495e-08
2649.26	6.10314e-08
2657.93	1.48748e-07
2666.61	2.53842e-07
2675.29	1.71606e-07
2683.97	5.13421e-08
2692.65	-5.13475e-09
2701.32	-6.64444e-08
2710	1.73378e-08
2718.68	-2.34456e-09
2727.36	-3.99103e-08
2736.04	-2.7891e-08
2744.72	-5.72353e-08
2753.39	-2.73144e-08
2762.07	4.04669e-08
2770.75	-1.75524e-09
2779.43	3.30694e-08
2788.11	-1.03495e-08
2796.78	2.40806e-07
2805.46	4.64402e-07
2814.14	6.35695e-07
2822.82	1.12632e-06
2831.5	1.06857e-06
2840.18	9.27963e-07
2848.85	1.08857e-06
2857.53	1.55771e-06
2866.21	2.42816e-06
2874.89	2.55615e-06
2883.57	2.18607e-06
2892.24	2.23495e-06
2900.92	1.72125e-06
2909.6	1.07184e-06
2918.28	4.31247e-07
2926.96	2.52272e-07
2935.63	4.32645e-06
2944.31	1.08441e-05
2952.99	5.70367e-06
2961.67	1.05462e-05
2970.35	1.46716e-06
2979.03	6.94154e-07
2987.7	9.23463e-07
2996.38	4.46456e-06
3005.06	4.26435e-05
3013.74	8.23992e-05
3022.42	3.95635e-05
3031.09	2.07301e-06
3039.77	1.28522e-07
3048.45	1.61566e-07
3057.13	1.04825e-07
3065.81	5.52509e-08
3074.49	1.03168e-08
3083.16	-2.42096e-08
3091.84	6.61261e-08
3100.52	3.30312e-09
3109.2	-4.04778e-08
3117.88	9.79296e-09
3126.55	-3.24874e-08
3135.23	-2.22633e-09
3143.91	-1.34144e-08
3152.59	6.85016e-08
3161.27	1.06147e-07
3169.95	2.26762e-07
3178.62	3.92419e-07
3187.3	4.67737e-07
3195.98	3.52694e-07
3204.66	1.07724e-07
3213.34	1.48078e-07
3222.01	7.03641e-08
3230.69	7.22103e-08
3239.37	3.87804e-07
3248.05	8.14773e-07
3256.73	8.38065e-07
3265.41	2.35071e-07
3274.08	7.76725e-08
3282.76	3.31185e-07
3291.44	8.57564e-07
3300.12	8.23163e-07
3308.8	3.39067e-07
3317.47	1.8862e-08
3326.15	-3.8075e-08
3334.83	1.13963e-07
3343.51	9.5772e-07
3352.19	2.09671e-06
3360.87	1.88745e-06
3369.54	9.23912e-07
3378.22	1.06284e-07
3386.9	-5.80757e-08
3395.58	-6.03602e-08
3404.26	-9.94556e-08
3412.93	-5.19369e-08
3421.61	-1.23511e-07
3430.29	-6.65954e-08
3438.97	-5.93289e-08
3447.65	-3.22564e-08
3456.33	-8.29418e-10
3465	1.18338e-08
3473.68	8.92643e-08
3482.36	5.70389e-08
3491.04	4.47049e-08
3499.72	1.3029e-07
3508.39	4.58563e-08
3517.07	9.69656e-08
3525.75	2.99493e-07
3534.43	4.33886e-07
3543.11	4.0741e-07
3551.79	1.58744e-07
3560.46	5.87432e-08
3569.14	4.1942e-08
3577.82	-4.01795e-08
3586.5	-5.8434e-08
3595.18	-6.36488e-08
3603.85	-4.88684e-08
3612.53	-1.57089e-07
3621.21	-2.2196e-08
3629.89	-1.82396e-07
3638.57	-4.84355e-08
3647.25	-3.07267e-08
3655.92	-9.84334e-08
3664.6	-4.11981e-08
3673.28	-1.47695e-09
3681.96	1.21448e-08
3690.64	-2.53446e-08
3699.31	-5.64005e-08
3707.99	-7.94968e-08
3716.67	-4.60909e-08
3725.35	2.50699e-08
3734.03	4.84173e-08
3742.71	4.9525e-08
3751.38	-8.14303e-08
3760.06	-1.26926e-07
3768.74	-9.23037e-08
3777.42	-1.3201e-07
3786.1	-9.74348e-08
3794.77	-9.57087e-08
3803.45	-2.61667e-08
3812.13	-2.983e-09
3820.81	-1.00061e-07
3829.49	8.72836e-08
3838.17	-1.27734e-07
3846.84	-6.28557e-08
3855.52	-7.91222e-08
3864.2	-1.13157e-07
3872.88	-7.24613e-08
3881.56	-6.79796e-08
3890.23	-7.69922e-08
3898.91	-9.42627e-08
3907.59	8.1032e-09
3916.27	9.0603e-08
3924.95	9.04412e-08
3933.63	1.82934e-07
3942.3	2.69285e-07
3950.98	4.23818e-07
3959.66	3.66334e-07
3968.34	3.84876e-07
