Infrared Spectrum: 1,1,1-Trichloroethane
Formula: C H3 C Cl3
CAS: 71-55-6
State: gas
Melting point: -30.41 C
Boiling point: 74.1 C
Class: IUPAC A
Instrument: IFS66V (Bruker)
Instrument parameters: KBr Beam Splitter; MCT Detector; Multipass cell
Sampling: 1 L/min Flow
Resolution: 0.4820
Temperature: 23 C
Pressure: 101.3 Pa
Origin: NIST, Analytical Chemistry Division, 301-975-3108
cm-1	(micromol/mol)-1m-1 (base 10)
575.17	3.48887e-06
583.848	1.372e-06
592.526	1.12037e-06
601.205	4.83973e-08
609.883	-1.05005e-07
618.561	2.34885e-07
627.239	1.47838e-07
635.917	1.89366e-08
644.595	1.46316e-07
653.274	3.76216e-07
661.952	1.35039e-06
670.63	4.97853e-06
679.308	1.64618e-05
687.986	3.67175e-05
696.665	3.95417e-05
705.343	0.000114448
714.021	0.000595769
722.699	0.00184693
731.377	0.0010586
740.055	9.78035e-05
748.734	3.47514e-05
757.412	1.4739e-05
766.09	1.00948e-05
774.768	6.85481e-06
783.446	4.25337e-06
792.124	5.61132e-06
800.803	7.99108e-06
809.481	7.65698e-06
818.159	5.80658e-06
826.837	3.96717e-06
835.515	2.86071e-06
844.194	2.25485e-06
852.872	2.75197e-06
861.55	6.12115e-06
870.228	5.43938e-06
878.906	2.11549e-06
887.584	4.50863e-07
896.263	1.66508e-07
904.941	3.19453e-08
913.619	1.4629e-07
922.297	2.03375e-07
930.975	2.84731e-07
939.654	5.75276e-07
948.332	1.79282e-06
957.01	3.27363e-06
965.688	3.40241e-06
974.366	2.26496e-06
983.044	1.7873e-06
991.723	5.95107e-06
1000.4	1.0514e-05
1009.08	1.86393e-05
1017.76	1.52061e-05
1026.44	2.72491e-06
1035.11	2.88959e-06
1043.79	5.75012e-06
1052.47	1.70966e-05
1061.15	7.14213e-05
1069.83	0.000167219
1078.5	0.000308645
1087.18	0.000879044
1095.86	0.00066636
1104.54	0.000103364
1113.22	3.95411e-05
1121.9	1.31905e-05
1130.57	2.0221e-06
1139.25	6.38727e-07
1147.93	4.09158e-07
1156.61	3.61634e-07
1165.29	1.76361e-07
1173.96	8.4135e-08
1182.64	1.8073e-07
1191.32	3.99725e-07
1200	5.35777e-07
1208.68	6.33901e-07
1217.36	9.49164e-07
1226.03	1.5482e-06
1234.71	4.59721e-06
1243.39	9.0808e-06
1252.07	9.47885e-06
1260.75	2.32369e-06
1269.42	1.1355e-06
1278.1	5.49606e-07
1286.78	5.84656e-07
1295.46	6.6224e-07
1304.14	8.03437e-07
1312.82	8.33689e-07
1321.49	7.77156e-07
1330.17	3.76036e-07
1338.85	3.93826e-07
1347.53	3.3455e-07
1356.21	6.76916e-07
1364.88	5.24531e-06
1373.56	3.418e-05
1382.24	2.50468e-05
1390.92	4.82496e-05
1399.6	1.74908e-05
1408.28	4.67096e-06
1416.95	1.28656e-05
1425.63	1.8965e-05
1434.31	1.64747e-05
1442.99	3.20396e-05
1451.67	2.55571e-05
1460.34	2.24782e-05
1469.02	1.78454e-05
1477.7	3.40023e-06
1486.38	6.27793e-07
1495.06	2.3546e-07
1503.74	9.35624e-08
1512.41	-9.45282e-09
1521.09	-1.51973e-07
1529.77	7.44112e-08
1538.45	-6.08058e-09
1547.13	8.39331e-08
1555.8	7.67212e-09
1564.48	2.25744e-08
1573.16	3.39188e-08
1581.84	8.64159e-08
1590.52	7.33835e-08
1599.2	3.09286e-08
1607.87	-1.42365e-08
1616.55	-3.41147e-07
1625.23	-7.33126e-08
1633.91	-2.41041e-08
1642.59	-1.25195e-08
1651.26	7.20284e-10
1659.94	3.58833e-08
1668.62	2.32383e-08
1677.3	1.04439e-07
1685.98	2.00936e-07
1694.66	3.10204e-07
1703.33	2.99576e-07
1712.01	4.63099e-07
1720.69	5.94602e-07
1729.37	7.55609e-07
1738.05	5.68615e-07
1746.72	3.59362e-07
1755.4	2.16063e-07
1764.08	1.58523e-07
1772.76	4.2515e-08
1781.44	6.78264e-07
1790.12	1.38543e-06
1798.79	1.44569e-06
1807.47	4.84286e-07
1816.15	3.40163e-07
1824.83	2.3831e-07
1833.51	1.48666e-07
1842.18	4.8692e-08
1850.86	-3.72565e-08
1859.54	-2.51681e-08
1868.22	-3.67309e-08
1876.9	3.10104e-08
1885.58	2.61485e-08
1894.25	1.34857e-07
1902.93	2.92383e-07
1911.61	4.82771e-07
1920.29	3.06119e-07
1928.97	1.97163e-07
1937.64	1.04829e-07
1946.32	8.46061e-08
1955	7.05406e-08
1963.68	7.11008e-08
1972.36	8.72053e-08
1981.04	3.21927e-08
1989.71	-6.16425e-09
1998.39	-1.33707e-08
2007.07	-2.40168e-08
2015.75	-2.36402e-08
2024.43	9.10905e-09
2033.1	5.88214e-08
2041.78	6.31704e-09
2050.46	3.93246e-09
2059.14	3.44227e-08
2067.82	4.17983e-08
2076.5	1.14149e-07
2085.17	1.40339e-07
2093.85	3.19868e-07
2102.53	1.1588e-06
2111.21	1.90311e-06
2119.89	2.02613e-06
2128.56	3.52034e-06
2137.24	5.60698e-06
2145.92	2.59458e-06
2154.6	9.76318e-07
2163.28	4.27451e-07
2171.96	2.89205e-09
2180.63	1.1966e-07
2189.31	-6.76158e-08
2197.99	-1.25242e-07
2206.67	-1.6257e-07
2215.35	-1.04529e-07
2224.02	-1.07755e-07
2232.7	-5.76664e-08
2241.38	-1.87165e-08
2250.06	1.14791e-08
2258.74	-1.41747e-08
2267.42	-4.81281e-09
2276.09	-1.67921e-08
2284.77	7.11372e-09
2293.45	-7.76125e-09
2302.13	1.7225e-08
2310.81	5.47998e-08
2319.48	1.97933e-07
2328.16	1.68885e-07
2336.84	2.23394e-07
2345.52	1.89515e-07
2354.2	6.97594e-07
2362.88	1.59149e-06
2371.55	6.19341e-07
2380.23	-1.2554e-08
2388.91	2.4988e-08
2397.59	1.69521e-08
2406.27	9.13179e-08
2414.94	1.39921e-07
2423.62	4.55855e-07
2432.3	1.31034e-06
2440.98	3.15078e-06
2449.66	6.25464e-06
2458.34	5.23133e-06
2467.01	2.10154e-06
2475.69	9.20016e-07
2484.37	3.45758e-07
2493.05	3.99396e-07
2501.73	4.39708e-07
2510.4	5.7578e-07
2519.08	5.97001e-07
2527.76	4.63881e-07
2536.44	4.54912e-07
2545.12	4.28427e-07
2553.8	2.94263e-07
2562.47	1.19884e-07
2571.15	3.2431e-09
2579.83	-3.96884e-08
2588.51	-2.94043e-08
2597.19	-2.39058e-08
2605.86	5.85595e-08
2614.54	5.83867e-10
2623.22	-2.8564e-08
2631.9	-1.59063e-08
2640.58	2.38567e-08
2649.26	8.47935e-08
2657.93	1.18432e-07
2666.61	2.46446e-07
2675.29	1.50407e-07
2683.97	6.47838e-08
2692.65	-4.21257e-09
2701.32	-7.16137e-08
2710	4.33262e-08
2718.68	5.19296e-09
2727.36	-2.6636e-08
2736.04	-2.74563e-08
2744.71	-2.57538e-08
2753.39	-7.61392e-09
2762.07	-5.68224e-09
2770.75	-5.01434e-08
2779.43	4.25259e-08
2788.11	-2.83785e-08
2796.78	2.53662e-07
2805.46	4.38049e-07
2814.14	6.52094e-07
2822.82	1.17438e-06
2831.5	1.0723e-06
2840.17	9.63269e-07
2848.85	1.05636e-06
2857.53	1.57332e-06
2866.21	2.43797e-06
2874.89	2.54057e-06
2883.57	2.16745e-06
2892.24	2.21062e-06
2900.92	1.75711e-06
2909.6	1.07773e-06
2918.28	4.84479e-07
2926.96	2.70027e-07
2935.63	4.35757e-06
2944.31	1.08779e-05
2952.99	6.09919e-06
2961.67	1.05178e-05
2970.35	1.49394e-06
2979.03	7.53752e-07
2987.7	1.02484e-06
2996.38	4.61384e-06
3005.06	4.2415e-05
3013.74	8.08888e-05
3022.42	3.9349e-05
3031.09	2.23989e-06
3039.77	1.81897e-07
3048.45	2.08608e-07
3057.13	1.41412e-07
3065.81	6.51475e-08
3074.49	-3.25037e-09
3083.16	1.67466e-08
3091.84	6.04275e-08
3100.52	2.71762e-08
3109.2	-4.70004e-08
3117.88	3.7242e-08
3126.55	-4.31516e-08
3135.23	-6.47528e-09
3143.91	8.07592e-10
3152.59	7.58881e-08
3161.27	1.12679e-07
3169.95	2.447e-07
3178.62	3.98512e-07
3187.3	4.30543e-07
3195.98	3.67009e-07
3204.66	6.23992e-08
3213.34	1.58895e-07
3222.01	1.00849e-07
3230.69	5.89596e-08
3239.37	4.04054e-07
3248.05	8.51694e-07
3256.73	8.43566e-07
3265.41	2.28308e-07
3274.08	7.60027e-08
3282.76	2.99595e-07
3291.44	8.75084e-07
3300.12	7.98204e-07
3308.8	3.05684e-07
3317.47	2.57393e-08
3326.15	-1.86037e-08
3334.83	1.52453e-07
3343.51	9.36919e-07
3352.19	2.10976e-06
3360.87	1.89723e-06
3369.54	9.39269e-07
3378.22	8.80002e-08
3386.9	-2.59139e-08
3395.58	-5.42323e-08
3404.26	-1.30317e-07
3412.93	-2.04772e-08
3421.61	-1.14711e-07
3430.29	-1.54261e-08
3438.97	-3.40553e-08
3447.65	-3.80077e-08
3456.33	2.24852e-08
3465	-4.41302e-08
3473.68	1.32652e-07
3482.36	7.26396e-08
3491.04	2.31419e-08
3499.72	1.39473e-07
3508.39	1.06675e-07
3517.07	1.21577e-07
3525.75	3.3196e-07
3534.43	4.33791e-07
3543.11	3.7193e-07
3551.79	1.29544e-07
3560.46	1.1118e-07
3569.14	4.75606e-08
3577.82	-1.71704e-08
3586.5	-4.22949e-08
3595.18	-7.73324e-08
3603.85	-3.69546e-08
3612.53	-1.97838e-07
3621.21	-3.25365e-08
3629.89	-2.39562e-07
3638.57	-4.82009e-08
3647.25	-1.47276e-08
3655.92	-5.54546e-08
3664.6	-3.49884e-08
3673.28	2.18632e-08
3681.96	3.1427e-08
3690.64	-1.1159e-08
3699.31	-9.78041e-08
3707.99	-9.15125e-08
3716.67	-2.63977e-08
3725.35	3.50811e-08
3734.03	6.26902e-08
3742.71	8.3493e-08
3751.38	-1.9786e-08
3760.06	-1.79078e-07
3768.74	-9.33023e-08
3777.42	-1.60378e-07
3786.1	-1.22727e-07
3794.77	-1.1227e-07
3803.45	4.75642e-09
3812.13	-6.67536e-10
3820.81	-1.43286e-07
3829.49	1.0666e-07
3838.17	-7.64284e-08
3846.84	-7.09517e-08
3855.52	-1.03037e-07
3864.2	-8.81293e-08
3872.88	-4.70058e-08
3881.56	-5.12548e-08
3890.23	-7.20212e-08
3898.91	-6.94911e-08
3907.59	3.71601e-08
3916.27	9.49484e-08
3924.95	5.59676e-08
3933.63	1.68072e-07
3942.3	2.8126e-07
3950.98	4.58048e-07
3959.66	3.85683e-07
3968.34	4.08288e-07
