Infrared Spectrum: 1,1,1-Trichloroethane
Formula: C H3 C Cl3
CAS: 71-55-6
State: gas
Melting point: -30.41 C
Boiling point: 74.1 C
Class: IUPAC A
Instrument: IFS66V (Bruker)
Instrument parameters: KBr Beam Splitter; MCT Detector; Multipass cell
Sampling: 1 L/min Flow
Resolution: 0.2410
Temperature: 23 C
Pressure: 101.3 Pa
Origin: NIST, Analytical Chemistry Division, 301-975-3108
cm-1	(micromol/mol)-1m-1 (base 10)
575.05	3.19045e-06
583.608	1.22535e-06
592.165	7.82443e-07
600.723	-8.09105e-08
609.281	-6.54171e-07
617.838	4.33579e-07
626.396	2.62293e-09
634.954	-3.36437e-07
643.511	2.47701e-07
652.069	-1.40525e-07
660.626	7.82545e-07
669.184	3.73683e-06
677.742	1.34468e-05
686.299	3.32939e-05
694.857	3.51754e-05
703.415	8.32277e-05
711.972	0.000396029
720.53	0.00163648
729.088	0.00182033
737.645	0.000173246
746.203	3.4177e-05
754.761	1.82503e-05
763.318	1.67494e-05
771.876	6.88993e-06
780.434	4.69711e-06
788.991	4.03839e-06
797.549	9.0795e-06
806.106	9.08618e-06
814.664	5.21194e-06
823.222	4.25889e-06
831.779	3.53213e-06
840.337	2.35622e-06
848.895	1.98085e-06
857.452	4.21132e-06
866.01	6.24777e-06
874.568	3.73509e-06
883.125	9.67056e-07
891.683	3.97328e-07
900.241	-2.64657e-08
908.798	1.02538e-07
917.356	1.71647e-07
925.914	1.32689e-07
934.471	2.7182e-07
943.029	8.88812e-07
951.586	2.32507e-06
960.144	3.93452e-06
968.702	2.59063e-06
977.259	1.51477e-06
985.817	2.56412e-06
994.375	7.98014e-06
1002.93	1.32728e-05
1011.49	1.75251e-05
1020.05	7.89307e-06
1028.61	2.23576e-06
1037.16	3.02836e-06
1045.72	6.77057e-06
1054.28	2.29686e-05
1062.84	8.99998e-05
1071.39	0.000213388
1079.95	0.000387911
1088.51	0.000880173
1097.07	0.00058861
1105.62	8.38039e-05
1114.18	3.62179e-05
1122.74	1.05495e-05
1131.3	1.49201e-06
1139.85	4.55967e-07
1148.41	2.74796e-07
1156.97	2.0198e-07
1165.53	1.56517e-07
1174.09	2.31334e-08
1182.64	1.7331e-07
1191.2	4.30582e-07
1199.76	5.08298e-07
1208.32	5.05886e-07
1216.87	8.71313e-07
1225.43	1.46118e-06
1233.99	4.13606e-06
1242.55	8.72108e-06
1251.1	9.76099e-06
1259.66	2.57801e-06
1268.22	1.23781e-06
1276.78	6.50307e-07
1285.33	4.25456e-07
1293.89	6.58624e-07
1302.45	7.08667e-07
1311.01	9.41081e-07
1319.57	6.80487e-07
1328.12	4.51151e-07
1336.68	4.04193e-07
1345.24	2.82057e-07
1353.8	6.1291e-07
1362.35	2.13346e-06
1370.91	2.16279e-05
1379.47	3.42892e-05
1388.03	2.48802e-05
1396.58	3.87156e-05
1405.14	3.92426e-06
1413.7	9.40262e-06
1422.26	1.39932e-05
1430.81	1.43045e-05
1439.37	2.39422e-05
1447.93	3.18648e-05
1456.49	5.34819e-05
1465.05	2.40975e-05
1473.6	7.96124e-06
1482.16	1.26195e-06
1490.72	2.71664e-07
1499.28	1.24624e-07
1507.83	7.25652e-08
1516.39	7.1954e-08
1524.95	4.53464e-08
1533.51	8.00447e-08
1542.06	-2.94743e-07
1550.62	5.29569e-08
1559.18	-9.80123e-08
1567.74	-1.43188e-08
1576.29	-3.35185e-07
1584.85	-4.02061e-08
1593.41	1.34431e-07
1601.97	9.70956e-09
1610.53	-8.98161e-08
1619.08	-1.80196e-07
1627.64	-4.07154e-08
1636.2	-2.65203e-08
1644.76	-8.5025e-08
1653.31	-8.55889e-07
1661.87	7.24924e-08
1670.43	1.45487e-07
1678.99	5.89485e-08
1687.54	1.50911e-07
1696.1	1.06892e-07
1704.66	2.55784e-07
1713.22	4.62181e-07
1721.77	8.10881e-07
1730.33	9.51777e-07
1738.89	6.00264e-07
1747.45	2.98177e-07
1756.01	1.8275e-07
1764.56	2.40454e-07
1773.12	2.68077e-07
1781.68	7.04025e-07
1790.24	1.38217e-06
1798.79	1.47158e-06
1807.35	4.57761e-07
1815.91	2.59422e-07
1824.47	1.96803e-07
1833.02	2.32487e-07
1841.58	8.50468e-08
1850.14	1.81422e-08
1858.7	3.14569e-08
1867.25	-4.07445e-10
1875.81	-2.99035e-09
1884.37	1.1212e-08
1892.93	4.81403e-08
1901.49	3.20997e-07
1910.04	5.84341e-07
1918.6	3.84759e-07
1927.16	1.00468e-07
1935.72	2.72573e-07
1944.27	1.26413e-07
1952.83	9.61897e-08
1961.39	8.24421e-08
1969.95	-2.20093e-08
1978.5	7.96591e-08
1987.06	-3.40544e-08
1995.62	-5.28223e-09
2004.18	6.30084e-08
2012.73	-9.94675e-08
2021.29	8.35553e-08
2029.85	-3.20244e-08
2038.41	1.35024e-07
2046.97	2.21948e-08
2055.52	8.66912e-09
2064.08	-4.42914e-08
2072.64	5.57799e-08
2081.2	9.59896e-08
2089.75	1.80811e-07
2098.31	6.19644e-07
2106.87	1.67396e-06
2115.43	1.90714e-06
2123.98	2.66348e-06
2132.54	4.06857e-06
2141.1	2.91926e-06
2149.66	1.32086e-06
2158.21	7.13399e-07
2166.77	1.89567e-07
2175.33	3.67755e-08
2183.89	2.79718e-08
2192.45	-6.63735e-08
2201	-1.30495e-07
2209.56	-2.34062e-07
2218.12	-1.24351e-07
2226.68	-2.07684e-07
2235.23	-3.75395e-08
2243.79	-1.26657e-07
2252.35	2.33117e-08
2260.91	-1.5381e-08
2269.46	-4.16212e-08
2278.02	3.72848e-08
2286.58	4.80276e-08
2295.14	4.06062e-08
2303.69	1.25107e-08
2312.25	-3.1999e-08
2320.81	2.59739e-07
2329.37	1.25293e-07
2337.93	3.44582e-07
2346.48	2.56763e-08
2355.04	1.14448e-07
2363.6	2.25375e-07
2372.16	-1.49154e-08
2380.71	1.45134e-07
2389.27	2.92378e-08
2397.83	8.88484e-08
2406.39	1.09323e-07
2414.94	2.08197e-07
2423.5	4.27217e-07
2432.06	1.25652e-06
2440.62	3.0003e-06
2449.17	5.74189e-06
2457.73	5.19224e-06
2466.29	2.23492e-06
2474.85	9.63825e-07
2483.41	3.02881e-07
2491.96	3.35946e-07
2500.52	3.86912e-07
2509.08	6.10731e-07
2517.64	5.28503e-07
2526.19	4.08238e-07
2534.75	4.75663e-07
2543.31	3.87837e-07
2551.87	3.4874e-07
2560.42	1.33078e-07
2568.98	2.54908e-08
2577.54	-4.78347e-08
2586.1	-4.23452e-09
2594.65	6.83561e-09
2603.21	3.61607e-09
2611.77	7.79711e-08
2620.33	6.73521e-08
2628.89	-6.56277e-08
2637.44	-5.30188e-08
2646	-3.89983e-08
2654.56	1.35497e-07
2663.12	1.7136e-07
2671.67	1.35403e-07
2680.23	1.77526e-07
2688.79	3.10568e-08
2697.35	1.30208e-07
2705.9	-5.82173e-08
2714.46	4.96319e-08
2723.02	-4.63869e-08
2731.58	-4.81985e-08
2740.13	-1.12418e-07
2748.69	1.65925e-07
2757.25	-1.30324e-07
2765.81	4.90534e-08
2774.37	1.96374e-08
2782.92	-1.27177e-07
2791.48	3.30576e-08
2800.04	3.47481e-07
2808.6	6.0387e-07
2817.15	9.61803e-07
2825.71	9.79043e-07
2834.27	1.19513e-06
2842.83	1.02939e-06
2851.38	1.30188e-06
2859.94	1.87547e-06
2868.5	2.56761e-06
2877.06	2.45596e-06
2885.61	2.1174e-06
2894.17	2.36915e-06
2902.73	1.65683e-06
2911.29	9.48666e-07
2919.85	2.31196e-07
2928.4	2.94623e-07
2936.96	6.0059e-06
2945.52	9.08306e-06
2954.08	6.75059e-06
2962.63	9.5482e-06
2971.19	1.17368e-06
2979.75	5.82726e-07
2988.31	9.62374e-07
2996.86	4.99899e-06
3005.42	4.42889e-05
3013.98	8.01328e-05
3022.54	3.8924e-05
3031.09	1.92822e-06
3039.65	2.33746e-07
3048.21	1.22539e-07
3056.77	5.67985e-08
3065.33	1.26552e-07
3073.88	2.92851e-08
3082.44	-1.22517e-07
3091	-5.88721e-08
3099.56	1.19869e-08
3108.11	-7.51226e-09
3116.67	-1.31899e-07
3125.23	8.76043e-08
3133.79	2.88522e-08
3142.34	8.76734e-08
3150.9	-6.67918e-08
3159.46	-1.65088e-08
3168.02	1.7455e-07
3176.57	2.17124e-07
3185.13	4.07816e-07
3193.69	4.49372e-07
3202.25	3.11703e-07
3210.81	6.66973e-08
3219.36	4.19195e-08
3227.92	-1.0842e-07
3236.48	2.04384e-07
3245.04	4.70995e-07
3253.59	7.24742e-07
3262.15	5.17535e-07
3270.71	-4.14757e-08
3279.27	4.89334e-08
3287.82	7.31454e-07
3296.38	1.10212e-06
3304.94	3.37346e-07
3313.5	1.15991e-07
3322.05	-9.39633e-08
3330.61	-6.5886e-08
3339.17	5.54107e-07
3347.73	1.4148e-06
3356.29	3.32556e-06
3364.84	1.57487e-06
3373.4	4.30178e-07
3381.96	-1.98771e-07
3390.52	-1.09868e-07
3399.07	-1.28374e-07
3407.63	-2.05159e-07
3416.19	-2.45595e-07
3424.75	-8.87247e-08
3433.3	2.51634e-08
3441.86	-1.23514e-07
3450.42	-2.92913e-07
3458.98	1.03025e-07
3467.53	-1.73251e-07
3476.09	3.10495e-08
3484.65	-3.18826e-08
3493.21	1.83496e-08
3501.77	1.3533e-09
3510.32	2.23342e-07
3518.88	2.72071e-07
3527.44	4.08118e-07
3536	3.67184e-07
3544.55	3.41151e-07
3553.11	2.60645e-07
3561.67	1.29913e-07
3570.23	1.22306e-07
3578.78	5.30006e-08
3587.34	-1.33453e-07
3595.9	-1.89171e-10
3604.46	-1.44788e-07
3613.01	-8.06377e-08
3621.57	-7.44642e-08
3630.13	-2.24327e-07
3638.69	1.32092e-08
3647.25	-7.8615e-09
3655.8	-1.62469e-08
3664.36	-1.14798e-07
3672.92	-1.87861e-08
3681.48	-3.95367e-08
3690.03	-1.05321e-07
3698.59	1.28018e-08
3707.15	8.31624e-09
3715.71	-1.28953e-07
3724.26	5.02103e-08
3732.82	-1.71854e-08
3741.38	-5.53798e-08
3749.94	-6.16915e-08
3758.49	-7.85022e-08
3767.05	5.73406e-08
3775.61	1.21186e-07
3784.17	-1.36254e-07
3792.73	-2.33571e-07
3801.28	-2.57472e-07
3809.84	-7.28526e-08
3818.4	-7.42095e-08
3826.96	7.99429e-08
3835.51	5.03376e-08
3844.07	-4.50336e-08
3852.63	-2.65021e-08
3861.19	7.84841e-08
3869.74	-1.31208e-07
3878.3	-7.91607e-08
3886.86	-1.15067e-07
3895.42	1.42129e-07
3903.97	-7.92553e-08
3912.53	1.47404e-07
3921.09	4.98138e-08
3929.65	-9.76049e-09
3938.21	9.08566e-08
3946.76	4.25318e-07
3955.32	5.10325e-07
3963.88	3.14013e-07
3972.44	4.29691e-07
