Infrared Spectrum: 1,1,1-Trichloroethane
Formula: C H3 C Cl3
CAS: 71-55-6
State: gas
Melting point: -30.41 C
Boiling point: 74.1 C
Class: IUPAC A
Instrument: IFS66V (Bruker)
Instrument parameters: KBr Beam Splitter; MCT Detector; Multipass cell
Sampling: 1 L/min Flow
Resolution: 0.1250
Temperature: 23 C
Pressure: 101.3 Pa
Origin: NIST, Analytical Chemistry Division, 301-975-3108
cm-1	(micromol/mol)-1m-1 (base 10)
575.05	2.79934e-06
583.608	1.00546e-06
592.165	7.9335e-07
600.723	-6.95275e-08
609.281	-5.71456e-07
617.838	2.77681e-07
626.396	3.9333e-08
634.954	-3.46728e-07
643.511	2.1405e-07
652.069	-1.65073e-07
660.626	7.40858e-07
669.184	3.79338e-06
677.742	1.32783e-05
686.299	3.34033e-05
694.857	3.51464e-05
703.415	8.32282e-05
711.972	0.000396164
720.53	0.00163806
729.088	0.00181961
737.645	0.000173352
746.203	3.41576e-05
754.761	1.82615e-05
763.318	1.67721e-05
771.876	6.9517e-06
780.434	4.75293e-06
788.991	4.03612e-06
797.549	9.03976e-06
806.106	9.09844e-06
814.664	5.16746e-06
823.222	4.27183e-06
831.779	3.55097e-06
840.337	2.3976e-06
848.895	1.94949e-06
857.452	4.24762e-06
866.01	6.2738e-06
874.568	3.68497e-06
883.125	9.36981e-07
891.683	3.72401e-07
900.241	-2.44139e-08
908.798	5.50378e-08
917.356	1.48284e-07
925.914	1.22183e-07
934.471	2.94932e-07
943.029	9.14164e-07
951.586	2.33275e-06
960.144	3.96286e-06
968.702	2.55637e-06
977.259	1.52333e-06
985.817	2.5243e-06
994.375	7.99669e-06
1002.93	1.32454e-05
1011.49	1.75389e-05
1020.05	7.84196e-06
1028.61	2.31669e-06
1037.16	3.03702e-06
1045.72	6.84654e-06
1054.28	2.29658e-05
1062.84	9.00739e-05
1071.39	0.000213289
1079.95	0.000387936
1088.51	0.000879902
1097.07	0.000588365
1105.62	8.38149e-05
1114.18	3.62551e-05
1122.74	1.05364e-05
1131.3	1.49094e-06
1139.85	4.46869e-07
1148.41	2.80799e-07
1156.97	1.94155e-07
1165.53	1.15009e-07
1174.09	1.03316e-08
1182.64	1.22201e-07
1191.2	3.89888e-07
1199.76	4.95726e-07
1208.32	5.23308e-07
1216.87	9.04542e-07
1225.43	1.45728e-06
1233.99	4.17327e-06
1242.55	8.68419e-06
1251.1	9.70821e-06
1259.66	2.57355e-06
1268.22	1.2405e-06
1276.78	6.39586e-07
1285.33	4.48149e-07
1293.89	6.53509e-07
1302.45	7.19413e-07
1311.01	8.97033e-07
1319.57	7.15459e-07
1328.12	4.62599e-07
1336.68	4.15917e-07
1345.24	2.72504e-07
1353.8	7.06837e-07
1362.35	2.10979e-06
1370.91	2.17596e-05
1379.47	3.42539e-05
1388.03	2.47906e-05
1396.58	3.87246e-05
1405.14	3.90848e-06
1413.7	9.37609e-06
1422.26	1.40363e-05
1430.81	1.43125e-05
1439.37	2.39562e-05
1447.93	3.18651e-05
1456.49	5.35095e-05
1465.05	2.41025e-05
1473.6	7.98797e-06
1482.16	1.23562e-06
1490.72	2.84095e-07
1499.28	1.52857e-07
1507.83	9.35886e-08
1516.39	7.71271e-08
1524.95	7.10555e-08
1533.51	4.23997e-08
1542.06	-2.92909e-07
1550.62	7.82985e-08
1559.18	-8.38972e-08
1567.74	-1.96556e-08
1576.29	-3.11e-07
1584.85	-2.17183e-08
1593.41	1.62523e-07
1601.97	2.68732e-08
1610.53	-1.02596e-07
1619.08	-1.8669e-07
1627.64	-5.58527e-08
1636.2	-1.51264e-08
1644.76	-6.0873e-08
1653.31	-8.09978e-07
1661.87	9.65062e-08
1670.43	1.13408e-07
1678.99	5.09852e-08
1687.54	1.56397e-07
1696.1	4.84932e-08
1704.66	2.77786e-07
1713.22	4.65553e-07
1721.77	7.71799e-07
1730.33	9.2841e-07
1738.89	5.91064e-07
1747.45	3.004e-07
1756.01	2.00605e-07
1764.56	2.24739e-07
1773.12	2.36984e-07
1781.68	6.9179e-07
1790.24	1.37528e-06
1798.79	1.46862e-06
1807.35	4.58288e-07
1815.91	2.78001e-07
1824.47	2.06469e-07
1833.02	2.09143e-07
1841.58	4.33092e-08
1850.14	-9.58587e-09
1858.7	1.24925e-08
1867.25	-1.27399e-08
1875.81	-1.26199e-08
1884.37	-1.59376e-08
1892.93	4.44188e-08
1901.49	3.34061e-07
1910.04	5.88016e-07
1918.6	4.07943e-07
1927.16	1.43893e-07
1935.72	2.28969e-07
1944.27	9.18897e-08
1952.83	6.14041e-08
1961.39	7.86405e-08
1969.95	-2.0194e-08
1978.5	5.91632e-08
1987.06	-2.39265e-08
1995.62	-1.94118e-08
2004.18	2.38464e-08
2012.73	-4.11519e-08
2021.29	6.15278e-08
2029.85	-8.63274e-09
2038.41	5.52924e-08
2046.97	-3.52513e-09
2055.52	1.939e-09
2064.08	-3.27193e-08
2072.64	7.314e-08
2081.2	1.2653e-07
2089.75	1.57125e-07
2098.31	6.16995e-07
2106.87	1.69906e-06
2115.43	1.89203e-06
2123.98	2.70978e-06
2132.54	4.06997e-06
2141.1	2.89788e-06
2149.66	1.31359e-06
2158.21	7.08525e-07
2166.77	2.0246e-07
2175.33	4.17595e-08
2183.89	1.01497e-08
2192.45	-1.15081e-07
2201	-1.17697e-07
2209.56	-2.17001e-07
2218.12	-1.2996e-07
2226.68	-1.9621e-07
2235.23	-6.5595e-08
2243.79	-1.02421e-07
2252.35	5.57799e-08
2260.91	-1.51009e-08
2269.46	-7.63595e-08
2278.02	9.75321e-09
2286.58	6.08439e-08
2295.14	4.58557e-08
2303.69	1.7913e-08
2312.25	2.46286e-08
2320.81	2.12759e-07
2329.37	1.27177e-07
2337.93	3.27346e-07
2346.48	6.52603e-08
2355.04	8.80081e-08
2363.6	1.41951e-07
2372.16	3.38943e-08
2380.71	1.4628e-07
2389.27	1.47881e-08
2397.83	7.30636e-08
2406.39	1.07365e-07
2414.94	1.9573e-07
2423.5	4.43911e-07
2432.06	1.24355e-06
2440.62	3.01522e-06
2449.17	5.72126e-06
2457.73	5.19208e-06
2466.29	2.23756e-06
2474.85	9.48848e-07
2483.41	3.22351e-07
2491.96	3.52494e-07
2500.52	4.02803e-07
2509.08	5.81871e-07
2517.64	5.40359e-07
2526.19	3.91482e-07
2534.75	4.9156e-07
2543.31	4.37246e-07
2551.87	3.17469e-07
2560.42	1.60424e-07
2568.98	8.43993e-09
2577.54	-4.99666e-08
2586.1	-2.19111e-08
2594.65	-7.11573e-09
2603.21	3.86345e-09
2611.77	6.02691e-08
2620.33	1.54938e-08
2628.89	-3.88164e-08
2637.44	-2.83974e-08
2646	-6.22081e-09
2654.56	1.48281e-07
2663.12	1.69344e-07
2671.67	1.44221e-07
2680.23	1.7973e-07
2688.79	-1.76547e-08
2697.35	6.63917e-08
2705.9	-6.23863e-08
2714.46	3.31194e-08
2723.02	-1.45407e-08
2731.58	-4.90062e-08
2740.13	-5.77153e-08
2748.69	2.06764e-07
2757.25	-1.04106e-07
2765.81	2.67277e-08
2774.37	6.27865e-08
2782.92	-6.82579e-08
2791.48	4.72418e-08
2800.04	3.72437e-07
2808.6	5.44557e-07
2817.15	9.7491e-07
2825.71	9.89229e-07
2834.27	1.21938e-06
2842.83	1.03039e-06
2851.38	1.24943e-06
2859.94	1.81541e-06
2868.5	2.57482e-06
2877.06	2.45053e-06
2885.61	2.14484e-06
2894.17	2.37977e-06
2902.73	1.68741e-06
2911.29	9.4744e-07
2919.85	2.52627e-07
2928.4	3.51014e-07
2936.96	5.97388e-06
2945.52	9.11935e-06
2954.08	6.79343e-06
2962.63	9.51618e-06
2971.19	1.25585e-06
2979.75	5.91999e-07
2988.31	9.64964e-07
2996.86	5.00461e-06
3005.42	4.42909e-05
3013.98	8.00347e-05
3022.54	3.89108e-05
3031.09	2.01798e-06
3039.65	1.81993e-07
3048.21	1.03276e-07
3056.77	7.75382e-08
3065.33	1.31601e-07
3073.88	1.82259e-08
3082.44	-1.16715e-07
3091	-5.85702e-08
3099.56	3.66809e-08
3108.11	2.50069e-08
3116.67	-1.26399e-07
3125.23	4.71363e-08
3133.79	2.31298e-08
3142.34	6.24882e-08
3150.9	-2.12744e-08
3159.46	-1.73637e-08
3168.02	1.56324e-07
3176.57	2.45595e-07
3185.13	4.16889e-07
3193.69	3.97772e-07
3202.25	3.13787e-07
3210.81	6.18952e-08
3219.36	5.58745e-08
3227.92	-9.22317e-08
3236.48	1.56175e-07
3245.04	4.76863e-07
3253.59	7.31782e-07
3262.15	5.07825e-07
3270.71	-6.86108e-09
3279.27	2.22749e-08
3287.82	6.87694e-07
3296.38	1.05206e-06
3304.94	3.93439e-07
3313.5	8.73314e-08
3322.05	-7.79347e-08
3330.61	-7.9328e-08
3339.17	5.36558e-07
3347.73	1.44279e-06
3356.29	3.37457e-06
3364.84	1.48803e-06
3373.4	4.79592e-07
3381.96	-1.19058e-07
3390.52	-1.63e-07
3399.07	-9.95875e-08
3407.63	-2.91378e-07
3416.19	-2.59189e-07
3424.75	-5.43211e-08
3433.3	3.52185e-08
3441.86	-1.66361e-07
3450.42	-2.79598e-07
3458.98	6.41471e-08
3467.53	-8.10088e-08
3476.09	2.62693e-08
3484.65	2.15509e-08
3493.21	0
3501.77	3.35232e-08
3510.32	1.36607e-07
3518.88	2.93673e-07
3527.44	3.18931e-07
3536	4.10122e-07
3544.55	3.59901e-07
3553.11	2.26074e-07
3561.67	9.79432e-08
3570.23	6.18552e-08
3578.78	2.06669e-08
3587.34	-1.25395e-07
3595.9	-4.63832e-08
3604.46	-1.31139e-07
3613.01	-7.84222e-08
3621.57	-1.12593e-08
3630.13	-2.07331e-07
3638.69	2.46686e-08
3647.25	-9.60406e-09
3655.8	-2.69532e-08
3664.36	-1.09981e-07
3672.92	-1.53156e-08
3681.48	-3.54986e-08
3690.03	-9.68191e-08
3698.59	3.85654e-08
3707.15	-6.32631e-09
3715.71	-1.22117e-07
3724.26	5.76425e-08
3732.82	-4.33056e-08
3741.38	-7.82512e-08
3749.94	-3.30321e-08
3758.49	-8.68367e-08
3767.05	-2.99545e-08
3775.61	9.04782e-08
3784.17	-1.24962e-07
3792.73	-2.35834e-07
3801.28	-3.26953e-07
3809.84	-9.83324e-08
3818.4	-4.7471e-08
3826.96	8.50286e-08
3835.51	1.29618e-08
3844.07	-4.60122e-08
3852.63	-4.71872e-08
3861.19	1.04189e-08
3869.74	-9.24136e-08
3878.3	-5.41465e-08
3886.86	-9.94056e-08
3895.42	1.19771e-07
3903.97	-1.11836e-07
3912.53	1.51624e-07
3921.09	8.79862e-08
3929.65	-6.96149e-08
3938.21	1.13968e-07
3946.76	4.10744e-07
3955.32	4.73444e-07
3963.88	3.46819e-07
3972.44	3.96349e-07
