Infrared Spectrum: 1,1,1-Trichloroethane
Formula: C H3 C Cl3
CAS: 71-55-6
State: gas
Melting point: -30.41 C
Boiling point: 74.1 C
Class: IUPAC A
Instrument: IFS66V (Bruker)
Instrument parameters: KBr Beam Splitter; MCT Detector; Multipass cell
Sampling: 1 L/min Flow
Resolution: 0.2410
Temperature: 23 C
Pressure: 101.3 Pa
Origin: NIST, Analytical Chemistry Division, 301-975-3108
cm-1	(micromol/mol)-1m-1 (base 10)
575.05	3.262e-06
583.608	1.27911e-06
592.165	8.00758e-07
600.723	-7.08352e-08
609.281	-9.4521e-08
617.838	7.81563e-08
626.396	5.82321e-08
634.954	-7.85965e-08
643.511	2.00285e-07
652.069	-5.73681e-08
660.626	7.33481e-07
669.184	3.89264e-06
677.742	1.30648e-05
686.299	3.32232e-05
694.857	3.52312e-05
703.415	8.30444e-05
711.972	0.000397213
720.53	0.00163818
729.088	0.00181655
737.645	0.000173133
746.203	3.43968e-05
754.761	1.83097e-05
763.318	1.68347e-05
771.876	6.7734e-06
780.434	4.67688e-06
788.991	4.21866e-06
797.549	8.97721e-06
806.106	9.02484e-06
814.664	5.08194e-06
823.222	4.33869e-06
831.779	3.41502e-06
840.337	2.34089e-06
848.895	2.00357e-06
857.452	4.23971e-06
866.01	6.28355e-06
874.568	3.64718e-06
883.125	8.14973e-07
891.683	2.85242e-07
900.241	-1.41874e-10
908.798	6.74812e-09
917.356	1.3434e-07
925.914	1.91206e-07
934.471	3.24621e-07
943.029	8.98668e-07
951.586	2.32286e-06
960.144	3.92329e-06
968.702	2.57575e-06
977.259	1.57468e-06
985.817	2.52315e-06
994.375	8.04228e-06
1002.93	1.32434e-05
1011.49	1.75576e-05
1020.05	7.87346e-06
1028.61	2.30635e-06
1037.16	3.06912e-06
1045.72	6.83093e-06
1054.28	2.29378e-05
1062.84	9.00295e-05
1071.39	0.00021344
1079.95	0.000388011
1088.51	0.000879996
1097.07	0.000587961
1105.62	8.37729e-05
1114.18	3.62616e-05
1122.74	1.06206e-05
1131.3	1.44135e-06
1139.85	4.10038e-07
1148.41	3.05659e-07
1156.97	2.33825e-07
1165.53	9.12051e-08
1174.09	1.01513e-08
1182.64	1.10042e-07
1191.2	3.78671e-07
1199.76	5.06127e-07
1208.32	5.49053e-07
1216.87	8.83773e-07
1225.43	1.44055e-06
1233.99	4.18509e-06
1242.55	8.7144e-06
1251.1	9.69208e-06
1259.66	2.61571e-06
1268.22	1.25314e-06
1276.78	6.40464e-07
1285.33	4.98124e-07
1293.89	6.63778e-07
1302.45	7.0328e-07
1311.01	8.65338e-07
1319.57	6.97352e-07
1328.12	4.41523e-07
1336.68	3.88595e-07
1345.24	3.02365e-07
1353.8	4.15075e-07
1362.35	2.0839e-06
1370.91	2.1822e-05
1379.47	3.41979e-05
1388.03	2.47558e-05
1396.58	3.87083e-05
1405.14	3.92004e-06
1413.7	9.39898e-06
1422.26	1.40859e-05
1430.81	1.42459e-05
1439.37	2.39132e-05
1447.93	3.18005e-05
1456.49	5.35782e-05
1465.05	2.41064e-05
1473.6	7.99129e-06
1482.16	1.24536e-06
1490.72	2.95006e-07
1499.28	1.35024e-07
1507.83	1.90912e-08
1516.39	8.13976e-08
1524.95	4.71095e-08
1533.51	5.303e-08
1542.06	-2.87317e-07
1550.62	5.20587e-08
1559.18	-5.45579e-08
1567.74	-4.88738e-09
1576.29	-3.35151e-07
1584.85	4.91103e-10
1593.41	1.0869e-07
1601.97	3.18308e-08
1610.53	-5.54164e-08
1619.08	-1.20564e-07
1627.64	-2.34474e-08
1636.2	-5.38922e-08
1644.76	-6.75721e-08
1653.31	-6.52201e-07
1661.87	5.20751e-08
1670.43	8.56593e-08
1678.99	7.29361e-08
1687.54	1.8874e-07
1696.1	-6.54186e-08
1704.66	2.66583e-07
1713.22	4.85153e-07
1721.77	6.85442e-07
1730.33	9.17562e-07
1738.89	5.48284e-07
1747.45	2.85784e-07
1756.01	2.10825e-07
1764.56	1.97583e-07
1773.12	2.21049e-07
1781.68	7.16961e-07
1790.24	1.37882e-06
1798.79	1.46815e-06
1807.35	4.97975e-07
1815.91	2.93658e-07
1824.47	1.94568e-07
1833.02	1.96698e-07
1841.58	4.30897e-08
1850.14	-9.01447e-09
1858.7	-1.45639e-08
1867.25	-2.88205e-08
1875.81	-2.2598e-08
1884.37	-1.40237e-08
1892.93	8.5481e-08
1901.49	3.31325e-07
1910.04	5.05687e-07
1918.6	3.69515e-07
1927.16	1.54388e-07
1935.72	2.03817e-07
1944.27	8.98373e-08
1952.83	8.71017e-08
1961.39	6.85016e-08
1969.95	-1.17701e-08
1978.5	3.98394e-08
1987.06	-5.35848e-09
1995.62	-2.11411e-08
2004.18	-6.58806e-09
2012.73	-4.22494e-08
2021.29	1.41874e-09
2029.85	2.30273e-09
2038.41	3.22818e-08
2046.97	1.22448e-08
2055.52	-1.75506e-08
2064.08	-3.65781e-08
2072.64	3.84606e-08
2081.2	1.06886e-07
2089.75	2.04985e-07
2098.31	6.3202e-07
2106.87	1.69314e-06
2115.43	1.8297e-06
2123.98	2.70913e-06
2132.54	4.05869e-06
2141.1	2.92637e-06
2149.66	1.27808e-06
2158.21	6.85813e-07
2166.77	1.89369e-07
2175.33	8.26745e-08
2183.89	4.84664e-08
2192.45	-1.05114e-07
2201	-1.51525e-07
2209.56	-1.92307e-07
2218.12	-1.16471e-07
2226.68	-1.54605e-07
2235.23	-2.04808e-08
2243.79	-5.89633e-08
2252.35	4.94341e-08
2260.91	-1.80708e-08
2269.46	-5.27899e-08
2278.02	-1.11171e-08
2286.58	7.58845e-09
2295.14	4.4945e-09
2303.69	-2.72653e-09
2312.25	-6.09695e-09
2320.81	2.2779e-07
2329.37	1.1032e-07
2337.93	5.0238e-07
2346.48	7.78798e-08
2355.04	1.15142e-07
2363.6	1.53091e-07
2372.16	4.83664e-08
2380.71	9.53577e-08
2389.27	-2.85695e-08
2397.83	6.39489e-08
2406.39	8.33547e-08
2414.94	1.54255e-07
2423.5	4.4124e-07
2432.06	1.24296e-06
2440.62	3.04214e-06
2449.17	5.72404e-06
2457.73	5.21788e-06
2466.29	2.22957e-06
2474.85	9.45761e-07
2483.41	3.38557e-07
2491.96	3.45387e-07
2500.52	4.15357e-07
2509.08	5.99217e-07
2517.64	5.75978e-07
2526.19	3.85043e-07
2534.75	4.4664e-07
2543.31	4.32467e-07
2551.87	3.25465e-07
2560.42	1.47907e-07
2568.98	1.43784e-08
2577.54	-3.39952e-08
2586.1	-5.31283e-08
2594.65	-5.80593e-09
2603.21	1.73105e-08
2611.77	3.07831e-08
2620.33	-1.64883e-08
2628.89	-9.85662e-09
2637.44	-4.65638e-08
2646	2.39622e-08
2654.56	1.35639e-07
2663.12	2.00676e-07
2671.67	1.64665e-07
2680.23	1.30677e-07
2688.79	1.41911e-08
2697.35	1.06333e-08
2705.9	-2.69143e-08
2714.46	-3.89608e-09
2723.02	-5.9036e-08
2731.58	-2.86713e-08
2740.13	-3.37079e-08
2748.69	2.11449e-07
2757.25	-3.97411e-08
2765.81	1.91985e-08
2774.37	7.08771e-08
2782.92	-1.21248e-08
2791.48	8.09374e-08
2800.04	3.65271e-07
2808.6	5.09357e-07
2817.15	8.68776e-07
2825.71	1.05316e-06
2834.27	1.23416e-06
2842.83	1.08302e-06
2851.38	1.21165e-06
2859.94	1.79838e-06
2868.5	2.62745e-06
2877.06	2.42556e-06
2885.61	2.19937e-06
2894.17	2.3504e-06
2902.73	1.68937e-06
2911.29	9.118e-07
2919.85	2.99928e-07
2928.4	3.83497e-07
2936.96	5.91549e-06
2945.52	9.08451e-06
2954.08	6.84799e-06
2962.63	9.42641e-06
2971.19	1.26613e-06
2979.75	6.61967e-07
2988.31	9.20767e-07
2996.86	5.06854e-06
3005.42	4.42068e-05
3013.98	7.97287e-05
3022.54	3.88837e-05
3031.09	2.05496e-06
3039.65	1.49683e-07
3048.21	1.30521e-07
3056.77	1.06284e-07
3065.33	8.81839e-08
3073.88	1.26777e-08
3082.44	-1.10815e-07
3091	-5.29482e-09
3099.56	-4.58727e-08
3108.11	3.21945e-09
3116.67	-7.11499e-08
3125.23	2.10811e-09
3133.79	-4.63419e-08
3142.34	6.46164e-08
3150.9	1.56589e-08
3159.46	-2.05045e-08
3168.02	1.44206e-07
3176.57	2.85031e-07
3185.13	3.51541e-07
3193.69	3.62585e-07
3202.25	2.69201e-07
3210.81	6.91437e-08
3219.36	6.8769e-08
3227.92	-6.45491e-08
3236.48	1.99923e-07
3245.04	5.53564e-07
3253.59	7.61037e-07
3262.15	4.24871e-07
3270.71	2.40768e-08
3279.27	1.19342e-07
3287.82	6.61328e-07
3296.38	9.59864e-07
3304.94	3.89154e-07
3313.5	8.24798e-08
3322.05	-9.1809e-08
3330.61	-1.47404e-08
3339.17	4.82902e-07
3347.73	1.39118e-06
3356.29	3.33165e-06
3364.84	1.50003e-06
3373.4	4.32247e-07
3381.96	-1.18283e-07
3390.52	-9.06976e-08
3399.07	-1.48058e-07
3407.63	-1.18445e-07
3416.19	-1.11388e-07
3424.75	-2.72362e-08
3433.3	-2.4446e-09
3441.86	-1.46374e-07
3450.42	-1.43235e-07
3458.98	7.80854e-09
3467.53	-1.02893e-07
3476.09	-4.37082e-09
3484.65	-1.71468e-08
3493.21	3.28693e-08
3501.77	2.83021e-08
3510.32	8.01153e-08
3518.88	1.90655e-07
3527.44	2.69448e-07
3536	4.68392e-07
3544.55	3.94294e-07
3553.11	2.05428e-07
3561.67	5.41396e-08
3570.23	2.61358e-08
3578.78	-1.52624e-08
3587.34	-9.29549e-08
3595.9	-1.01935e-07
3604.46	-1.21366e-07
3613.01	-1.44553e-07
3621.57	8.36694e-11
3630.13	-1.30994e-07
3638.69	-1.42402e-08
3647.25	-1.12353e-08
3655.8	-2.33165e-08
3664.36	-7.92677e-08
3672.92	-1.59936e-08
3681.48	-4.10453e-08
3690.03	-6.06094e-08
3698.59	3.78877e-08
3707.15	-1.82472e-08
3715.71	-6.57132e-08
3724.26	6.60024e-08
3732.82	-6.53713e-09
3741.38	-8.77983e-09
3749.94	-3.80077e-08
3758.49	-1.07473e-07
3767.05	-5.89851e-08
3775.61	2.70689e-08
3784.17	-1.32565e-07
3792.73	-1.35644e-07
3801.28	-4.04343e-07
3809.84	-4.72932e-08
3818.4	-3.6729e-08
3826.96	3.26838e-08
3835.51	1.60245e-09
3844.07	-9.80151e-08
3852.63	-3.61361e-08
3861.19	-4.61455e-08
3869.74	-9.85953e-08
3878.3	-8.75109e-08
3886.86	-5.3101e-08
3895.42	6.42472e-08
3903.97	-1.09742e-07
3912.53	1.21821e-07
3921.09	1.37844e-07
3929.65	2.5681e-08
3938.21	1.33462e-07
3946.76	4.18283e-07
3955.32	4.35155e-07
3963.88	3.774e-07
3972.44	4.57095e-07
