Infrared Spectrum: 1,1,1-Trichloroethane
Formula: C H3 C Cl3
CAS: 71-55-6
State: gas
Melting point: -30.41 C
Boiling point: 74.1 C
Class: IUPAC A
Instrument: IFS66V (Bruker)
Instrument parameters: KBr Beam Splitter; MCT Detector; Multipass cell
Sampling: 1 L/min Flow
Resolution: 1.9290
Temperature: 23 C
Pressure: 101.3 Pa
Origin: NIST, Analytical Chemistry Division, 301-975-3108
cm-1	(micromol/mol)-1m-1 (base 10)
575.652	3.58316e-06
584.33	1.50362e-06
593.008	9.72593e-07
601.687	2.15818e-07
610.365	1.82727e-07
619.043	4.36592e-07
627.721	4.74349e-07
636.399	4.60142e-07
645.077	5.4465e-07
653.756	9.64854e-07
662.434	2.18086e-06
671.112	6.48039e-06
679.79	1.86461e-05
688.468	3.95345e-05
697.147	4.53165e-05
705.825	0.000133509
714.503	0.000660821
723.181	0.00182326
731.859	0.000930197
740.537	0.00010082
749.216	3.73935e-05
757.894	1.71417e-05
766.572	1.31586e-05
775.25	7.68223e-06
783.928	5.0259e-06
792.607	6.53127e-06
801.285	8.13448e-06
809.963	7.73193e-06
818.641	6.08962e-06
827.319	4.1902e-06
835.997	3.04565e-06
844.676	2.40894e-06
853.354	3.05126e-06
862.032	6.08938e-06
870.71	6.79843e-06
879.388	2.06073e-06
888.066	5.82324e-07
896.745	2.77533e-07
905.423	1.82287e-07
914.101	2.57709e-07
922.779	3.85592e-07
931.457	4.58303e-07
940.136	7.85818e-07
948.814	2.01792e-06
957.492	3.47968e-06
966.17	3.39554e-06
974.848	2.3205e-06
983.526	2.16968e-06
992.205	6.50328e-06
1000.88	1.11857e-05
1009.56	1.86414e-05
1018.24	1.35594e-05
1026.92	3.23505e-06
1035.6	3.7425e-06
1044.27	7.18544e-06
1052.95	2.03822e-05
1061.63	7.83447e-05
1070.31	0.000180138
1078.99	0.000337359
1087.66	0.000854561
1096.34	0.000616516
1105.02	0.000101254
1113.7	4.02902e-05
1122.38	1.34342e-05
1131.06	2.80238e-06
1139.73	1.22214e-06
1148.41	8.58588e-07
1157.09	6.8512e-07
1165.77	4.29693e-07
1174.45	3.225e-07
1183.12	3.6973e-07
1191.8	5.66016e-07
1200.48	6.66836e-07
1209.16	7.20499e-07
1217.84	1.07184e-06
1226.52	1.81704e-06
1235.19	4.94579e-06
1243.87	9.17642e-06
1252.55	8.79788e-06
1261.23	2.27493e-06
1269.91	1.2253e-06
1278.58	6.17626e-07
1287.26	6.37974e-07
1295.94	7.54171e-07
1304.62	8.13214e-07
1313.3	8.31396e-07
1321.98	8.07806e-07
1330.65	4.66115e-07
1339.33	4.84089e-07
1348.01	4.18342e-07
1356.69	9.67742e-07
1365.37	6.32657e-06
1374.04	3.6522e-05
1382.72	4.48511e-05
1391.4	5.02097e-05
1400.08	1.57652e-05
1408.76	5.49945e-06
1417.44	1.32283e-05
1426.11	2.08692e-05
1434.79	1.72116e-05
1443.47	3.24132e-05
1452.15	2.73408e-05
1460.83	2.30488e-05
1469.5	1.66992e-05
1478.18	3.33997e-06
1486.86	7.18589e-07
1495.54	2.8184e-07
1504.22	1.28283e-07
1512.9	9.41917e-08
1521.57	-1.66247e-09
1530.25	1.21362e-07
1538.93	-7.05569e-08
1547.61	8.52046e-08
1556.29	4.13963e-08
1564.96	7.11881e-08
1573.64	4.30825e-08
1582.32	1.23341e-07
1591	1.08064e-07
1599.68	7.77853e-08
1608.36	1.43438e-08
1617.03	-1.37729e-07
1625.71	-2.16995e-08
1634.39	-5.02799e-08
1643.07	-8.19778e-09
1651.75	-9.55814e-08
1660.42	5.25535e-08
1669.1	3.46355e-08
1677.78	1.19502e-07
1686.46	1.81301e-07
1695.14	2.04552e-07
1703.82	3.10424e-07
1712.49	4.4975e-07
1721.17	6.40908e-07
1729.85	7.91734e-07
1738.53	5.49213e-07
1747.21	3.49298e-07
1755.88	2.11589e-07
1764.56	1.89639e-07
1773.24	2.37266e-07
1781.92	7.33026e-07
1790.6	1.37367e-06
1799.28	1.37053e-06
1807.95	4.82953e-07
1816.63	3.5283e-07
1825.31	2.34443e-07
1833.99	1.67479e-07
1842.67	5.10929e-08
1851.34	-1.45676e-08
1860.02	-2.71344e-08
1868.7	-4.60545e-08
1877.38	-6.97912e-09
1886.06	2.96899e-08
1894.74	1.47949e-07
1903.41	3.18691e-07
1912.09	3.79835e-07
1920.77	3.07418e-07
1929.45	1.58961e-07
1938.13	9.77877e-08
1946.8	8.02135e-08
1955.48	7.16647e-08
1964.16	7.52734e-08
1972.84	7.43494e-08
1981.52	3.97393e-08
1990.2	-2.77928e-09
1998.87	-1.66848e-08
2007.55	-2.75036e-08
2016.23	-2.84003e-08
2024.91	1.33053e-08
2033.59	4.67603e-08
2042.26	1.45057e-08
2050.94	9.55286e-09
2059.62	2.09501e-08
2068.3	3.23255e-08
2076.98	9.21728e-08
2085.66	1.39446e-07
2094.33	3.61066e-07
2103.01	1.19438e-06
2111.69	1.92595e-06
2120.37	2.18059e-06
2129.05	3.56001e-06
2137.72	5.37615e-06
2146.4	2.31665e-06
2155.08	1.04682e-06
2163.76	4.04472e-07
2172.44	-1.71249e-08
2181.12	7.54625e-08
2189.79	-9.02047e-08
2198.47	-1.61275e-07
2207.15	-1.37522e-07
2215.83	-9.84043e-08
2224.51	-8.94026e-08
2233.18	-5.00052e-08
2241.86	-2.23052e-08
2250.54	1.61882e-10
2259.22	-1.12426e-08
2267.9	-5.74591e-09
2276.58	-1.61518e-09
2285.25	-1.91839e-08
2293.93	6.14061e-09
2302.61	1.78652e-08
2311.29	7.91349e-08
2319.97	2.22308e-07
2328.64	4.41445e-07
2337.32	5.79492e-07
2346	3.05757e-07
2354.68	5.24238e-07
2363.36	7.62854e-07
2372.04	3.46446e-07
2380.71	5.70698e-08
2389.39	1.75124e-08
2398.07	3.78404e-08
2406.75	6.9713e-08
2415.43	1.60649e-07
2424.1	4.91587e-07
2432.78	1.402e-06
2441.46	3.35194e-06
2450.14	7.03863e-06
2458.82	5.09466e-06
2467.5	2.06047e-06
2476.17	9.05052e-07
2484.85	3.7838e-07
2493.53	3.7284e-07
2502.21	4.42591e-07
2510.89	5.98633e-07
2519.56	5.72868e-07
2528.24	4.3603e-07
2536.92	4.72814e-07
2545.6	4.15891e-07
2554.28	2.78088e-07
2562.96	1.27243e-07
2571.63	4.10708e-09
2580.31	-1.67521e-09
2588.99	-2.10938e-08
2597.67	-1.60773e-08
2606.35	4.66857e-08
2615.02	1.39892e-08
2623.7	-1.76451e-08
2632.38	-6.93001e-09
2641.06	1.34144e-08
2649.74	7.09753e-08
2658.42	1.59516e-07
2667.09	2.71187e-07
2675.77	1.807e-07
2684.45	5.87159e-08
2693.13	7.5448e-09
2701.81	-3.76658e-08
2710.48	2.41132e-08
2719.16	5.26935e-09
2727.84	-3.75039e-08
2736.52	-2.9026e-08
2745.2	-5.4878e-08
2753.88	-1.74523e-08
2762.55	4.95541e-08
2771.23	1.82363e-08
2779.91	3.68764e-08
2788.59	3.65035e-08
2797.27	2.73695e-07
2805.94	5.05591e-07
2814.62	6.92575e-07
2823.3	1.11309e-06
2831.98	1.06536e-06
2840.66	9.7968e-07
2849.34	1.17386e-06
2858.01	1.61818e-06
2866.69	2.46205e-06
2875.37	2.49268e-06
2884.05	2.23755e-06
2892.73	2.21784e-06
2901.4	1.73161e-06
2910.08	1.06187e-06
2918.76	4.7872e-07
2927.44	4.56258e-07
2936.12	5.01726e-06
2944.8	1.01858e-05
2953.47	8.36188e-06
2962.15	9.72976e-06
2970.83	1.58842e-06
2979.51	8.53195e-07
2988.19	1.25816e-06
2996.86	5.89116e-06
3005.54	4.27443e-05
3014.22	6.82698e-05
3022.9	3.53933e-05
3031.58	2.33329e-06
3040.26	3.43985e-07
3048.93	2.71926e-07
3057.61	1.38124e-07
3066.29	8.75346e-08
3074.97	8.21615e-08
3083.65	2.96644e-08
3092.32	6.80632e-08
3101	8.34693e-09
3109.68	-3.25219e-09
3118.36	1.05933e-08
3127.04	2.56829e-09
3135.72	-1.69158e-10
3144.39	-4.87465e-09
3153.07	7.68722e-08
3161.75	1.29602e-07
3170.43	2.13615e-07
3179.11	3.89376e-07
3187.78	5.02053e-07
3196.46	3.38505e-07
3205.14	1.30561e-07
3213.82	1.45345e-07
3222.5	8.03372e-08
3231.18	8.31838e-08
3239.85	4.29269e-07
3248.53	8.39155e-07
3257.21	7.56579e-07
3265.89	2.36597e-07
3274.57	1.0936e-07
3283.24	3.7782e-07
3291.92	8.46303e-07
3300.6	8.44657e-07
3309.28	3.49858e-07
3317.96	2.67651e-08
3326.64	-2.06263e-09
3335.31	1.51949e-07
3343.99	1.05911e-06
3352.67	2.2344e-06
3361.35	1.81252e-06
3370.03	8.73681e-07
3378.7	1.10886e-07
3387.38	-4.24113e-08
3396.06	-5.40559e-08
3404.74	-8.53464e-08
3413.42	-6.76103e-08
3422.1	-9.79769e-08
3430.77	-6.64881e-08
3439.45	-8.23161e-08
3448.13	-4.18183e-08
3456.81	-2.05445e-08
3465.49	1.73669e-08
3474.16	1.16681e-07
3482.84	5.996e-08
3491.52	4.25186e-08
3500.2	1.01809e-07
3508.88	3.15197e-08
3517.56	1.03843e-07
3526.23	2.84445e-07
3534.91	4.52621e-07
3543.59	4.22176e-07
3552.27	1.67077e-07
3560.95	5.35975e-08
3569.62	3.10341e-08
3578.3	-2.8353e-08
3586.98	-6.00528e-08
3595.66	-4.30497e-08
3604.34	-5.34557e-08
3613.02	-1.09189e-07
3621.69	-1.4393e-08
3630.37	-9.38898e-08
3639.05	-5.21897e-08
3647.73	-5.21097e-08
3656.41	-1.04181e-07
3665.08	-2.52791e-08
3673.76	-9.53467e-09
3682.44	-1.59881e-09
3691.12	-6.42745e-08
3699.8	-4.92213e-08
3708.48	-7.7818e-08
3717.15	-5.0298e-08
3725.83	-6.63353e-09
3734.51	2.9799e-08
3743.19	-6.70265e-09
3751.87	-1.50292e-07
3760.54	-7.73778e-08
3769.22	-1.08861e-07
3777.9	-1.11764e-07
3786.58	-6.82961e-08
3795.26	-7.20412e-08
3803.94	-3.60742e-08
3812.61	-5.70589e-09
3821.29	-7.65084e-08
3829.97	8.53573e-08
3838.65	-5.39722e-08
3847.33	-7.77216e-08
3856	-6.41672e-08
3864.68	-1.24778e-07
3873.36	-6.97384e-08
3882.04	-6.17862e-08
3890.72	-6.28503e-08
3899.4	-7.19757e-08
3908.07	2.33529e-08
3916.75	9.68346e-08
3925.43	1.24616e-07
3934.11	1.98604e-07
3942.79	2.89594e-07
3951.46	4.30517e-07
3960.14	3.85057e-07
3968.82	3.58265e-07
