Infrared Spectrum: 1,1,1-Trichloroethane
Formula: C H3 C Cl3
CAS: 71-55-6
State: gas
Melting point: -30.41 C
Boiling point: 74.1 C
Class: IUPAC A
Instrument: IFS66V (Bruker)
Instrument parameters: KBr Beam Splitter; MCT Detector; Multipass cell
Sampling: 1 L/min Flow
Resolution: 0.2410
Temperature: 23 C
Pressure: 101.3 Pa
Origin: NIST, Analytical Chemistry Division, 301-975-3108
cm-1	(micromol/mol)-1m-1 (base 10)
575.05	3.25213e-06
583.608	1.33552e-06
592.165	8.73461e-07
600.723	-3.52248e-08
609.281	-1.65096e-07
617.838	2.15243e-07
626.396	9.56923e-08
634.954	-5.44251e-08
643.511	2.77628e-07
652.069	3.69109e-08
660.626	8.46618e-07
669.184	4.0237e-06
677.742	1.33503e-05
686.299	3.34947e-05
694.857	3.57924e-05
703.415	8.42952e-05
711.972	0.000398909
720.53	0.00163144
729.088	0.00180501
737.645	0.000176033
746.203	3.54812e-05
754.761	1.88175e-05
763.318	1.68442e-05
771.876	7.01101e-06
780.434	4.82836e-06
788.991	4.30713e-06
797.549	9.0439e-06
806.106	9.06098e-06
814.664	5.184e-06
823.222	4.38384e-06
831.779	3.4644e-06
840.337	2.37659e-06
848.895	2.02995e-06
857.452	4.2617e-06
866.01	6.29202e-06
874.568	3.69029e-06
883.125	8.58404e-07
891.683	3.23761e-07
900.241	1.93622e-08
908.798	4.73351e-08
917.356	1.54874e-07
925.914	2.07848e-07
934.471	3.36982e-07
943.029	9.21413e-07
951.586	2.34555e-06
960.144	3.93387e-06
968.702	2.60313e-06
977.259	1.60415e-06
985.817	2.57992e-06
994.375	8.05972e-06
1002.93	1.32574e-05
1011.49	1.75663e-05
1020.05	7.98087e-06
1028.61	2.39327e-06
1037.16	3.18897e-06
1045.72	7.00711e-06
1054.28	2.32262e-05
1062.84	9.0258e-05
1071.39	0.000213001
1079.95	0.000388155
1088.51	0.000875822
1097.07	0.000585208
1105.62	8.47814e-05
1114.18	3.6582e-05
1122.74	1.08523e-05
1131.3	1.60677e-06
1139.85	5.25926e-07
1148.41	3.69622e-07
1156.97	2.80678e-07
1165.53	1.521e-07
1174.09	5.52709e-08
1182.64	1.47807e-07
1191.2	4.16404e-07
1199.76	5.29083e-07
1208.32	5.61243e-07
1216.87	9.13079e-07
1225.43	1.46204e-06
1233.99	4.19447e-06
1242.55	8.70412e-06
1251.1	9.68713e-06
1259.66	2.62943e-06
1268.22	1.26547e-06
1276.78	6.57665e-07
1285.33	4.99175e-07
1293.89	6.7144e-07
1302.45	7.20048e-07
1311.01	8.84329e-07
1319.57	7.08503e-07
1328.12	4.54459e-07
1336.68	4.06357e-07
1345.24	3.0745e-07
1353.8	4.87345e-07
1362.35	2.17158e-06
1370.91	2.1846e-05
1379.47	3.43484e-05
1388.03	2.55251e-05
1396.58	3.86302e-05
1405.14	4.04067e-06
1413.7	9.42816e-06
1422.26	1.41194e-05
1430.81	1.43777e-05
1439.37	2.39303e-05
1447.93	3.17781e-05
1456.49	5.31733e-05
1465.05	2.40599e-05
1473.6	8.03469e-06
1482.16	1.27991e-06
1490.72	3.08958e-07
1499.28	1.44543e-07
1507.83	3.86007e-08
1516.39	8.48826e-08
1524.95	6.02783e-08
1533.51	5.76737e-08
1542.06	-2.7242e-07
1550.62	5.46561e-08
1559.18	-6.98203e-08
1567.74	-3.12123e-09
1576.29	-3.07936e-07
1584.85	-2.01534e-09
1593.41	1.17983e-07
1601.97	2.86659e-08
1610.53	-4.79862e-08
1619.08	-1.24658e-07
1627.64	-1.79289e-08
1636.2	-5.12384e-08
1644.76	-7.10044e-08
1653.31	-6.62611e-07
1661.87	5.16768e-08
1670.43	9.71602e-08
1678.99	7.19921e-08
1687.54	1.84444e-07
1696.1	-6.40798e-09
1704.66	2.70991e-07
1713.22	4.82567e-07
1721.77	7.04835e-07
1730.33	9.13644e-07
1738.89	5.58e-07
1747.45	2.91923e-07
1756.01	2.07622e-07
1764.56	2.01627e-07
1773.12	2.23272e-07
1781.68	7.18777e-07
1790.24	1.37226e-06
1798.79	1.46806e-06
1807.35	4.9346e-07
1815.91	2.92461e-07
1824.47	2.02986e-07
1833.02	2.0467e-07
1841.58	4.61055e-08
1850.14	-4.07979e-09
1858.7	-1.08952e-08
1867.25	-2.18486e-08
1875.81	-1.61464e-08
1884.37	-1.24758e-08
1892.93	8.31674e-08
1901.49	3.31183e-07
1910.04	5.25846e-07
1918.6	3.69448e-07
1927.16	1.43817e-07
1935.72	2.11582e-07
1944.27	9.71147e-08
1952.83	8.58084e-08
1961.39	7.48295e-08
1969.95	-8.89078e-09
1978.5	4.93722e-08
1987.06	-8.61067e-09
1995.62	-1.21903e-08
2004.18	3.21582e-09
2012.73	-4.79789e-08
2021.29	1.5186e-08
2029.85	-9.78568e-10
2038.41	4.80171e-08
2046.97	1.24504e-08
2055.52	-1.45494e-08
2064.08	-3.25929e-08
2072.64	4.46958e-08
2081.2	1.08963e-07
2089.75	2.0638e-07
2098.31	6.28548e-07
2106.87	1.68781e-06
2115.43	1.86047e-06
2123.98	2.70881e-06
2132.54	4.06064e-06
2141.1	2.93677e-06
2149.66	1.29112e-06
2158.21	6.97614e-07
2166.77	1.85197e-07
2175.33	7.58863e-08
2183.89	4.38046e-08
2192.45	-1.02038e-07
2201	-1.45052e-07
2209.56	-1.96292e-07
2218.12	-1.18534e-07
2226.68	-1.53728e-07
2235.23	-1.90002e-08
2243.79	-6.4149e-08
2252.35	4.34208e-08
2260.91	-1.81708e-08
2269.46	-5.02635e-08
2278.02	-1.82981e-09
2286.58	1.28142e-08
2295.14	9.52012e-09
2303.69	4.1671e-09
2312.25	4.24895e-09
2320.81	2.33499e-07
2329.37	1.49923e-07
2337.93	4.13145e-07
2346.48	9.49684e-08
2355.04	1.51442e-07
2363.6	2.02793e-07
2372.16	7.63047e-08
2380.71	9.90009e-08
2389.27	-1.64283e-08
2397.83	6.45218e-08
2406.39	8.93371e-08
2414.94	1.69012e-07
2423.5	4.4373e-07
2432.06	1.24272e-06
2440.62	3.03958e-06
2449.17	5.75424e-06
2457.73	5.19954e-06
2466.29	2.23016e-06
2474.85	9.55208e-07
2483.41	3.33279e-07
2491.96	3.51195e-07
2500.52	4.11395e-07
2509.08	5.98611e-07
2517.64	5.70709e-07
2526.19	3.94379e-07
2534.75	4.56204e-07
2543.31	4.28198e-07
2551.87	3.29899e-07
2560.42	1.52569e-07
2568.98	1.04732e-08
2577.54	-3.69309e-08
2586.1	-4.43557e-08
2594.65	-2.34274e-09
2603.21	1.67739e-08
2611.77	3.78095e-08
2620.33	-1.65884e-09
2628.89	-1.97223e-08
2637.44	-4.5638e-08
2646	1.79289e-08
2654.56	1.31306e-07
2663.12	2.00164e-07
2671.67	1.62544e-07
2680.23	1.40179e-07
2688.79	1.41801e-08
2697.35	3.44481e-08
2705.9	-3.41207e-08
2714.46	3.20672e-09
2723.02	-4.71004e-08
2731.58	-3.47046e-08
2740.13	-3.98994e-08
2748.69	1.96936e-07
2757.25	-5.96454e-08
2765.81	1.82181e-08
2774.37	6.14206e-08
2782.92	-2.88841e-08
2791.48	7.01113e-08
2800.04	3.6314e-07
2808.6	5.36901e-07
2817.15	8.86023e-07
2825.71	1.04832e-06
2834.27	1.23534e-06
2842.83	1.07107e-06
2851.38	1.23152e-06
2859.94	1.8109e-06
2868.5	2.61904e-06
2877.06	2.43091e-06
2885.61	2.19024e-06
2894.17	2.3579e-06
2902.73	1.68706e-06
2911.29	9.31591e-07
2919.85	2.99324e-07
2928.4	3.96531e-07
2936.96	5.93526e-06
2945.52	9.13102e-06
2954.08	6.98377e-06
2962.63	9.41358e-06
2971.19	1.28564e-06
2979.75	6.73006e-07
2988.31	9.76584e-07
2996.86	5.15218e-06
3005.42	4.39949e-05
3013.98	7.89347e-05
3022.54	3.87313e-05
3031.09	2.12495e-06
3039.65	1.95643e-07
3048.21	1.47153e-07
3056.77	1.09474e-07
3065.33	1.00994e-07
3073.88	1.62191e-08
3082.44	-9.66054e-08
3091	-8.84895e-09
3099.56	-3.1396e-08
3108.11	2.60103e-10
3116.67	-6.77104e-08
3125.23	1.68848e-08
3133.79	-3.17034e-08
3142.34	7.08189e-08
3150.9	4.4563e-10
3159.46	-1.31597e-08
3168.02	1.45623e-07
3176.57	2.75389e-07
3185.13	3.61339e-07
3193.69	3.83062e-07
3202.25	2.69665e-07
3210.81	7.72214e-08
3219.36	6.74084e-08
3227.92	-6.77868e-08
3236.48	2.06638e-07
3245.04	5.41768e-07
3253.59	7.62734e-07
3262.15	4.42256e-07
3270.71	2.00879e-08
3279.27	1.13277e-07
3287.82	6.68722e-07
3296.38	9.79687e-07
3304.94	3.81247e-07
3313.5	7.88475e-08
3322.05	-9.0423e-08
3330.61	-2.44897e-08
3339.17	5.00343e-07
3347.73	1.3993e-06
3356.29	3.28792e-06
3364.84	1.50482e-06
3373.4	4.31516e-07
3381.96	-1.20126e-07
3390.52	-8.99282e-08
3399.07	-1.35435e-07
3407.63	-1.24842e-07
3416.19	-1.36341e-07
3424.75	-4.70095e-08
3433.3	-5.63859e-11
3441.86	-1.52313e-07
3450.42	-1.72625e-07
3458.98	2.34256e-08
3467.53	-1.13065e-07
3476.09	1.17137e-09
3484.65	-8.34148e-09
3493.21	2.16449e-08
3501.77	2.55465e-08
3510.32	9.45501e-08
3518.88	2.06094e-07
3527.44	2.9068e-07
3536	4.50967e-07
3544.55	3.83324e-07
3553.11	1.9916e-07
3561.67	6.8749e-08
3570.23	4.6331e-08
3578.78	-1.67884e-09
3587.34	-1.04516e-07
3595.9	-8.30764e-08
3604.46	-1.23038e-07
3613.01	-1.30561e-07
3621.57	-1.34744e-08
3630.13	-1.4459e-07
3638.69	-7.87947e-09
3647.25	-1.84036e-08
3655.8	-2.46697e-08
3664.36	-8.35475e-08
3672.92	-1.45239e-08
3681.48	-4.13309e-08
3690.03	-6.94074e-08
3698.59	3.37733e-08
3707.15	-1.22412e-08
3715.71	-7.41656e-08
3724.26	5.52655e-08
3732.82	-8.05773e-09
3741.38	-1.0988e-08
3749.94	-5.20496e-08
3758.49	-1.06049e-07
3767.05	-3.43863e-08
3775.61	3.37133e-08
3784.17	-1.30102e-07
3792.73	-1.45065e-07
3801.28	-3.6245e-07
3809.84	-5.24644e-08
3818.4	-4.05633e-08
3826.96	4.56016e-08
3835.51	1.22212e-08
3844.07	-8.5381e-08
3852.63	-4.59745e-08
3861.19	-2.84621e-08
3869.74	-1.03143e-07
3878.3	-8.37458e-08
3886.86	-6.40362e-08
3895.42	6.4962e-08
3903.97	-1.06415e-07
3912.53	1.27596e-07
3921.09	1.22023e-07
3929.65	1.75069e-08
3938.21	1.30979e-07
3946.76	4.11984e-07
3955.32	4.43668e-07
3963.88	3.64015e-07
3972.44	4.39344e-07
