Infrared Spectrum: PERTHANE
Formula: C18 H20 Cl2
CAS: 72-56-0
State: SOLID (1.25 mg / 300 mg KBr DISC)
Class: COBLENTZ III
Instrument: PERKIN-ELMER 180 (GRATING)
Instrument parameters: GRATINGS: 2000, 1000, 500, 250 CM^-^1; FILTER CHANGE: 2970, 2000, 1485, 1000, 743, 500, 372, 250, 186 CM^-^1.
Sampling: TRANSMISSION
Resolution: 2
Origin: K. K. DEB-NCI FREDERICK CANCER RESEARCH CENTER
1/CM	TRANSMITTANCE
352	0.879
362	0.9063
372	0.9088
382	0.9187
392	0.9193
402	0.9125
412	0.9127
422	0.9211
432	0.9186
442	0.9066
452	0.8299
462	0.915
472	0.9156
482	0.9072
492	0.8803
502	0.7982
512	0.6324
522	0.3605
532	0.8125
542	0.8854
552	0.8905
562	0.8878
572	0.8755
582	0.8238
592	0.5544
602	0.2647
612	0.8798
622	0.9068
632	0.9147
642	0.8939
652	0.8995
662	0.8817
672	0.8613
682	0.8213
692	0.7313
702	0.4018
712	0.6796
722	0.4
732	0.237
742	0.3657
752	0.3892
762	0.3888
772	0.4966
782	0.7428
792	0.7991
802	0.6906
812	0.4184
822	0.3743
832	0.7838
842	0.7912
852	0.6916
862	0.6857
872	0.7707
882	0.4024
892	0.88
902	0.9348
912	0.9386
922	0.9359
932	0.9311
942	0.9159
952	0.8999
962	0.847
972	0.768
982	0.8919
992	0.9087
1002	0.905
1012	0.8826
1022	0.72
1032	0.8773
1042	0.7549
1052	0.8144
1062	0.6229
1072	0.7754
1082	0.8947
1092	0.8974
1102	0.8829
1112	0.8462
1122	0.6648
1132	0.8069
1142	0.8901
1152	0.8905
1162	0.8836
1172	0.8712
1182	0.8173
1192	0.77
1202	0.7383
1212	0.6472
1222	0.7314
1232	0.82
1242	0.7884
1252	0.8278
1262	0.8783
1272	0.8806
1282	0.8689
1292	0.8503
1302	0.8533
1312	0.844
1322	0.802
1332	0.8127
1342	0.8406
1352	0.802
1362	0.8274
1372	0.7386
1382	0.8217
1392	0.8289
1402	0.8179
1412	0.7278
1422	0.416
1432	0.7242
1442	0.6097
1452	0.4414
1462	0.5589
1472	0.8125
1482	0.8241
1492	0.7824
1502	0.6613
1512	0.2474
1522	0.8034
1532	0.8859
1542	0.8857
1552	0.8926
1562	0.8872
1572	0.8694
1582	0.8537
1592	0.8792
1602	0.866
1612	0.8384
1622	0.8544
1632	0.8541
1642	0.8404
1652	0.8264
1662	0.8403
1672	0.8562
1682	0.8546
1692	0.8297
1702	0.8397
1712	0.8521
1722	0.8538
1732	0.8576
1742	0.8576
1752	0.855
1762	0.8523
1772	0.855
1782	0.8381
1792	0.8087
1802	0.8421
1812	0.8607
1822	0.8599
1832	0.8585
1842	0.856
1852	0.8535
1862	0.849
1872	0.8404
1882	0.8278
1892	0.7873
1902	0.7325
1912	0.7845
1922	0.8407
1932	0.845
1942	0.8469
1952	0.8434
1962	0.8403
1972	0.8411
1982	0.8401
1992	0.8394
2002	0.839
2012	0.839
2022	0.8386
2032	0.8371
2042	0.8353
2052	0.833
2062	0.8307
2072	0.8284
2082	0.8262
2092	0.8243
2102	0.8223
2112	0.8209
2122	0.8197
2132	0.8185
2142	0.8172
2152	0.8161
2162	0.8162
2172	0.8164
2182	0.8165
2192	0.8156
2202	0.8141
2212	0.8113
2222	0.8085
2232	0.8058
2242	0.8038
2252	0.8023
2262	0.8007
2272	0.7992
2282	0.7977
2292	0.7935
2302	0.7871
2312	0.7827
2322	0.7849
2332	0.7862
2342	0.7851
2352	0.7837
2362	0.7822
2372	0.7803
2382	0.7783
2392	0.7762
2402	0.774
2412	0.7717
2422	0.7704
2432	0.7712
2442	0.7719
2452	0.7716
2462	0.7701
2472	0.7678
2482	0.7651
2492	0.762
2502	0.7589
2512	0.7563
2522	0.7537
2532	0.7512
2542	0.7492
2552	0.7475
2562	0.7457
2572	0.7439
2582	0.7413
2592	0.7384
2602	0.7356
2612	0.7333
2622	0.7314
2632	0.7295
2642	0.7289
2652	0.7298
2662	0.7306
2672	0.7284
2682	0.7243
2692	0.7202
2702	0.7171
2712	0.7127
2722	0.699
2732	0.7066
2742	0.7061
2752	0.7014
2762	0.6937
2772	0.6846
2782	0.6788
2792	0.6757
2802	0.6723
2812	0.6616
2822	0.6414
2832	0.6178
2842	0.5776
2852	0.4681
2862	0.3527
2872	0.2744
2882	0.4962
2892	0.4709
2902	0.4796
2912	0.4511
2922	0.322
2932	0.2421
2942	0.3583
2952	0.3425
2962	0.1604
2972	0.2406
2982	0.5024
2992	0.5733
3002	0.549
3012	0.4759
3022	0.4968
3032	0.472
3042	0.6131
3052	0.5215
3062	0.6614
3072	0.6783
3082	0.6635
3092	0.6402
3102	0.6832
3112	0.6922
3122	0.6808
3132	0.6697
3142	0.6877
3152	0.6879
3162	0.687
3172	0.6858
3182	0.6845
3192	0.6829
3202	0.6813
3212	0.6797
3222	0.6781
3232	0.6765
3242	0.6748
3252	0.6732
3262	0.6711
3272	0.6689
3282	0.6666
3292	0.6644
3302	0.6617
3312	0.6585
3322	0.6553
3332	0.6521
3342	0.6487
3352	0.6452
3362	0.6418
3372	0.6383
3382	0.6349
3392	0.6314
3402	0.628
3412	0.6246
3422	0.6234
3432	0.6225
3442	0.6216
3452	0.6208
3462	0.6205
3472	0.6203
3482	0.6201
3492	0.62
3502	0.6198
3512	0.62
3522	0.6203
3532	0.6206
3542	0.6208
3552	0.6211
3562	0.6214
3572	0.6219
3582	0.6225
3592	0.623
3602	0.6235
3612	0.624
3622	0.6237
3632	0.6226
3642	0.6216
3652	0.6205
3662	0.6172
3672	0.6133
3682	0.6157
3692	0.6179
3702	0.619
3712	0.6189
3722	0.6178
3732	0.6167
3742	0.6157
3752	0.6146
3762	0.6136
3772	0.6127
3782	0.6117
3792	0.6108
3802	0.6098
3812	0.6088
3822	0.6076
3832	0.6064
3842	0.6053
3852	0.6041
3862	0.6028
3872	0.6009
3882	0.599
3892	0.5972
3902	0.5953
3912	0.5936
3922	0.5918
3932	0.59
3942	0.5919
3952	0.593
3962	0.5912
3972	0.5885
3982	0.586
3992	0.5838
