Infrared Spectrum: PERTHANE
Formula: C18 H20 Cl2
CAS: 72-56-0
State: SOLUTION (4.8 mg / cc CCl4, CS2)
Melting point: 38 C
Class: COBLENTZ II
Instrument: PERKIN-ELMER 180 (GRATING)
Instrument parameters: GRATINGS: 2000, 1000, 500, 250 CM^-^1; FILTER CHANGE: 2970, 2000, 1485, 1000, 743, 500, 372, 250, 186 CM^-^1.
Sampling: TRANSMISSION
Resolution: 2
Origin: K. K. DEB-NCI FREDERICK CANCER RESEARCH CENTER
1/CM	TRANSMITTANCE
402	0.1386
411	0.4298
420	0.7074
429	0.8199
438	0.886
447	0.8846
456	0.8779
465	0.8903
474	0.8962
483	0.8818
492	0.8574
501	0.791
510	0.6938
519	0.6217
528	0.5952
537	0.6989
546	0.6853
555	0.6161
564	0.4556
573	0.5103
582	0.4653
591	0.4904
600	0.6731
609	0.7911
618	0.5812
627	0.7603
636	0.7887
645	0.7354
654	0.6833
663	0.5853
672	0.688
681	0.7403
690	0.6638
699	0.3228
708	0.3694
717	0.3875
726	0.2619
735	0.1243
744	0.3037
753	0.4037
762	0.5258
771	0.413
780	0.2223
789	0.4478
798	0.6324
807	0.4779
816	0.3036
825	0.2298
834	0.3489
843	0.4862
852	0.2346
861	0.3837
870	0.6098
879	0.4866
888	0.6906
897	0.8085
906	0.8703
915	0.8886
924	0.8918
933	0.8792
942	0.8117
951	0.8553
960	0.7998
969	0.7129
978	0.8038
987	0.8635
996	0.8599
1005	0.821
1014	0.7849
1023	0.5179
1032	0.785
1041	0.7745
1050	0.6809
1059	0.5967
1068	0.8013
1077	0.8731
1086	0.8923
1095	0.8954
1104	0.8785
1113	0.8332
1122	0.6333
1131	0.8048
1140	0.8773
1149	0.8936
1158	0.8909
1167	0.8719
1176	0.8118
1185	0.7082
1194	0.656
1203	0.6909
1212	0.6176
1221	0.6698
1230	0.7508
1239	0.7463
1248	0.7637
1257	0.7988
1266	0.8359
1275	0.8244
1284	0.8222
1293	0.7937
1302	0.7745
1311	0.7435
1320	0.7187
1329	0.7291
1338	0.7357
1347	0.7358
1356	0.7591
1365	0.777
1374	0.7536
1383	0.7265
1392	0.7691
1401	0.7721
1410	0.7534
1419	0.5915
1428	0.6269
1437	0.6854
1446	0.6517
1455	0.5319
1464	0.4744
1473	0.6972
1482	0.754
1491	0.7522
1500	0.7359
1509	0.4302
1518	0.2806
1527	0.6984
1536	0.7773
1545	0.7926
1554	0.7992
1563	0.8034
1572	0.7841
1581	0.7816
1590	0.8098
1599	0.8093
1608	0.7989
1617	0.7738
1626	0.8034
1635	0.8104
1644	0.8064
1653	0.8016
1662	0.7983
1671	0.8042
1680	0.8093
1689	0.8024
1698	0.8115
1707	0.8229
1716	0.826
1725	0.8283
1734	0.8288
1743	0.8288
1752	0.8269
1761	0.8238
1770	0.8199
1779	0.8149
1788	0.7896
1797	0.8009
1806	0.8274
1815	0.8311
1824	0.832
1833	0.8321
1842	0.8312
1851	0.8309
1860	0.8301
1869	0.8283
1878	0.8206
1887	0.8011
1896	0.7642
1905	0.7513
1914	0.8074
1923	0.8252
1932	0.8305
1941	0.8325
1950	0.8329
1959	0.8318
1968	0.8302
1977	0.8314
1986	0.834
1995	0.8358
2004	0.8408
2013	0.843
2022	0.843
2031	0.8433
2040	0.8433
2049	0.8433
2058	0.8433
2067	0.8435
2076	0.8442
2085	0.8448
2094	0.8454
2103	0.8459
2112	0.8465
2121	0.8469
2130	0.8475
2139	0.8479
2148	0.8476
2157	0.8473
2166	0.8471
2175	0.8468
2184	0.8466
2193	0.8464
2202	0.8463
2211	0.8462
2220	0.8461
2229	0.846
2238	0.8459
2247	0.8458
2256	0.8457
2265	0.8449
2274	0.8442
2283	0.8435
2292	0.8428
2301	0.8415
2310	0.8397
2319	0.842
2328	0.845
2337	0.8474
2346	0.8482
2355	0.8486
2364	0.8485
2373	0.8482
2382	0.848
2391	0.8477
2400	0.8475
2409	0.8472
2418	0.847
2427	0.8469
2436	0.848
2445	0.849
2454	0.8499
2463	0.8506
2472	0.8504
2481	0.8499
2490	0.8494
2499	0.8493
2508	0.8495
2517	0.8497
2526	0.8498
2535	0.8502
2544	0.851
2553	0.8517
2562	0.8524
2571	0.8521
2580	0.852
2589	0.8509
2598	0.8491
2607	0.8473
2616	0.8446
2625	0.8414
2634	0.8427
2643	0.8459
2652	0.8496
2661	0.8527
2670	0.8541
2679	0.8541
2688	0.8537
2697	0.8524
2706	0.8541
2715	0.8545
2724	0.8487
2733	0.8424
2742	0.8444
2751	0.848
2760	0.8483
2769	0.8471
2778	0.8454
2787	0.8434
2796	0.841
2805	0.8364
2814	0.8289
2823	0.8172
2832	0.8001
2841	0.7756
2850	0.7457
2859	0.6482
2868	0.5075
2877	0.4253
2886	0.5674
2895	0.5448
2904	0.5515
2913	0.5281
2922	0.4215
2931	0.3147
2940	0.3732
2949	0.5287
2958	0.3549
2967	0.1427
2976	0.1689
2985	0.3534
2994	0.538
3003	0.6057
3012	0.5241
3021	0.551
3030	0.5012
3039	0.6314
3048	0.6391
3057	0.5982
3066	0.7075
3075	0.7906
3084	0.7693
3093	0.7333
3102	0.824
3111	0.835
3120	0.8313
3129	0.823
3138	0.8252
3147	0.846
3156	0.8567
3165	0.8592
3174	0.8608
3183	0.8622
3192	0.8638
3201	0.8653
3210	0.8668
3219	0.8677
3228	0.8686
3237	0.8694
3246	0.8703
3255	0.871
3264	0.8717
3273	0.8724
3282	0.8732
3291	0.8737
3300	0.8742
3309	0.8746
3318	0.8751
3327	0.8755
3336	0.876
3345	0.8764
3354	0.8768
3363	0.8771
3372	0.8776
3381	0.8779
3390	0.8783
3399	0.8789
3408	0.8797
3417	0.8805
3426	0.8813
3435	0.8821
3444	0.8827
3453	0.8832
3462	0.8838
3471	0.8843
3480	0.8845
3489	0.8837
3498	0.8828
3507	0.882
3516	0.8816
3525	0.8812
3534	0.881
3543	0.8807
3552	0.8804
3561	0.8801
3570	0.8798
3579	0.8795
3588	0.8793
3597	0.8789
3606	0.8787
3615	0.878
3624	0.8772
3633	0.8764
3642	0.8757
3651	0.8747
3660	0.8736
3669	0.8724
3678	0.8726
3687	0.8736
3696	0.8746
3705	0.8755
3714	0.8764
3723	0.8774
3732	0.8774
3741	0.8772
3750	0.8771
3759	0.8772
3768	0.8784
3777	0.8794
3786	0.8806
3795	0.8816
