Infrared Spectrum: 2-Butenedioic acid (E), di-2-methylpropyl ester
Formula: C12 H20 O4
CAS: 7283-69-4
State: SOLUTION (10% CCl4 FOR 2.7-7.5, 10% CS2 FOR 7.5-26 MICRON) VS SOLVENT
Class: COBLENTZ III
Instrument: DOW KBr FOREPRISM-GRATING
Instrument parameters: BLAZED AT 3.5, 12.0, 20.0 MICRON AND CHANGED AT 5.0, 7.5, 14.9 MICRON
Sampling: TRANSMISSION
Path length: 0.011 CM, 0.011 CM
Resolution: 2
Origin: DOW CHEMICAL COMPANY
1/CM	TRANSMITTANCE
3800	0.8693
3791	0.8697
3782	0.8707
3773	0.8721
3764	0.8732
3755	0.8743
3746	0.8761
3737	0.8778
3728	0.8791
3719	0.8798
3710	0.8805
3701	0.8809
3692	0.8814
3683	0.8808
3674	0.8793
3665	0.8778
3656	0.8788
3647	0.8793
3638	0.8783
3629	0.8761
3620	0.8723
3611	0.8704
3602	0.8716
3593	0.8733
3584	0.8743
3575	0.8752
3566	0.876
3557	0.8766
3548	0.8761
3539	0.8753
3530	0.8746
3521	0.8746
3512	0.8749
3503	0.8768
3494	0.8793
3485	0.8818
3476	0.8839
3467	0.8845
3458	0.8828
3449	0.8778
3440	0.8675
3431	0.8438
3422	0.8318
3413	0.841
3404	0.8578
3395	0.8695
3386	0.8736
3377	0.8742
3368	0.874
3359	0.8727
3350	0.8714
3341	0.8702
3332	0.8691
3323	0.868
3314	0.867
3305	0.8661
3296	0.8623
3287	0.8587
3278	0.8581
3269	0.8577
3260	0.8578
3251	0.8583
3242	0.8586
3233	0.8578
3224	0.8549
3215	0.8518
3206	0.8489
3197	0.8455
3188	0.842
3179	0.8402
3170	0.8392
3161	0.8395
3152	0.8403
3143	0.8413
3134	0.8409
3125	0.8399
3116	0.8385
3107	0.8366
3098	0.8346
3089	0.8314
3080	0.824
3071	0.8117
3062	0.8061
3053	0.806
3044	0.8061
3035	0.8056
3026	0.8022
3017	0.7918
3008	0.774
2999	0.7481
2990	0.5365
2981	0.3584
2972	0.1201
2963	0.0466
2954	0.0318
2945	0.0933
2936	0.1718
2927	0.2026
2918	0.3155
2909	0.3608
2900	0.3462
2891	0.3418
2882	0.3434
2873	0.1915
2864	0.42
2855	0.6269
2846	0.6869
2837	0.7258
2828	0.7488
2819	0.7644
2810	0.7775
2801	0.7901
2792	0.8021
2783	0.8154
2774	0.8187
2765	0.8242
2756	0.8271
2747	0.8268
2738	0.8247
2729	0.8205
2720	0.8142
2711	0.8184
2702	0.8305
2693	0.8381
2684	0.8421
2675	0.8448
2666	0.8439
2657	0.8425
2648	0.8418
2639	0.8418
2630	0.8425
2621	0.8437
2612	0.8456
2603	0.8473
2594	0.8485
2585	0.8461
2576	0.8455
2567	0.8465
2558	0.8485
2549	0.8506
2540	0.8538
2531	0.8563
2522	0.8554
2513	0.8551
2504	0.8561
2495	0.8571
2486	0.8589
2477	0.8608
2468	0.8628
2459	0.8647
2450	0.8667
2441	0.8685
2432	0.8704
2423	0.8723
2414	0.8733
2405	0.8734
2396	0.872
2387	0.8714
2378	0.8714
2369	0.8721
2360	0.8724
2351	0.8716
2342	0.8707
2333	0.871
2324	0.8702
2315	0.8675
2306	0.8639
2297	0.8608
2288	0.8605
2279	0.8631
2270	0.8658
2261	0.8674
2252	0.8689
2243	0.87
2234	0.8712
2225	0.8716
2216	0.8718
2207	0.8721
2198	0.8725
2189	0.8725
2180	0.8721
2171	0.8789
2162	0.8764
2153	0.8732
2144	0.8708
2135	0.8675
2126	0.8674
2117	0.869
2108	0.8706
2099	0.8721
2090	0.873
2081	0.8737
2072	0.8745
2063	0.8752
2054	0.876
2045	0.8767
2036	0.8771
2027	0.8773
2018	0.8775
2009	0.876
2000	0.8753
1991	0.873
1982	0.872
1973	0.8721
1964	0.8723
1955	0.8712
1946	0.867
1937	0.8643
1928	0.8625
1919	0.8615
1910	0.8611
1901	0.8613
1892	0.8607
1883	0.8587
1874	0.8543
1865	0.8444
1856	0.8381
1847	0.8407
1838	0.843
1829	0.8418
1820	0.8342
1811	0.8208
1802	0.806
1793	0.7899
1784	0.7699
1775	0.7439
1766	0.675
1757	0.5694
1748	0.3377
1739	0.0771
1730	0.0105
1721	0.0052
1712	0.0052
1703	0.2167
1694	0.414
1685	0.5097
1676	0.5872
1667	0.6328
1658	0.6189
1649	0.515
1640	0.3436
1631	0.6322
1622	0.7322
1613	0.7801
1604	0.8061
1595	0.8234
1586	0.8324
1577	0.8367
1568	0.8395
1559	0.8417
1550	0.8425
1541	0.8428
1532	0.8374
1523	0.8221
1514	0.8145
1505	0.8032
1496	0.7832
1487	0.7478
1478	0.5912
1469	0.1065
1460	0.3784
1451	0.4938
1442	0.6377
1433	0.6904
1424	0.6828
1415	0.5816
1406	0.3388
1397	0.2629
1388	0.2647
1379	0.1346
1370	0.1555
1361	0.5473
1352	0.5927
1343	0.4197
1334	0.556
1325	0.5324
1316	0.3664
1307	0.0584
1298	0.0149
1289	0.0074
1280	0.0484
1271	0.08
1262	0.0501
1253	0.0181
1244	0.0523
1235	0.1951
1226	0.2456
1217	0.1342
1208	0.1916
1199	0.2042
1190	0.3169
1181	0.22
1172	0.0735
1163	0.0459
1154	0.0233
1145	0.0113
1136	0.3375
1127	0.5375
1118	0.6545
1109	0.6944
1100	0.6956
1091	0.7428
1082	0.7683
1073	0.7807
1064	0.7825
1055	0.7736
1046	0.7358
1037	0.6325
1028	0.2246
1019	0.118
1010	0.0522
1001	0.1237
992	0.3312
983	0.4291
974	0.2434
965	0.5299
956	0.6093
947	0.6066
938	0.5698
929	0.5775
920	0.5737
911	0.6189
902	0.6668
893	0.7201
884	0.7421
875	0.7626
866	0.7745
857	0.7767
848	0.7767
839	0.7707
830	0.7339
821	0.6762
812	0.6806
803	0.7114
794	0.7639
785	0.7608
776	0.4655
767	0.6814
758	0.7887
749	0.8248
740	0.8382
731	0.8478
722	0.856
713	0.8613
704	0.8667
695	0.8708
686	0.8651
677	0.8368
668	0.7269
659	0.7361
650	0.7605
641	0.8015
632	0.8268
623	0.8277
614	0.8343
605	0.8389
596	0.8415
587	0.8467
578	0.849
569	0.8393
560	0.8232
551	0.8294
542	0.833
533	0.827
524	0.8291
515	0.834
506	0.8363
497	0.834
488	0.8278
479	0.8283
470	0.8291
461	0.8281
452	0.8258
443	0.7964
434	0.775
425	0.7715
416	0.7706
407	0.771
398	0.7726
