Infrared Spectrum: Adenine
Formula: C5 H5 N5
CAS: 73-24-5
State: SOLID (1.4 mg / 360 mg KBr DISC)
Class: COBLENTZ II
Instrument: PERKIN-ELMER 180 (GRATING)
Instrument parameters: GRATINGS: 2000, 1000, 500, 250 CM^-^1; FILTER CHANGE: 2970, 2000, 1485, 1000, 743, 500, 372, 250, 186 CM^-^1.
Sampling: TRANSMISSION
Resolution: 2
Origin: K. K. DEB-NCI FREDERICK CANCER RESEARCH CENTER
1/CM	TRANSMITTANCE
408	0.9133
417	0.9106
426	0.9098
435	0.9074
444	0.9076
453	0.9089
462	0.9109
471	0.9079
480	0.9042
489	0.901
498	0.8929
507	0.8738
516	0.8668
525	0.8389
534	0.7576
543	0.4496
552	0.7862
561	0.8305
570	0.8239
579	0.8001
588	0.7673
597	0.7204
606	0.6496
615	0.5654
624	0.4499
633	0.4933
642	0.3689
651	0.3724
660	0.389
669	0.4138
678	0.4579
687	0.5043
696	0.5703
705	0.6099
714	0.5448
723	0.2956
732	0.6717
741	0.727
750	0.7568
759	0.7815
768	0.812
777	0.832
786	0.8321
795	0.7271
804	0.7211
813	0.824
822	0.81
831	0.7739
840	0.6757
849	0.5529
858	0.6529
867	0.599
876	0.5998
885	0.6541
894	0.687
903	0.5682
912	0.3286
921	0.6378
930	0.507
939	0.2261
948	0.513
957	0.7576
966	0.9023
975	0.9097
984	0.8928
993	0.8717
1002	0.8467
1011	0.7709
1020	0.5685
1029	0.6127
1038	0.7684
1047	0.8337
1056	0.8533
1065	0.857
1074	0.8529
1083	0.8402
1092	0.8253
1101	0.8052
1110	0.7646
1119	0.6354
1128	0.5135
1137	0.7551
1146	0.7422
1155	0.6492
1164	0.6961
1173	0.7246
1182	0.7157
1191	0.6978
1200	0.6782
1209	0.6421
1218	0.6
1227	0.5426
1236	0.4635
1245	0.3378
1254	0.3319
1263	0.5289
1272	0.5588
1281	0.5512
1290	0.4712
1299	0.3321
1308	0.1774
1317	0.4322
1326	0.3725
1335	0.31
1344	0.6273
1353	0.6188
1362	0.4587
1371	0.4905
1380	0.6575
1389	0.66
1398	0.6285
1407	0.5521
1416	0.2122
1425	0.5019
1434	0.613
1443	0.5052
1452	0.461
1461	0.5389
1470	0.5337
1479	0.5607
1488	0.568
1497	0.5634
1506	0.5169
1515	0.5837
1524	0.6041
1533	0.5844
1542	0.5529
1551	0.4883
1560	0.4119
1569	0.3253
1578	0.2386
1587	0.13
1596	0.091
1605	0.0952
1614	0.2189
1623	0.397
1632	0.4324
1641	0.3961
1650	0.2912
1659	0.1445
1668	0.1065
1677	0.1722
1686	0.3328
1695	0.4676
1704	0.6302
1713	0.7292
1722	0.7965
1731	0.8209
1740	0.8301
1749	0.8342
1758	0.8566
1767	0.8609
1776	0.8652
1785	0.8692
1794	0.8749
1803	0.8831
1812	0.8889
1821	0.8902
1830	0.8891
1839	0.886
1848	0.8817
1857	0.8769
1866	0.8713
1875	0.8617
1884	0.8457
1893	0.8448
1902	0.8642
1911	0.871
1920	0.8684
1929	0.8651
1938	0.8623
1947	0.8536
1956	0.8505
1965	0.8512
1974	0.8445
1983	0.8371
1992	0.8294
2001	0.8302
2010	0.8393
2019	0.8443
2028	0.8409
2037	0.8326
2046	0.824
2055	0.8165
2064	0.8183
2073	0.8276
2082	0.8265
2091	0.8239
2100	0.8193
2109	0.8127
2118	0.8049
2127	0.7958
2136	0.7855
2145	0.7834
2154	0.7806
2163	0.774
2172	0.7637
2181	0.7535
2190	0.7446
2199	0.7358
2208	0.7279
2217	0.7199
2226	0.7123
2235	0.7048
2244	0.6975
2253	0.689
2262	0.68
2271	0.6707
2280	0.6604
2289	0.6504
2298	0.6436
2307	0.6373
2316	0.6338
2325	0.6265
2334	0.6151
2343	0.6017
2352	0.5886
2361	0.5795
2370	0.5696
2379	0.5591
2388	0.5518
2397	0.5479
2406	0.5464
2415	0.5475
2424	0.5491
2433	0.5454
2442	0.5345
2451	0.5227
2460	0.5081
2469	0.4934
2478	0.4798
2487	0.4682
2496	0.4571
2505	0.4476
2514	0.4386
2523	0.4279
2532	0.417
2541	0.4079
2550	0.399
2559	0.3872
2568	0.3612
2577	0.3586
2586	0.3541
2595	0.3357
2604	0.3455
2613	0.3668
2622	0.3659
2631	0.3526
2640	0.3429
2649	0.3345
2658	0.3247
2667	0.3022
2676	0.2764
2685	0.2672
2694	0.2723
2703	0.2853
2712	0.2898
2721	0.31
2730	0.3088
2739	0.2979
2748	0.2888
2757	0.2893
2766	0.2814
2775	0.2683
2784	0.26
2793	0.2581
2802	0.2599
2811	0.269
2820	0.2794
2829	0.2903
2838	0.3012
2847	0.3301
2856	0.334
2865	0.3355
2874	0.3429
2883	0.3618
2892	0.3598
2901	0.3567
2910	0.361
2919	0.3629
2928	0.3515
2937	0.3265
2946	0.3067
2955	0.2848
2964	0.2708
2973	0.2601
2982	0.2598
2991	0.2768
3000	0.2949
3009	0.2949
3018	0.3012
3027	0.2995
3036	0.2843
3045	0.2603
3054	0.2313
3063	0.2052
3072	0.1859
3081	0.1748
3090	0.1669
3099	0.162
3108	0.1595
3117	0.1597
3126	0.1637
3135	0.1729
3144	0.188
3153	0.2074
3162	0.2328
3171	0.2534
3180	0.2697
3189	0.283
3198	0.3009
3207	0.3192
3216	0.3341
3225	0.3434
3234	0.3431
3243	0.3312
3252	0.3144
3261	0.2951
3270	0.2883
3279	0.2668
3288	0.2535
3297	0.2613
3306	0.2927
3315	0.3491
3324	0.3856
3333	0.4145
3342	0.4144
3351	0.4135
3360	0.4364
3369	0.5688
3378	0.6401
3387	0.6734
3396	0.7024
3405	0.7184
3414	0.7321
3423	0.7441
3432	0.7558
3441	0.7654
3450	0.7705
3459	0.7741
3468	0.7751
3477	0.7745
3486	0.7786
3495	0.787
3504	0.7916
3513	0.7941
3522	0.7962
3531	0.7974
3540	0.7985
3549	0.7991
3558	0.7997
3567	0.7996
3576	0.799
3585	0.7997
3594	0.8008
3603	0.8019
3612	0.8029
3621	0.8036
3630	0.8041
3639	0.8033
3648	0.8016
3657	0.7991
3666	0.7949
3675	0.7928
3684	0.7939
3693	0.796
3702	0.7945
3711	0.793
3720	0.7902
3729	0.7872
3738	0.7841
3747	0.7809
3756	0.7782
3765	0.7754
3774	0.7726
3783	0.7697
