Infrared Spectrum: 3-Ethoxy-4-hydroxyphenethylamine
Formula: C 10 H 15 N O 2
CAS: 74321-37-2
State: gas
Origin: EPA-IR VAPOR PHASE LIBRARY
1/CM	ABSORBANCE
549.8	0.002697
559.445	0.001867
569.09	0.001487
578.734	0.001337
588.379	0.0011911
598.024	0.001757
607.669	0.001687
617.313	0.001597
626.958	0.0009055
636.603	0.0007736
646.248	0.0010863
655.893	0.002337
665.537	0.004627
675.182	0.004917
684.827	0.003497
694.472	0.002687
704.116	0.002287
713.761	0.002537
723.406	0.002237
733.051	0.001837
742.695	0.002017
752.34	0.002027
761.985	0.002587
771.63	0.002337
781.275	0.003297
790.919	0.009407
800.564	0.018637
810.209	0.014967
819.854	0.006777
829.498	0.003067
839.143	0.002277
848.788	0.001857
858.433	0.001367
868.078	0.001267
877.722	0.0012177
887.367	0.0012033
897.012	0.001747
906.657	0.001797
916.301	0.001917
925.946	0.002117
935.591	0.002697
945.236	0.002987
954.88	0.002907
964.525	0.002237
974.17	0.002557
983.815	0.002907
993.46	0.003507
1003.1	0.004037
1012.75	0.004537
1022.39	0.005197
1032.04	0.006377
1041.68	0.008677
1051.33	0.013277
1060.97	0.018077
1070.62	0.020537
1080.26	0.021757
1089.91	0.029737
1099.55	0.044877
1109.2	0.061517
1118.84	0.047787
1128.49	0.017717
1138.13	0.007897
1147.78	0.006177
1157.42	0.007657
1167.07	0.009187
1176.71	0.008897
1186.36	0.009987
1196	0.011467
1205.64	0.011947
1215.29	0.009077
1224.93	0.009657
1234.58	0.014897
1244.22	0.031957
1253.87	0.074607
1263.51	0.109107
1273.16	0.067917
1282.8	0.031737
1292.45	0.020557
1302.09	0.016087
1311.74	0.011317
1321.38	0.007917
1331.03	0.005617
1340.67	0.004407
1350.32	0.003747
1359.96	0.003467
1369.61	0.003697
1379.25	0.004867
1388.9	0.006237
1398.54	0.006407
1408.18	0.006637
1417.83	0.011057
1427.47	0.019907
1437.12	0.025167
1446.76	0.024507
1456.41	0.023217
1466.05	0.042277
1475.7	0.066657
1485.34	0.059517
1494.99	0.030687
1504.63	0.016297
1514.28	0.011367
1523.92	0.009307
1533.57	0.008247
1543.21	0.007717
1552.86	0.007607
1562.5	0.008707
1572.15	0.011797
1581.79	0.018777
1591.44	0.023957
1601.08	0.020737
1610.73	0.013557
1620.37	0.007187
1630.01	0.004127
1639.66	0.002797
1649.3	0.002257
1658.95	0.001867
1668.59	0.001687
1678.24	0.001447
1687.88	0.001397
1697.53	0.001267
1707.17	0.001227
1716.82	0.001327
1726.46	0.001237
1736.11	0.001237
1745.75	0.0011566
1755.4	0.0010996
1765.04	0.0010421
1774.69	0.0010044
1784.33	0.0009605
1793.98	0.0010247
1803.62	0.0010571
1813.27	0.001203
1822.91	0.001277
1832.55	0.001457
1842.2	0.001547
1851.84	0.001547
1861.49	0.001357
1871.13	0.0011934
1880.78	0.0009538
1890.42	0.0009375
1900.07	0.0007562
1909.71	0.0007697
1919.36	0.0009177
1929	0.0010756
1938.65	0.0009519
1948.29	0.0010367
1957.94	0.001057
1967.58	0.0010495
1977.23	0.0010735
1986.87	0.001056
1996.52	0.0011892
2006.16	0.001287
2015.81	0.001407
2025.45	0.0011902
2035.1	0.0010532
2044.74	0.0010096
2054.38	0.0009509
2064.03	0.0008968
2073.67	0.0008818
2083.32	0.0010369
2092.96	0.001297
2102.61	0.001357
2112.25	0.001267
2121.9	0.0010678
2131.54	0.0009701
2141.19	0.0009027
2150.83	0.0009662
2160.48	0.0008454
2170.12	0.0009515
2179.77	0.000835
2189.41	0.0008956
2199.06	0.0008052
2208.7	0.0007649
2218.35	0.0007463
2227.99	0.0008936
2237.64	0.001237
2247.28	0.002287
2256.92	0.002497
2266.57	0.001367
2276.21	0.000967
2285.86	0.0007734
2295.5	0.0006616
2305.15	0.0007071
2314.79	0.0006935
2324.44	0.0008358
2334.08	0.0007582
2343.73	0.0006953
2353.37	0.0005998
2363.02	0.0007093
2372.66	0.0006974
2382.31	0.0007114
2391.95	0.0006148
2401.6	0.0006133
2411.24	0.0005456
2420.89	0.000669
2430.53	0.0006387
2440.18	0.000584
2449.82	0.000532
2459.47	0.000637
2469.11	0.0006209
2478.75	0.0006412
2488.4	0.000826
2498.04	0.000878
2507.69	0.0010934
2517.33	0.001297
2526.98	0.001297
2536.62	0.0011772
2546.27	0.0010581
2555.91	0.0011143
2565.56	0.0011148
2575.2	0.0011
2584.85	0.0010121
2594.49	0.0010519
2604.14	0.0010269
2613.78	0.0008871
2623.43	0.0009409
2633.07	0.000865
2642.72	0.0009119
2652.36	0.000707
2662.01	0.0006578
2671.65	0.0007081
2681.29	0.0006636
2690.94	0.0007456
2700.58	0.0007913
2710.23	0.0009024
2719.87	0.0010736
2729.52	0.001247
2739.16	0.001667
2748.81	0.001657
2758.45	0.001367
2768.1	0.001477
2777.74	0.001647
2787.39	0.001967
2797.03	0.002397
2806.68	0.003077
2816.32	0.004227
2825.97	0.006287
2835.61	0.011977
2845.26	0.017677
2854.9	0.014397
2864.55	0.011757
2874.19	0.012597
2883.84	0.014127
2893.48	0.015567
2903.12	0.018507
2912.77	0.022667
2922.41	0.027247
2932.06	0.032917
2941.7	0.040507
2951.35	0.040047
2960.99	0.030147
2970.64	0.020127
2980.28	0.015137
2989.93	0.015407
2999.57	0.021897
3009.22	0.023887
3018.86	0.016227
3028.51	0.013057
3038.15	0.011467
3047.8	0.010207
3057.44	0.009257
3067.09	0.008307
3076.73	0.007297
3086.38	0.006937
3096.02	0.005607
3105.67	0.003567
3115.31	0.002427
3124.95	0.001897
3134.6	0.001537
3144.24	0.001367
3153.89	0.001407
3163.53	0.001377
3173.18	0.001427
3182.82	0.001267
3192.47	0.0011824
3202.11	0.0010511
3211.76	0.0007269
3221.4	0.0006731
3231.05	0.00059
3240.69	0.0006437
3250.34	0.0005652
3259.98	0.00030769
3269.63	0.0003993
3279.27	0.0005778
3288.92	0.0003477
3298.56	0.0003805
3308.21	0.0004504
3317.85	0.0005228
3327.49	0.0002086
3337.14	0.0004178
3346.78	0.00030744
3356.43	0.0003369
3366.07	0.0003413
3375.72	0.0004396
3385.36	0.0002122
3395.01	0.00024372
3404.65	0.0003329
3414.3	0.0002432
3423.94	0.0001792
3433.59	0.0004529
3443.23	0.0003447
3452.88	0.0003872
3462.52	0.0004157
3472.17	0.0002789
3481.81	0.0003826
3491.46	0.00022258
3501.1	0.00028262
3510.75	0.0003679
3520.39	0.0003515
3530.04	0.00024289
3539.68	0.00030337
3549.32	0.0001575
3558.97	0.0003406
3568.61	0.0001802
3578.26	0.00031724
3587.9	0.00025597
3597.55	0.000124
3607.19	0.000231374
3616.84	0.00022448
3626.48	0.0002398
3636.13	0.0002004
3645.77	0.000347
3655.42	0.00028219
3665.06	0.00026194
3674.71	0.00032551
3684.35	0.0001796
3694	0.0003409
3703.64	0.0004175
3713.29	0.0001774
3722.93	6.4e-05
3732.58	0.000351
3742.22	0.00027451
3751.86	0.0004314
3761.51	0.0004286
3771.15	0.00028278
3780.8	1.7e-05
3790.44	0.00025855
3800.09	0.0003979
3809.73	0.0004093
3819.38	0.0005184
3829.02	0.0004535
3838.67	0.0003371
3848.31	0.0003813
3857.96	0.0004086
3867.6	0.0003597
3877.25	0.0003625
3886.89	0.0004462
3896.54	0.0005484
3906.18	0.0003434
3915.83	0.0004438
3925.47	0.0005205
3935.12	0.0006315
3944.76	0.000373
3954.41	0.0005258
3964.05	0.0004543
3973.69	0.0004952
3983.34	0.0003591
3992.98	0.0004488
