Infrared Spectrum: Sulfur Dioxide
Formula: S O2
CAS: 7446-09-5
State: gas
Melting point: -72.7 C
Boiling point: -10 C
Class: IUPAC A
Instrument: IFS66V (Bruker)
Instrument parameters: KBr Beam splitter; MCT Detector; Multipass cell
Sampling: 1 L/min Flow
Resolution: 0.2410
Temperature: 23 C
Pressure: 101.3 kPa
Origin: NIST, Anayltical Chemistry Division, 301-975-3108
cm-1	(micromol/mol)-1m-1 (base 10)
575.048	1.4006e-05
583.606	8.71496e-06
592.163	8.06413e-06
600.721	3.94708e-06
609.279	1.49595e-06
617.836	8.93132e-07
626.394	5.93584e-07
634.951	7.03654e-08
643.509	-1.80607e-07
652.067	-1.59264e-07
660.624	-3.72862e-07
669.182	1.71022e-07
677.74	3.19613e-08
686.297	1.59215e-07
694.855	1.32649e-07
703.412	-8.35985e-08
711.97	-1.9044e-07
720.528	-2.19926e-07
729.085	-1.08051e-07
737.643	-2.8299e-07
746.201	-2.6068e-07
754.758	-1.80237e-07
763.316	-4.11559e-07
771.873	-2.82277e-07
780.431	-2.27553e-07
788.989	-2.5656e-07
797.546	-2.22492e-07
806.104	-2.83697e-07
814.662	-4.42119e-07
823.219	-3.98746e-07
831.777	-3.08816e-07
840.334	-6.5496e-08
848.892	-2.10514e-07
857.45	-1.77631e-07
866.007	-1.25199e-07
874.565	-3.55567e-07
883.123	-1.83157e-07
891.68	-3.68011e-07
900.238	-9.60585e-08
908.795	-2.3546e-07
917.353	-1.35612e-07
925.911	-2.22429e-07
934.468	-3.17165e-07
943.026	-2.82486e-07
951.584	-1.41002e-07
960.141	-2.31663e-07
968.699	-1.48538e-07
977.256	-1.03454e-07
985.814	-3.68307e-08
994.372	-2.16657e-07
1002.93	-2.56947e-07
1011.49	-2.46474e-07
1020.04	-2.78266e-07
1028.6	-1.77321e-07
1037.16	-4.11326e-07
1045.72	-3.21141e-08
1054.28	1.56887e-07
1062.83	5.49543e-07
1071.39	1.7557e-06
1079.95	3.03072e-06
1088.51	6.51543e-06
1097.06	1.01969e-05
1105.62	1.68136e-05
1114.18	2.01136e-05
1122.74	3.91993e-05
1131.29	4.27101e-05
1139.85	7.55726e-05
1148.41	1.89138e-05
1156.97	4.08805e-05
1165.52	6.43056e-05
1174.08	4.24987e-05
1182.64	3.7056e-05
1191.2	2.07978e-05
1199.75	1.65977e-05
1208.31	8.82983e-06
1216.87	6.50853e-06
1225.43	3.35902e-06
1233.99	1.47852e-06
1242.54	4.57477e-07
1251.1	-3.97993e-09
1259.66	-9.31245e-08
1268.22	-2.47332e-07
1276.77	-1.80894e-07
1285.33	-1.46275e-07
1293.89	3.92063e-08
1302.45	1.36232e-06
1311	7.35344e-06
1319.56	4.6224e-05
1328.12	0.00013771
1336.68	0.000410943
1345.23	0.000636589
1353.79	0.000577587
1362.35	0.000146948
1370.91	0.000684855
1379.46	0.000564889
1388.02	0.000149362
1396.58	1.29611e-05
1405.14	3.54274e-07
1413.7	6.45792e-08
1422.25	-1.95177e-09
1430.81	-1.83328e-07
1439.37	-2.00341e-07
1447.93	-2.72108e-07
1456.48	-1.69594e-07
1465.04	-1.57986e-07
1473.6	-2.84023e-07
1482.16	-1.11489e-07
1490.71	-2.14229e-07
1499.27	-1.89045e-07
1507.83	-1.9199e-07
1516.39	-1.86254e-07
1524.94	-9.21786e-08
1533.5	-1.54737e-07
1542.06	-1.14558e-07
1550.62	-1.80574e-07
1559.18	-1.31556e-07
1567.73	-2.76372e-07
1576.29	-3.02264e-07
1584.85	-2.17603e-07
1593.41	-2.5951e-07
1601.96	-1.65009e-07
1610.52	-1.79522e-07
1619.08	-1.91586e-07
1627.64	-1.94549e-07
1636.19	-1.27105e-07
1644.75	-1.98047e-07
1653.31	-1.83553e-07
1661.87	-1.93865e-07
1670.42	-1.02709e-07
1678.98	-2.02178e-07
1687.54	-1.03973e-07
1696.1	-1.93829e-07
1704.65	-1.986e-07
1713.21	-2.09828e-07
1721.77	-2.15904e-07
1730.33	-1.17182e-07
1738.89	-1.72055e-07
1747.44	-1.23745e-07
1756	-1.9964e-07
1764.56	-1.91471e-07
1773.12	-1.98471e-07
1781.67	-2.29601e-07
1790.23	-1.46148e-07
1798.79	-2.15218e-07
1807.35	-1.75595e-07
1815.9	-2.68056e-07
1824.46	-9.50053e-08
1833.02	-1.78218e-07
1841.58	-8.72146e-08
1850.13	3.58765e-07
1858.69	-5.6754e-08
1867.25	8.17923e-08
1875.81	3.58712e-07
1884.36	3.17841e-07
1892.92	-7.49365e-08
1901.48	-1.76286e-07
1910.04	-1.49813e-07
1918.6	-4.33627e-08
1927.15	-1.37811e-07
1935.71	-1.67344e-07
1944.27	-1.83088e-07
1952.83	-2.05112e-07
1961.38	-1.69036e-07
1969.94	-2.11604e-07
1978.5	-1.93261e-07
1987.06	-1.29371e-07
1995.61	-1.41966e-07
2004.17	-2.20939e-07
2012.73	-9.37284e-08
2021.29	-2.4548e-07
2029.84	-2.0704e-07
2038.4	-1.10147e-07
2046.96	1.09974e-07
2055.52	7.92875e-08
2064.08	-4.24732e-08
2072.63	1.28767e-07
2081.19	-1.15816e-07
2089.75	-2.21708e-07
2098.31	-2.34467e-07
2106.86	-1.74438e-07
2115.42	2.38132e-07
2123.98	3.70544e-08
2132.54	-2.25717e-07
2141.09	-2.04522e-07
2149.65	-1.82891e-07
2158.21	5.69466e-07
2166.77	-2.05625e-07
2175.32	-1.39629e-07
2183.88	-2.22521e-07
2192.44	-1.6385e-07
2201	-2.6839e-07
2209.55	4.29916e-08
2218.11	-2.18718e-07
2226.67	-1.61995e-07
2235.23	-1.93789e-07
2243.79	-6.22491e-08
2252.34	9.89416e-08
2260.9	1.75823e-08
2269.46	4.00992e-07
2278.02	1.9542e-07
2286.57	2.03571e-07
2295.13	1.52205e-07
2303.69	9.3698e-07
2312.25	8.48363e-07
2320.8	1.15989e-06
2329.36	6.04105e-07
2337.92	2.47278e-06
2346.48	2.18323e-07
2355.03	5.57314e-07
2363.59	4.72658e-07
2372.15	4.22749e-08
2380.71	9.05707e-08
2389.26	-2.86788e-07
2397.82	-2.02642e-07
2406.38	-1.66173e-07
2414.94	-2.0402e-07
2423.5	-2.27123e-07
2432.05	-1.041e-07
2440.61	7.29993e-08
2449.17	4.59214e-07
2457.73	1.14594e-06
2466.28	3.38766e-06
2474.84	6.10216e-06
2483.4	1.28672e-05
2491.96	9.65759e-06
2500.51	2.45989e-06
2509.07	1.98229e-05
2517.63	1.07639e-05
2526.19	8.62369e-07
2534.74	-2.20631e-07
2543.3	-1.68297e-07
2551.86	-1.44953e-07
2560.42	-2.17101e-07
2568.98	-2.49213e-07
2577.53	-2.13437e-07
2586.09	-1.08933e-07
2594.65	-2.3459e-07
2603.21	-2.39443e-07
2611.76	-2.14887e-07
2620.32	-1.4601e-07
2628.88	-2.36664e-07
2637.44	-4.7115e-07
2645.99	-5.05404e-07
2654.55	-7.67771e-07
2663.11	-9.75688e-07
2671.67	-1.09671e-06
2680.22	-1.05379e-06
2688.78	-1.16157e-06
2697.34	-1.06182e-06
2705.9	-1.06488e-06
2714.45	-1.15694e-06
2723.01	-1.09194e-06
2731.57	-9.533e-07
2740.13	-1.29564e-06
2748.69	-1.30176e-06
2757.24	-1.42906e-06
2765.8	-1.24136e-06
2774.36	-1.09677e-06
2782.92	-8.03345e-07
2791.47	-3.75008e-07
2800.03	-1.94291e-07
2808.59	-1.33913e-07
2817.15	-2.39634e-07
2825.7	-1.16511e-07
2834.26	-1.05346e-07
2842.82	-8.05226e-08
2851.38	-2.69198e-07
2859.93	-2.37797e-07
2868.49	-1.48369e-07
2877.05	-8.23998e-08
2885.61	-1.78578e-07
2894.16	-1.7253e-07
2902.72	-1.82431e-07
2911.28	-1.98456e-07
2919.84	-1.5995e-07
2928.4	-1.92732e-07
2936.95	-2.45173e-07
2945.51	-1.04448e-07
2954.07	-1.97159e-08
2962.63	-1.48625e-07
2971.18	-1.18994e-07
2979.74	-3.96738e-08
2988.3	-1.12558e-07
2996.86	-2.03644e-07
3005.41	-8.02789e-08
3013.97	-1.72605e-07
3022.53	-2.48693e-07
3031.09	-7.99533e-08
3039.64	-2.30921e-07
3048.2	-1.40182e-07
3056.76	-1.75091e-07
3065.32	-3.18058e-07
3073.88	-2.41793e-07
3082.43	-1.25735e-07
3090.99	-2.20764e-07
3099.55	-9.98129e-08
3108.11	-1.8972e-07
3116.66	-2.35281e-07
3125.22	-1.13744e-07
3133.78	-1.55796e-07
3142.34	-9.63077e-08
3150.89	-1.75475e-07
3159.45	-2.53002e-07
3168.01	-8.71128e-08
3176.57	-1.63848e-07
3185.12	-1.35656e-07
3193.68	-2.50115e-07
3202.24	-5.31815e-08
3210.8	-4.46614e-08
3219.35	-1.59625e-07
3227.91	-1.90946e-07
3236.47	-2.17104e-07
3245.03	-1.33258e-07
3253.59	-6.3517e-08
3262.14	-1.16387e-07
3270.7	-1.67812e-07
3279.26	-1.78815e-07
3287.82	-4.05136e-07
3296.37	-2.10874e-08
3304.93	5.83729e-08
3313.49	-1.40021e-07
3322.05	-8.27927e-08
3330.6	-2.60683e-07
3339.16	-1.39117e-07
3347.72	-1.36685e-07
3356.28	-1.01716e-07
3364.83	-4.06906e-08
3373.39	-1.77132e-07
3381.95	1.80861e-08
3390.51	1.32222e-08
3399.06	-2.80447e-07
3407.62	9.50035e-08
3416.18	-5.28668e-08
3424.74	6.58471e-09
3433.3	-1.76939e-07
3441.85	-1.40371e-08
3450.41	-1.82953e-08
3458.97	-7.59824e-08
3467.53	-3.63254e-07
3476.08	-2.79759e-07
3484.64	-1.35814e-07
3493.2	-1.4062e-07
3501.76	-1.9165e-07
3510.31	-1.20715e-07
3518.87	-2.52329e-07
3527.43	-1.87584e-07
3535.99	-1.72239e-08
3544.54	-2.01356e-07
3553.1	6.82463e-08
3561.66	-2.7272e-07
3570.22	-2.73093e-07
3578.78	-2.11524e-07
3587.33	-1.04773e-08
3595.89	-3.54483e-08
3604.45	4.44777e-08
3613.01	-3.65542e-08
3621.56	-9.16548e-08
3630.12	-2.04e-07
3638.68	2.22927e-07
3647.24	-1.24502e-07
3655.79	-9.948e-09
3664.35	-1.4594e-07
3672.91	-6.19563e-08
3681.47	-4.72007e-08
3690.02	-1.37651e-07
3698.58	-1.22808e-07
3707.14	-1.47399e-07
3715.7	-1.33253e-07
3724.25	-8.90463e-08
3732.81	-1.43014e-07
3741.37	-8.35312e-08
3749.93	-1.2531e-07
3758.49	-1.16602e-07
3767.04	-1.27481e-07
3775.6	-2.53659e-07
3784.16	-1.59421e-07
3792.72	-2.5837e-07
3801.27	-1.5529e-07
3809.83	-1.32629e-07
3818.39	-2.65324e-07
3826.95	-3.78584e-08
3835.5	2.70082e-08
3844.06	8.35639e-09
3852.62	-1.91104e-07
3861.18	4.86286e-08
3869.73	-8.86644e-08
3878.29	-1.31203e-08
3886.85	-4.48433e-08
3895.41	-2.57189e-07
3903.96	-1.47576e-07
3912.52	-2.60569e-08
3921.08	-6.21727e-09
3929.64	-3.22911e-07
3938.2	-2.7603e-08
3946.75	-2.52629e-07
3955.31	-1.02645e-07
3963.87	-1.63708e-07
3972.43	-1.87661e-07
