Infrared Spectrum: Sulfur Dioxide
Formula: S O2
CAS: 7446-09-5
State: gas
Melting point: -72.7 C
Boiling point: -10 C
Class: IUPAC A
Instrument: IFS66V (Bruker)
Instrument parameters: KBr Beam splitter; MCT Detector; Multipass cell
Sampling: 1 L/min Flow
Resolution: 0.1250
Temperature: 23 C
Pressure: 101.3 kPa
Origin: NIST, Anayltical Chemistry Division, 301-975-3108
cm-1	(micromol/mol)-1m-1 (base 10)
574.988	1.25216e-05
583.546	9.34283e-06
592.103	1.04308e-05
600.661	3.7556e-06
609.219	6.82547e-07
617.776	1.53506e-06
626.334	2.93216e-07
634.891	1.37961e-07
643.449	2.96355e-07
652.007	6.90376e-08
660.564	-7.34166e-07
669.122	9.04833e-08
677.68	1.11012e-08
686.237	6.25796e-07
694.795	-6.94305e-08
703.352	2.69937e-09
711.91	-4.05554e-07
720.468	-1.99127e-07
729.025	-6.30822e-08
737.583	-8.06008e-08
746.141	-3.57044e-07
754.698	-3.59176e-08
763.256	-6.99021e-07
771.813	-5.54269e-07
780.371	-2.21275e-07
788.929	-1.31834e-07
797.486	-2.92958e-07
806.044	4.0285e-08
814.602	-3.72007e-07
823.159	-2.2318e-07
831.717	-6.1525e-07
840.274	-1.5636e-08
848.832	-5.01493e-07
857.39	2.05636e-08
865.947	-2.1363e-07
874.505	-4.33585e-07
883.063	-9.83777e-08
891.62	-3.18956e-07
900.178	-1.16266e-07
908.735	-2.65835e-07
917.293	-1.81558e-07
925.851	-1.57225e-07
934.408	-3.19755e-07
942.966	-2.84818e-07
951.524	-1.67857e-07
960.081	-2.24413e-07
968.639	-1.11718e-07
977.196	-1.74715e-07
985.754	6.91322e-08
994.312	-1.67184e-07
1002.87	-3.94291e-07
1011.43	-4.1305e-07
1019.98	-2.31121e-07
1028.54	-7.46619e-08
1037.1	-5.11497e-07
1045.66	-7.93948e-08
1054.22	1.34581e-07
1062.77	2.32497e-07
1071.33	1.73539e-06
1079.89	3.10484e-06
1088.45	6.95134e-06
1097	1.09257e-05
1105.56	1.55207e-05
1114.12	1.78111e-05
1122.68	4.26854e-05
1131.23	4.84086e-05
1139.79	8.28253e-05
1148.35	2.00912e-05
1156.91	4.06924e-05
1165.46	6.10956e-05
1174.02	4.56867e-05
1182.58	3.98804e-05
1191.14	2.31595e-05
1199.69	1.80947e-05
1208.25	6.95312e-06
1216.81	7.39503e-06
1225.37	3.17363e-06
1233.93	1.35886e-06
1242.48	4.68111e-07
1251.04	6.64928e-08
1259.6	-1.05157e-07
1268.16	-2.63472e-07
1276.71	-1.01519e-07
1285.27	-1.1787e-07
1293.83	-3.2145e-08
1302.39	1.25576e-06
1310.94	7.18658e-06
1319.5	4.23743e-05
1328.06	0.000124511
1336.62	0.000442604
1345.17	0.00065092
1353.73	0.0004974
1362.29	0.000153986
1370.85	0.00064498
1379.4	0.000590716
1387.96	0.000162426
1396.52	1.26584e-05
1405.08	3.7039e-07
1413.64	2.04779e-07
1422.19	-8.12102e-08
1430.75	-2.44798e-07
1439.31	-1.33071e-07
1447.87	-2.05055e-07
1456.42	-1.98758e-07
1464.98	-1.51801e-07
1473.54	-3.12323e-07
1482.1	-1.251e-07
1490.65	-2.71445e-07
1499.21	-1.82296e-07
1507.77	-2.35522e-07
1516.33	-1.5483e-07
1524.88	-8.92737e-08
1533.44	-2.02902e-07
1542	-5.56826e-08
1550.56	-2.12242e-07
1559.11	-6.54887e-08
1567.67	-2.71097e-07
1576.23	-3.43918e-07
1584.79	-7.66755e-08
1593.35	-3.03682e-07
1601.9	-1.96486e-07
1610.46	-1.63905e-07
1619.02	-1.81176e-07
1627.58	-1.95215e-07
1636.13	-9.5471e-08
1644.69	-1.37935e-07
1653.25	-1.58235e-07
1661.81	-9.92781e-08
1670.36	-8.95229e-08
1678.92	-2.3395e-07
1687.48	-6.07066e-08
1696.04	-9.3943e-08
1704.59	-1.75881e-07
1713.15	-2.4261e-07
1721.71	-2.4016e-07
1730.27	-8.84461e-08
1738.83	-2.63641e-07
1747.38	-9.05033e-08
1755.94	-2.3134e-07
1764.5	-1.60356e-07
1773.06	-1.64321e-07
1781.61	-2.13114e-07
1790.17	-1.29584e-07
1798.73	-2.43876e-07
1807.29	-1.68305e-07
1815.84	-3.39183e-07
1824.4	-6.11341e-08
1832.96	-1.92639e-07
1841.52	-1.11196e-07
1850.07	2.81504e-07
1858.63	-3.39767e-08
1867.19	1.47474e-07
1875.75	3.05023e-07
1884.3	5.40775e-07
1892.86	-8.32656e-08
1901.42	-2.2064e-07
1909.98	-1.40027e-07
1918.54	-1.81902e-07
1927.09	-1.53958e-07
1935.65	-2.01512e-07
1944.21	-2.68973e-07
1952.77	-2.39922e-07
1961.32	-2.07322e-07
1969.88	-2.565e-07
1978.44	-2.65647e-07
1987	-1.85196e-07
1995.55	-1.07791e-07
2004.11	-2.21221e-07
2012.67	-2.20006e-08
2021.23	-2.15842e-07
2029.78	-2.18638e-07
2038.34	-1.16375e-07
2046.9	5.35289e-08
2055.46	1.50693e-07
2064.01	-5.169e-08
2072.57	1.76557e-07
2081.13	-5.84729e-08
2089.69	-1.55836e-07
2098.25	-1.65156e-07
2106.8	-1.62992e-07
2115.36	-1.16524e-08
2123.92	-4.05141e-08
2132.48	-1.62482e-07
2141.03	-2.08819e-07
2149.59	-1.88264e-07
2158.15	2.37133e-07
2166.71	-2.07286e-07
2175.26	-1.29078e-07
2183.82	-1.85476e-07
2192.38	-9.25624e-08
2200.94	-1.43698e-07
2209.49	1.85994e-07
2218.05	-2.42779e-07
2226.61	-6.75878e-08
2235.17	-1.9812e-07
2243.72	-4.22822e-08
2252.28	1.80958e-07
2260.84	4.68151e-08
2269.4	3.88247e-07
2277.96	1.85299e-07
2286.51	1.75042e-07
2295.07	1.05148e-07
2303.63	9.71253e-07
2312.19	8.17184e-07
2320.74	9.79368e-07
2329.3	6.24281e-07
2337.86	2.63269e-06
2346.42	3.17658e-07
2354.97	5.65625e-07
2363.53	5.16767e-07
2372.09	-7.24973e-08
2380.65	1.61318e-07
2389.2	-2.9703e-07
2397.76	-2.00515e-07
2406.32	-7.60807e-08
2414.88	-2.52975e-07
2423.44	-2.45142e-07
2431.99	-1.37906e-07
2440.55	8.95611e-08
2449.11	4.67823e-07
2457.67	9.64347e-07
2466.22	3.14789e-06
2474.78	5.75873e-06
2483.34	1.4094e-05
2491.9	9.18961e-06
2500.45	2.58822e-06
2509.01	1.99836e-05
2517.57	1.01437e-05
2526.13	8.36398e-07
2534.68	-2.59872e-07
2543.24	-1.60192e-07
2551.8	-1.05761e-07
2560.36	-2.29377e-07
2568.91	-2.72054e-07
2577.47	-2.67874e-07
2586.03	-2.65953e-08
2594.59	-3.26676e-07
2603.15	-1.43819e-07
2611.7	-2.14421e-07
2620.26	-1.45124e-07
2628.82	-1.71042e-07
2637.38	-4.3812e-07
2645.93	-4.93962e-07
2654.49	-6.82916e-07
2663.05	-8.44389e-07
2671.61	-1.14649e-06
2680.16	-1.10902e-06
2688.72	-1.26406e-06
2697.28	-1.14882e-06
2705.84	-1.05401e-06
2714.39	-1.02768e-06
2722.95	-1.12211e-06
2731.51	-1.02345e-06
2740.07	-1.2162e-06
2748.62	-1.2937e-06
2757.18	-1.39406e-06
2765.74	-1.26511e-06
2774.3	-1.0109e-06
2782.86	-8.58826e-07
2791.41	-2.03809e-07
2799.97	-1.45236e-07
2808.53	-2.13257e-07
2817.09	-1.1562e-07
2825.64	-1.91757e-08
2834.2	-4.80738e-08
2842.76	8.16722e-10
2851.32	-2.59558e-07
2859.87	-3.83696e-07
2868.43	-2.95219e-07
2876.99	-1.8051e-07
2885.55	-1.09244e-07
2894.1	-1.9793e-07
2902.66	-1.72305e-07
2911.22	-2.21617e-07
2919.78	-1.21286e-07
2928.34	-2.53146e-07
2936.89	-3.47985e-07
2945.45	1.48793e-08
2954.01	6.81881e-08
2962.57	-6.3597e-08
2971.12	-8.85516e-08
2979.68	-5.39091e-08
2988.24	-3.41532e-07
2996.8	-2.0652e-07
3005.35	-7.52567e-08
3013.91	-2.7046e-07
3022.47	-2.57382e-07
3031.03	5.33216e-08
3039.58	-1.3055e-07
3048.14	-1.17564e-07
3056.7	-1.49653e-07
3065.26	-3.53502e-07
3073.81	-1.68558e-07
3082.37	-2.0883e-07
3090.93	-1.75031e-07
3099.49	-1.24944e-07
3108.05	-1.28174e-07
3116.6	-2.34912e-07
3125.16	-1.24624e-07
3133.72	-3.16775e-08
3142.28	-8.43097e-08
3150.83	-4.07033e-07
3159.39	-2.41813e-07
3167.95	-9.19349e-08
3176.51	-8.66144e-08
3185.06	-2.67079e-07
3193.62	-2.21606e-07
3202.18	-9.60421e-08
3210.74	9.85887e-09
3219.29	-2.49258e-07
3227.85	-2.85274e-07
3236.41	-2.89389e-07
3244.97	-2.99708e-07
3253.52	-1.96912e-07
3262.08	1.26761e-07
3270.64	-2.10531e-07
3279.2	-3.11509e-07
3287.76	-3.42112e-07
3296.31	-2.45362e-08
3304.87	7.46327e-09
3313.43	-1.27621e-07
3321.99	-1.33859e-07
3330.54	-2.93853e-07
3339.1	-1.75783e-07
3347.66	-1.21306e-07
3356.22	2.37122e-08
3364.77	1.35387e-08
3373.33	-9.84796e-09
3381.89	-6.72659e-09
3390.45	7.22881e-08
3399	-2.38588e-07
3407.56	2.18248e-07
3416.12	-2.28082e-08
3424.68	4.70988e-08
3433.23	-1.83559e-07
3441.79	9.68825e-08
3450.35	-2.94051e-07
3458.91	-1.66719e-07
3467.47	-2.94116e-07
3476.02	-2.80587e-07
3484.58	-1.02681e-07
3493.14	-2.37511e-07
3501.7	-2.91402e-07
3510.25	-1.65938e-07
3518.81	-1.48471e-07
3527.37	-5.85766e-08
3535.93	1.19565e-07
3544.48	-1.48472e-07
3553.04	-1.57433e-08
3561.6	-2.02503e-07
3570.16	-1.59259e-07
3578.71	-2.95995e-07
3587.27	-1.82629e-07
3595.83	-2.91e-08
3604.39	1.11756e-07
3612.95	4.69188e-08
3621.5	-5.82565e-08
3630.06	-3.18283e-07
3638.62	1.7022e-07
3647.18	-3.34318e-07
3655.73	-8.68236e-08
3664.29	1.01843e-07
3672.85	1.32893e-07
3681.41	-1.94507e-07
3689.96	-2.21363e-07
3698.52	-1.57964e-07
3707.08	-1.3278e-07
3715.64	-2.21974e-07
3724.19	-2.3815e-07
3732.75	-9.96364e-08
3741.31	-8.13903e-08
3749.87	-1.85749e-07
3758.42	-1.87648e-07
3766.98	-2.30925e-07
3775.54	-1.99813e-07
3784.1	-3.05601e-07
3792.66	-3.13845e-07
3801.21	-1.92976e-08
3809.77	-1.84828e-07
3818.33	-3.33024e-07
3826.89	-1.57475e-07
3835.44	5.61028e-08
3844	-2.41943e-08
3852.56	-2.77345e-07
3861.12	1.12919e-07
3869.67	1.15289e-07
3878.23	-2.10934e-07
3886.79	4.34463e-08
3895.35	-4.00412e-07
3903.9	-1.3646e-08
3912.46	-3.12137e-08
3921.02	1.86173e-07
3929.58	-2.68163e-07
3938.13	-9.51254e-08
3946.69	-4.02517e-07
3955.25	-2.98606e-07
3963.81	-6.72459e-08
3972.37	-1.41744e-07
