Infrared Spectrum: Sulfur Dioxide
Formula: S O2
CAS: 7446-09-5
State: gas
Melting point: -72.7 C
Boiling point: -10 C
Class: IUPAC A
Instrument: IFS66V (Bruker)
Instrument parameters: KBr Beam splitter; MCT Detector; Multipass cell
Sampling: 1 L/min Flow
Resolution: 0.4820
Temperature: 23 C
Pressure: 101.3 kPa
Origin: NIST, Anayltical Chemistry Division, 301-975-3108
cm-1	(micromol/mol)-1m-1 (base 10)
574.928	1.98815e-05
583.606	9.55949e-06
592.284	6.54601e-06
600.962	4.01499e-06
609.641	2.12939e-06
618.319	1.03379e-06
626.997	3.3883e-07
635.675	-1.8101e-07
644.353	1.6926e-07
653.031	-2.36677e-07
661.71	-9.44778e-09
670.388	-1.96554e-07
679.066	-1.77816e-07
687.744	-1.68991e-07
696.422	-3.35826e-07
705.1	-2.14494e-08
713.778	-2.42938e-07
722.457	-1.94333e-07
731.135	-2.61307e-07
739.813	-2.8805e-07
748.491	-3.83868e-07
757.169	-1.91684e-07
765.847	-2.51123e-07
774.526	-1.21495e-07
783.204	-1.2336e-07
791.882	-1.74888e-07
800.56	-3.39574e-07
809.238	-1.88363e-07
817.916	-1.63013e-07
826.594	-3.41659e-07
835.273	-4.35527e-07
843.951	-2.66519e-07
852.629	-2.81536e-07
861.307	-2.77502e-07
869.985	-2.51878e-07
878.663	-2.0993e-07
887.342	-7.4942e-08
896.02	-1.89751e-07
904.698	-7.02817e-08
913.376	-2.34077e-07
922.054	-2.72087e-07
930.732	-1.3465e-07
939.41	-2.03962e-07
948.089	-2.48926e-07
956.767	-2.28213e-07
965.445	-2.34292e-07
974.123	-1.51417e-07
982.801	-2.11051e-07
991.479	-3.02931e-07
1000.16	-2.89849e-07
1008.84	-2.47572e-07
1017.51	-1.02032e-07
1026.19	-2.16679e-07
1034.87	-2.1445e-07
1043.55	-4.99856e-08
1052.23	7.33467e-08
1060.9	4.59598e-07
1069.58	1.37353e-06
1078.26	3.00327e-06
1086.94	5.39177e-06
1095.62	1.00469e-05
1104.3	1.41495e-05
1112.97	2.3075e-05
1121.65	3.71742e-05
1130.33	3.02148e-05
1139.01	5.03475e-05
1147.69	2.47477e-05
1156.36	4.14486e-05
1165.04	5.59988e-05
1173.72	5.67724e-05
1182.4	3.3512e-05
1191.08	2.06954e-05
1199.76	1.77614e-05
1208.43	1.01247e-05
1217.11	5.51919e-06
1225.79	3.21206e-06
1234.47	1.40965e-06
1243.15	4.43751e-07
1251.82	9.77302e-08
1260.5	-1.19773e-07
1269.18	-1.67976e-07
1277.86	-2.31536e-07
1286.54	-1.61336e-07
1295.21	6.97542e-08
1303.89	1.87949e-06
1312.57	1.09072e-05
1321.25	5.4404e-05
1329.93	0.000163459
1338.61	0.000412722
1347.28	0.000626032
1355.96	0.000507319
1364.64	0.000169193
1373.32	0.000752116
1382	0.000476173
1390.67	8.53278e-05
1399.35	4.48053e-06
1408.03	1.08511e-07
1416.71	-4.05614e-08
1425.39	-2.0198e-08
1434.07	-1.0933e-07
1442.74	-2.04324e-07
1451.42	-2.08988e-07
1460.1	-2.3369e-07
1468.78	-2.29875e-07
1477.46	-2.19769e-07
1486.13	-2.40789e-07
1494.81	-2.67337e-07
1503.49	-1.77734e-07
1512.17	-1.80985e-07
1520.85	-1.16824e-07
1529.52	-9.92927e-08
1538.2	-1.21342e-07
1546.88	-1.86154e-07
1555.56	-2.03591e-07
1564.24	-2.12204e-07
1572.92	-2.20597e-07
1581.59	-2.26199e-07
1590.27	-2.29252e-07
1598.95	-2.38399e-07
1607.63	-2.33744e-07
1616.31	-2.22427e-07
1624.98	-2.53982e-07
1633.66	-1.96957e-07
1642.34	-1.9542e-07
1651.02	-1.5981e-07
1659.7	-2.01721e-07
1668.38	-2.13941e-07
1677.05	-9.51436e-08
1685.73	-1.39934e-07
1694.41	-2.19607e-07
1703.09	-2.16781e-07
1711.77	-2.46066e-07
1720.44	-1.53495e-07
1729.12	-1.79644e-07
1737.8	-1.58866e-07
1746.48	-1.67823e-07
1755.16	-1.54591e-07
1763.84	-1.75804e-07
1772.51	-1.92312e-07
1781.19	-1.84692e-07
1789.87	-1.86884e-07
1798.55	-1.29024e-07
1807.23	-1.97176e-07
1815.9	-2.40893e-07
1824.58	-1.45458e-07
1833.26	-1.86716e-07
1841.94	-4.01503e-08
1850.62	9.17675e-09
1859.29	4.15164e-08
1867.97	2.93711e-08
1876.65	1.55305e-07
1885.33	-4.69515e-08
1894.01	3.64045e-07
1902.69	-8.72019e-08
1911.36	-1.86125e-07
1920.04	-1.8334e-07
1928.72	-9.71572e-08
1937.4	-1.66197e-07
1946.08	-1.69691e-07
1954.75	-2.19333e-07
1963.43	-2.07909e-07
1972.11	-1.69856e-07
1980.79	-2.45968e-07
1989.47	-1.80285e-07
1998.15	-1.67746e-07
2006.82	-1.5841e-07
2015.5	-1.4625e-07
2024.18	-2.07868e-07
2032.86	-1.75666e-07
2041.54	-2.39087e-08
2050.21	6.5034e-08
2058.89	-3.93991e-09
2067.57	1.18798e-07
2076.25	6.89448e-08
2084.93	-1.42324e-07
2093.6	-2.01237e-07
2102.28	-1.99895e-07
2110.96	-1.30883e-07
2119.64	3.92054e-07
2128.32	-1.30126e-07
2137	-1.64498e-07
2145.67	-1.88759e-07
2154.35	8.82533e-08
2163.03	-1.49327e-07
2171.71	-2.09652e-07
2180.39	-1.8075e-07
2189.06	-1.45293e-07
2197.74	-2.56374e-07
2206.42	-1.5887e-08
2215.1	-2.52269e-07
2223.78	-2.89603e-07
2232.46	-1.25728e-07
2241.13	-1.04033e-07
2249.81	-8.52174e-08
2258.49	3.68671e-08
2267.17	2.76485e-07
2275.85	4.01423e-07
2284.52	3.92521e-07
2293.2	1.58297e-07
2301.88	7.13979e-07
2310.56	1.25335e-06
2319.24	2.56488e-06
2327.92	5.41157e-07
2336.59	6.21087e-07
2345.27	3.10596e-07
2353.95	8.85185e-07
2362.63	4.68388e-06
2371.31	2.29567e-06
2379.98	-4.37283e-08
2388.66	-3.03195e-07
2397.34	-2.53071e-07
2406.02	-2.74337e-07
2414.7	-2.37937e-07
2423.37	-1.67715e-07
2432.05	-8.65562e-08
2440.73	1.61034e-08
2449.41	4.26158e-07
2458.09	1.57711e-06
2466.77	3.59573e-06
2475.44	8.1311e-06
2484.12	1.43385e-05
2492.8	1.03251e-05
2501.48	2.56343e-06
2510.16	1.97059e-05
2518.83	9.63921e-06
2527.51	4.33025e-07
2536.19	-1.52551e-07
2544.87	-1.79257e-07
2553.55	-1.5177e-07
2562.23	-1.69989e-07
2570.9	-2.10931e-07
2579.58	-1.39498e-07
2588.26	-1.40624e-07
2596.94	-1.44767e-07
2605.62	-1.74808e-07
2614.29	-2.41901e-07
2622.97	-2.3194e-07
2631.65	-2.87191e-07
2640.33	-4.6721e-07
2649.01	-6.49931e-07
2657.68	-9.43092e-07
2666.36	-9.24942e-07
2675.04	-1.16873e-06
2683.72	-1.15895e-06
2692.4	-1.17364e-06
2701.08	-1.18113e-06
2709.75	-1.17265e-06
2718.43	-1.29179e-06
2727.11	-7.35725e-07
2735.79	-1.10394e-06
2744.47	-1.31028e-06
2753.14	-1.3342e-06
2761.82	-1.40414e-06
2770.5	-1.20353e-06
2779.18	-9.2364e-07
2787.86	-3.61544e-07
2796.54	-3.1673e-07
2805.21	-1.50728e-07
2813.89	-2.36386e-07
2822.57	-1.74831e-07
2831.25	-1.81078e-07
2839.93	-1.7537e-07
2848.6	-1.0465e-07
2857.28	-2.01963e-07
2865.96	-9.86942e-08
2874.64	-1.99608e-07
2883.32	-1.73667e-07
2892	-5.30378e-08
2900.67	-9.87215e-08
2909.35	-2.30887e-07
2918.03	-1.90747e-07
2926.71	-1.31996e-07
2935.39	-2.51532e-07
2944.06	-6.03028e-08
2952.74	-1.37222e-07
2961.42	-6.67602e-08
2970.1	-2.15158e-07
2978.78	-1.0119e-07
2987.45	-9.82085e-08
2996.13	-2.77111e-07
3004.81	-2.45486e-07
3013.49	-1.16107e-07
3022.17	-1.21017e-07
3030.85	-8.5061e-08
3039.52	-2.22494e-07
3048.2	-1.55203e-07
3056.88	-2.16397e-07
3065.56	-2.01554e-07
3074.24	-1.35318e-07
3082.91	-1.35345e-07
3091.59	-1.76539e-07
3100.27	-1.84194e-07
3108.95	-1.42206e-07
3117.63	-1.89103e-07
3126.31	-1.54199e-07
3134.98	-1.92266e-07
3143.66	-2.31611e-07
3152.34	-7.40052e-08
3161.02	-2.89327e-07
3169.7	-9.89107e-08
3178.37	-1.51921e-07
3187.05	-1.01374e-07
3195.73	-2.9114e-07
3204.41	-1.73269e-07
3213.09	-2.12153e-07
3221.77	-7.79851e-08
3230.44	-7.78123e-08
3239.12	-2.52327e-07
3247.8	4.00576e-08
3256.48	-1.33895e-07
3265.16	-3.06274e-07
3273.83	-2.07349e-07
3282.51	-1.0515e-07
3291.19	-2.12821e-07
3299.87	-1.77989e-07
3308.55	-1.46048e-07
3317.22	-2.83452e-08
3325.9	-1.18108e-07
3334.58	-1.97368e-07
3343.26	-1.64294e-07
3351.94	-1.65012e-07
3360.62	-2.4565e-07
3369.29	-2.18398e-07
3377.97	-1.39108e-07
3386.65	-1.46977e-07
3395.33	-2.77927e-07
3404.01	-1.6671e-07
3412.68	-2.1916e-07
3421.36	-9.40449e-08
3430.04	-8.78822e-08
3438.72	-2.33293e-07
3447.4	-1.82475e-07
3456.08	-8.15703e-08
3464.75	-7.45218e-08
3473.43	-1.77927e-07
3482.11	-1.51257e-07
3490.79	-2.17823e-07
3499.47	-4.04814e-08
3508.14	-1.93032e-07
3516.82	4.04723e-09
3525.5	-3.02023e-08
3534.18	-1.72407e-07
3542.86	-5.81528e-08
3551.53	-1.47652e-07
3560.21	-1.25939e-07
3568.89	-1.74027e-07
3577.57	1.69965e-08
3586.25	-2.27971e-07
3594.93	-1.19847e-07
3603.6	-2.79941e-08
3612.28	-6.83427e-08
3620.96	-6.50904e-08
3629.64	4.55109e-08
3638.32	9.08199e-08
3646.99	-5.65321e-08
3655.67	-5.00874e-08
3664.35	-1.37317e-07
3673.03	-1.43499e-07
3681.71	2.30483e-08
3690.39	-5.90641e-08
3699.06	-8.17632e-08
3707.74	-5.585e-08
3716.42	-1.15289e-07
3725.1	-8.68545e-08
3733.78	-1.28547e-07
3742.45	-1.27059e-07
3751.13	-1.36167e-07
3759.81	-1.43443e-07
3768.49	-8.63524e-08
3777.17	-1.72567e-07
3785.85	-1.42961e-07
3794.52	-3.87352e-08
3803.2	-1.06141e-07
3811.88	-1.5334e-07
3820.56	-9.40449e-08
3829.24	-1.5352e-07
3837.91	-1.17681e-07
3846.59	-1.04973e-08
3855.27	-1.76505e-07
3863.95	-8.06227e-08
3872.63	-1.3769e-07
3881.3	-1.18687e-07
3889.98	-2.44853e-08
3898.66	-1.98851e-07
3907.34	-2.93178e-07
3916.02	-1.53711e-07
3924.7	-1.48014e-07
3933.37	-2.05195e-07
3942.05	-8.67362e-08
3950.73	-2.33321e-07
3959.41	-9.90071e-08
3968.09	-2.12546e-07
