Infrared Spectrum: Sulfur Dioxide
Formula: S O2
CAS: 7446-09-5
State: gas
Melting point: -72.7 C
Boiling point: -10 C
Class: IUPAC A
Instrument: IFS66V (Bruker)
Instrument parameters: KBr Beam splitter; MCT Detector; Multipass cell
Sampling: 1 L/min Flow
Resolution: 0.2410
Temperature: 23 C
Pressure: 101.3 kPa
Origin: NIST, Anayltical Chemistry Division, 301-975-3108
cm-1	(micromol/mol)-1m-1 (base 10)
575.048	1.28617e-05
583.606	8.27491e-06
592.163	8.26904e-06
600.721	3.83449e-06
609.279	1.50733e-06
617.836	9.39554e-07
626.394	5.54414e-07
634.951	1.03429e-07
643.509	-1.78602e-07
652.067	-1.14128e-07
660.624	-3.71374e-07
669.182	1.56238e-07
677.74	-6.8139e-09
686.297	2.05583e-07
694.855	1.96532e-07
703.412	-1.78078e-08
711.97	-1.83179e-07
720.528	-2.12657e-07
729.085	-1.52569e-07
737.643	-3.02078e-07
746.201	-2.93887e-07
754.758	-1.56038e-07
763.316	-4.60813e-07
771.873	-3.31644e-07
780.431	-2.31663e-07
788.989	-2.25757e-07
797.546	-2.20471e-07
806.104	-2.68598e-07
814.662	-4.62692e-07
823.219	-4.24226e-07
831.777	-3.22905e-07
840.334	-6.10468e-08
848.892	-2.2418e-07
857.45	-1.57167e-07
866.007	-1.12287e-07
874.565	-3.6002e-07
883.123	-1.65773e-07
891.68	-3.67741e-07
900.238	-8.84024e-08
908.795	-2.52062e-07
917.353	-1.6689e-07
925.911	-2.19391e-07
934.468	-3.30396e-07
943.026	-2.98556e-07
951.584	-1.4259e-07
960.141	-2.03227e-07
968.699	-1.13252e-07
977.256	-9.93109e-08
985.814	-1.76423e-08
994.372	-2.22081e-07
1002.93	-2.56127e-07
1011.49	-2.69376e-07
1020.04	-2.78004e-07
1028.6	-1.6602e-07
1037.16	-4.58636e-07
1045.72	1.05574e-08
1054.28	1.53024e-07
1062.83	4.78033e-07
1071.39	1.76589e-06
1079.95	2.98541e-06
1088.51	6.6185e-06
1097.06	1.01304e-05
1105.62	1.64545e-05
1114.18	2.00309e-05
1122.74	3.89425e-05
1131.29	4.35744e-05
1139.85	7.47072e-05
1148.41	1.84645e-05
1156.97	4.0603e-05
1165.52	6.38078e-05
1174.08	4.29964e-05
1182.64	3.76598e-05
1191.2	2.11813e-05
1199.75	1.61048e-05
1208.31	8.3163e-06
1216.87	6.88846e-06
1225.43	3.30745e-06
1233.99	1.47952e-06
1242.54	4.64671e-07
1251.1	-6.1105e-08
1259.66	-1.10085e-07
1268.22	-2.53751e-07
1276.77	-1.731e-07
1285.33	-1.47799e-07
1293.89	2.75848e-08
1302.45	1.36958e-06
1311	7.12755e-06
1319.56	4.7641e-05
1328.12	0.00013836
1336.68	0.000417735
1345.23	0.000628409
1353.79	0.00056057
1362.35	0.000144332
1370.91	0.000685365
1379.46	0.000560246
1388.02	0.000142802
1396.58	1.25066e-05
1405.14	3.37832e-07
1413.7	8.20724e-08
1422.25	-1.73312e-08
1430.81	-1.95335e-07
1439.37	-2.10836e-07
1447.93	-2.62291e-07
1456.48	-1.79471e-07
1465.04	-1.43154e-07
1473.6	-3.00988e-07
1482.16	-1.06951e-07
1490.71	-2.12704e-07
1499.27	-1.87e-07
1507.83	-1.81019e-07
1516.39	-1.85965e-07
1524.94	-7.86618e-08
1533.5	-1.74653e-07
1542.06	-1.01665e-07
1550.62	-1.66711e-07
1559.18	-1.17222e-07
1567.73	-2.86418e-07
1576.29	-3.11398e-07
1584.85	-1.85423e-07
1593.41	-2.82677e-07
1601.96	-1.47372e-07
1610.52	-1.86078e-07
1619.08	-1.83959e-07
1627.64	-1.84285e-07
1636.19	-1.37102e-07
1644.75	-1.95058e-07
1653.31	-1.70175e-07
1661.87	-1.92475e-07
1670.42	-1.01479e-07
1678.98	-2.08741e-07
1687.54	-9.73464e-08
1696.1	-2.04968e-07
1704.65	-2.06458e-07
1713.21	-2.35196e-07
1721.77	-2.274e-07
1730.33	-1.11291e-07
1738.89	-1.60807e-07
1747.44	-1.03254e-07
1756	-2.05952e-07
1764.56	-2.00079e-07
1773.12	-1.90713e-07
1781.67	-2.36093e-07
1790.23	-1.39492e-07
1798.79	-2.39403e-07
1807.35	-1.69107e-07
1815.9	-2.80487e-07
1824.46	-1.04377e-07
1833.02	-1.81942e-07
1841.58	-1.1198e-07
1850.13	4.37348e-07
1858.69	-5.20665e-08
1867.25	8.7744e-08
1875.81	3.73304e-07
1884.36	3.61924e-07
1892.92	-7.99969e-08
1901.48	-1.89267e-07
1910.04	-1.78367e-07
1918.6	-3.64269e-08
1927.15	-1.37864e-07
1935.71	-1.9271e-07
1944.27	-1.77489e-07
1952.83	-2.14485e-07
1961.38	-1.62491e-07
1969.94	-2.20611e-07
1978.5	-1.95033e-07
1987.06	-1.34552e-07
1995.61	-1.26459e-07
2004.17	-2.28922e-07
2012.73	-6.83354e-08
2021.29	-2.44646e-07
2029.84	-1.95479e-07
2038.4	-1.17546e-07
2046.96	1.19261e-07
2055.52	9.01505e-08
2064.08	-4.05505e-08
2072.63	1.36585e-07
2081.19	-1.18177e-07
2089.75	-2.21841e-07
2098.31	-2.34983e-07
2106.86	-1.64763e-07
2115.42	1.62724e-07
2123.98	-1.07993e-08
2132.54	-2.26532e-07
2141.09	-1.87726e-07
2149.65	-1.65984e-07
2158.21	6.28694e-07
2166.77	-2.01714e-07
2175.32	-1.25553e-07
2183.88	-2.28935e-07
2192.44	-1.46219e-07
2201	-2.77344e-07
2209.55	8.18887e-08
2218.11	-2.17135e-07
2226.67	-1.47274e-07
2235.23	-2.20295e-07
2243.79	-3.43151e-08
2252.34	9.37102e-08
2260.9	4.60748e-09
2269.46	3.95988e-07
2278.02	1.88626e-07
2286.57	1.9864e-07
2295.13	1.44376e-07
2303.69	9.70557e-07
2312.25	8.42482e-07
2320.8	1.07767e-06
2329.36	6.14315e-07
2337.92	2.04313e-06
2346.48	1.65911e-07
2355.03	5.23883e-07
2363.59	4.6336e-07
2372.15	-1.30766e-08
2380.71	1.445e-07
2389.26	-2.86757e-07
2397.82	-2.0121e-07
2406.38	-1.44669e-07
2414.94	-2.03984e-07
2423.5	-2.48684e-07
2432.05	-1.09061e-07
2440.61	8.65271e-08
2449.17	4.59189e-07
2457.73	1.11789e-06
2466.28	3.37885e-06
2474.84	5.87238e-06
2483.4	1.31083e-05
2491.96	9.40621e-06
2500.51	2.49534e-06
2509.07	2.00533e-05
2517.63	1.0445e-05
2526.19	8.62035e-07
2534.74	-2.32005e-07
2543.3	-1.64698e-07
2551.86	-1.28144e-07
2560.42	-2.25754e-07
2568.98	-2.59834e-07
2577.53	-2.278e-07
2586.09	-8.35112e-08
2594.65	-2.47507e-07
2603.21	-2.5145e-07
2611.76	-2.30401e-07
2620.32	-1.38595e-07
2628.88	-2.21936e-07
2637.44	-4.67898e-07
2645.99	-5.11719e-07
2654.55	-7.42242e-07
2663.11	-9.67379e-07
2671.67	-1.08173e-06
2680.22	-1.04917e-06
2688.78	-1.19711e-06
2697.34	-1.05836e-06
2705.9	-1.05904e-06
2714.45	-1.15696e-06
2723.01	-1.07717e-06
2731.57	-9.5467e-07
2740.13	-1.31241e-06
2748.69	-1.30783e-06
2757.24	-1.45841e-06
2765.8	-1.22243e-06
2774.36	-1.1204e-06
2782.92	-8.42293e-07
2791.47	-3.82502e-07
2800.03	-1.83484e-07
2808.59	-1.4e-07
2817.15	-2.41564e-07
2825.7	-1.57884e-07
2834.26	-1.07165e-07
2842.82	-4.8012e-08
2851.38	-3.0777e-07
2859.93	-2.40802e-07
2868.49	-1.73654e-07
2877.05	-7.04946e-08
2885.61	-1.70408e-07
2894.16	-2.11458e-07
2902.72	-1.99198e-07
2911.28	-2.50703e-07
2919.84	-1.75934e-07
2928.4	-2.15673e-07
2936.95	-2.46386e-07
2945.51	-7.60479e-08
2954.07	-1.6098e-08
2962.63	-1.75943e-07
2971.18	-9.80958e-08
2979.74	-8.80568e-09
2988.3	-1.26799e-07
2996.86	-1.98633e-07
3005.41	-5.58318e-08
3013.97	-1.86276e-07
3022.53	-2.94429e-07
3031.09	-7.20607e-08
3039.64	-1.99671e-07
3048.2	-1.35561e-07
3056.76	-1.81494e-07
3065.32	-3.40349e-07
3073.88	-2.44567e-07
3082.43	-1.38217e-07
3090.99	-1.86373e-07
3099.55	-1.158e-07
3108.11	-1.74748e-07
3116.66	-2.50737e-07
3125.22	-9.43378e-08
3133.78	-1.74316e-07
3142.34	-8.85643e-08
3150.89	-2.05061e-07
3159.45	-2.4343e-07
3168.01	-6.93504e-08
3176.57	-1.65203e-07
3185.12	-1.4478e-07
3193.68	-2.68569e-07
3202.24	-3.6978e-08
3210.8	-1.89265e-08
3219.35	-1.30908e-07
3227.91	-2.07236e-07
3236.47	-2.00288e-07
3245.03	-1.27241e-07
3253.59	-6.17198e-08
3262.14	-8.16558e-08
3270.7	-1.9934e-07
3279.26	-1.9446e-07
3287.82	-4.35451e-07
3296.37	-1.64072e-08
3304.93	9.75883e-08
3313.49	-1.52541e-07
3322.05	-9.05998e-08
3330.6	-2.45568e-07
3339.16	-1.46495e-07
3347.72	-1.09071e-07
3356.28	-5.60046e-08
3364.83	-4.07015e-08
3373.39	-1.88761e-07
3381.95	4.86905e-08
3390.51	2.05545e-08
3399.06	-3.21876e-07
3407.62	1.42581e-07
3416.18	3.7471e-09
3424.74	3.18212e-08
3433.3	-1.63175e-07
3441.85	1.25128e-08
3450.41	-2.92874e-08
3458.97	-8.88517e-08
3467.53	-3.74197e-07
3476.08	-2.96556e-07
3484.64	-1.5541e-07
3493.2	-1.23225e-07
3501.76	-1.78653e-07
3510.31	-1.09566e-07
3518.87	-2.67417e-07
3527.43	-1.83275e-07
3535.99	-5.90259e-09
3544.54	-1.96168e-07
3553.1	6.64437e-08
3561.66	-2.99462e-07
3570.22	-2.55579e-07
3578.78	-2.19642e-07
3587.33	-1.5012e-08
3595.89	-2.10783e-08
3604.45	7.30102e-08
3613.01	-4.92562e-08
3621.56	-1.37944e-07
3630.12	-2.1588e-07
3638.68	2.46157e-07
3647.24	-1.58226e-07
3655.79	3.2014e-09
3664.35	-1.40429e-07
3672.91	-2.21406e-08
3681.47	-5.45676e-08
3690.02	-1.45464e-07
3698.58	-1.00857e-07
3707.14	-1.58013e-07
3715.7	-1.47816e-07
3724.25	-1.0977e-07
3732.81	-1.55936e-07
3741.37	-4.96291e-08
3749.93	-1.03864e-07
3758.49	-9.08744e-08
3767.04	-1.06625e-07
3775.6	-2.82129e-07
3784.16	-1.59743e-07
3792.72	-2.893e-07
3801.27	-1.37937e-07
3809.83	-1.48094e-07
3818.39	-2.79333e-07
3826.95	-4.45159e-08
3835.5	5.43675e-08
3844.06	7.70156e-09
3852.62	-2.08592e-07
3861.18	6.11396e-08
3869.73	-3.01805e-08
3878.29	-7.73612e-09
3886.85	-2.7503e-08
3895.41	-2.73393e-07
3903.96	-1.08484e-07
3912.52	-8.41278e-09
3921.08	2.26463e-09
3929.64	-3.44035e-07
3938.2	-2.19369e-09
3946.75	-2.72829e-07
3955.31	-9.99893e-08
3963.87	-1.45937e-07
3972.43	-2.03282e-07
