Infrared Spectrum: Sulfur Dioxide
Formula: S O2
CAS: 7446-09-5
State: gas
Melting point: -72.7 C
Boiling point: -10 C
Class: IUPAC A
Instrument: IFS66V (Bruker)
Instrument parameters: KBr Beam splitter; MCT Detector; Multipass cell
Sampling: 1 L/min Flow
Resolution: 0.1250
Temperature: 23 C
Pressure: 101.3 kPa
Origin: NIST, Anayltical Chemistry Division, 301-975-3108
cm-1	(micromol/mol)-1m-1 (base 10)
574.988	1.29663e-05
583.546	9.51974e-06
592.103	1.00484e-05
600.661	3.79843e-06
609.219	7.95134e-07
617.776	1.50556e-06
626.334	4.00132e-07
634.891	1.81374e-07
643.449	1.96719e-07
652.007	7.32776e-08
660.564	-6.77377e-07
669.122	1.81105e-07
677.68	6.72823e-08
686.237	4.81391e-07
694.795	1.39807e-08
703.352	-9.05124e-09
711.91	-4.08567e-07
720.468	-1.84474e-07
729.025	-6.89594e-08
737.583	-1.56758e-07
746.141	-3.38059e-07
754.698	-9.34665e-08
763.256	-6.29842e-07
771.813	-5.21707e-07
780.371	-2.62461e-07
788.929	-2.10196e-07
797.486	-2.3612e-07
806.044	-1.81971e-08
814.602	-3.92996e-07
823.159	-2.39472e-07
831.717	-5.96784e-07
840.274	-2.15294e-08
848.832	-4.58985e-07
857.39	-3.58848e-08
865.947	-1.6273e-07
874.505	-4.30509e-07
883.063	-1.13817e-07
891.62	-3.26256e-07
900.178	-1.31725e-07
908.735	-2.43665e-07
917.293	-1.85058e-07
925.851	-1.62588e-07
934.408	-3.28444e-07
942.966	-2.92294e-07
951.524	-1.8142e-07
960.081	-2.32215e-07
968.639	-1.16056e-07
977.196	-1.73802e-07
985.754	2.64298e-08
994.312	-1.7426e-07
1002.87	-3.87714e-07
1011.43	-3.69942e-07
1019.98	-2.34439e-07
1028.54	-1.06572e-07
1037.1	-4.80322e-07
1045.66	-6.15452e-08
1054.22	1.46119e-07
1062.77	2.66735e-07
1071.33	1.76634e-06
1079.89	3.0744e-06
1088.45	6.86691e-06
1097	1.08137e-05
1105.56	1.57798e-05
1114.12	1.79883e-05
1122.68	4.26379e-05
1131.23	4.77407e-05
1139.79	8.34971e-05
1148.35	2.00424e-05
1156.91	4.03968e-05
1165.46	6.14499e-05
1174.02	4.52858e-05
1182.58	3.914e-05
1191.14	2.28457e-05
1199.69	1.80209e-05
1208.25	7.18624e-06
1216.81	7.25984e-06
1225.37	3.18235e-06
1233.93	1.36711e-06
1242.48	4.69601e-07
1251.04	3.92045e-08
1259.6	-1.1294e-07
1268.16	-2.57478e-07
1276.71	-1.34042e-07
1285.27	-1.2207e-07
1293.83	-5.80437e-09
1302.39	1.26016e-06
1310.94	7.27123e-06
1319.5	4.23345e-05
1328.06	0.000125916
1336.62	0.000441193
1345.17	0.000652047
1353.73	0.000501885
1362.29	0.000154416
1370.85	0.000650046
1379.4	0.000585773
1387.96	0.000162775
1396.52	1.29944e-05
1405.08	3.74244e-07
1413.64	1.58648e-07
1422.19	-6.37389e-08
1430.75	-2.18525e-07
1439.31	-1.45095e-07
1447.87	-2.20226e-07
1456.42	-1.91415e-07
1464.98	-1.53556e-07
1473.54	-2.9746e-07
1482.1	-1.10265e-07
1490.65	-2.54433e-07
1499.21	-1.83342e-07
1507.77	-2.18436e-07
1516.33	-1.60807e-07
1524.88	-1.0259e-07
1533.44	-2.07635e-07
1542	-6.17853e-08
1550.56	-2.07984e-07
1559.11	-7.65554e-08
1567.67	-2.58244e-07
1576.23	-3.53672e-07
1584.79	-9.83704e-08
1593.35	-2.89471e-07
1601.9	-1.82467e-07
1610.46	-1.65254e-07
1619.02	-2.00526e-07
1627.58	-1.94733e-07
1636.13	-9.85633e-08
1644.69	-1.58828e-07
1653.25	-1.60569e-07
1661.81	-1.29679e-07
1670.36	-8.30728e-08
1678.92	-2.20582e-07
1687.48	-7.06837e-08
1696.04	-1.25684e-07
1704.59	-1.6904e-07
1713.15	-2.3881e-07
1721.71	-2.41282e-07
1730.27	-8.67162e-08
1738.83	-2.53733e-07
1747.38	-1.01483e-07
1755.94	-2.26925e-07
1764.5	-1.72672e-07
1773.06	-1.64416e-07
1781.61	-2.32431e-07
1790.17	-1.29979e-07
1798.73	-2.26443e-07
1807.29	-1.72718e-07
1815.84	-3.11959e-07
1824.4	-5.47568e-08
1832.96	-1.93027e-07
1841.52	-1.21763e-07
1850.07	2.88081e-07
1858.63	-4.20093e-08
1867.19	1.26053e-07
1875.75	3.03739e-07
1884.3	4.98029e-07
1892.86	-9.11709e-08
1901.42	-2.1011e-07
1909.98	-1.28218e-07
1918.54	-1.71684e-07
1927.09	-1.56711e-07
1935.65	-1.90409e-07
1944.21	-2.50201e-07
1952.77	-2.33582e-07
1961.32	-2.00433e-07
1969.88	-2.44227e-07
1978.44	-2.52505e-07
1987	-1.76365e-07
1995.55	-1.14303e-07
2004.11	-2.19271e-07
2012.67	-4.09143e-08
2021.23	-2.23247e-07
2029.78	-2.12826e-07
2038.34	-1.11003e-07
2046.9	6.38298e-08
2055.46	1.36009e-07
2064.01	-4.32062e-08
2072.57	1.66984e-07
2081.13	-8.01715e-08
2089.69	-1.71606e-07
2098.25	-1.80623e-07
2106.8	-1.74751e-07
2115.36	-1.56723e-08
2123.92	-4.42012e-09
2132.48	-1.73001e-07
2141.03	-2.1098e-07
2149.59	-1.74025e-07
2158.15	2.729e-07
2166.71	-2.16482e-07
2175.26	-1.35723e-07
2183.82	-2.03018e-07
2192.38	-9.85796e-08
2200.94	-1.73642e-07
2209.49	1.67812e-07
2218.05	-2.39858e-07
2226.61	-8.75275e-08
2235.17	-1.91035e-07
2243.72	-4.90706e-08
2252.28	1.49689e-07
2260.84	3.78075e-08
2269.4	3.88165e-07
2277.96	2.04277e-07
2286.51	1.77047e-07
2295.07	1.24573e-07
2303.63	9.68419e-07
2312.19	8.07889e-07
2320.74	9.70762e-07
2329.3	6.36618e-07
2337.86	2.81026e-06
2346.42	3.08383e-07
2354.97	5.73886e-07
2363.53	4.96018e-07
2372.09	-6.25911e-08
2380.65	1.45846e-07
2389.2	-3.0162e-07
2397.76	-1.91384e-07
2406.32	-9.75555e-08
2414.88	-2.33268e-07
2423.44	-2.23822e-07
2431.99	-1.27169e-07
2440.55	8.29237e-08
2449.11	4.6695e-07
2457.67	9.70606e-07
2466.22	3.12707e-06
2474.78	5.77613e-06
2483.34	1.39199e-05
2491.9	9.21703e-06
2500.45	2.55894e-06
2509.01	1.99522e-05
2517.57	1.03291e-05
2526.13	8.30494e-07
2534.68	-2.70128e-07
2543.24	-1.58088e-07
2551.8	-1.12033e-07
2560.36	-2.34481e-07
2568.91	-2.74531e-07
2577.47	-2.49439e-07
2586.03	-6.22637e-08
2594.59	-3.14969e-07
2603.15	-1.59364e-07
2611.7	-2.1434e-07
2620.26	-1.47821e-07
2628.82	-1.85782e-07
2637.38	-4.48124e-07
2645.93	-4.83632e-07
2654.49	-6.96662e-07
2663.05	-8.82918e-07
2671.61	-1.15189e-06
2680.16	-1.11729e-06
2688.72	-1.26123e-06
2697.28	-1.11252e-06
2705.84	-1.06703e-06
2714.39	-1.05289e-06
2722.95	-1.1261e-06
2731.51	-1.02694e-06
2740.07	-1.21838e-06
2748.62	-1.29594e-06
2757.18	-1.38908e-06
2765.74	-1.27924e-06
2774.3	-1.02343e-06
2782.86	-8.47204e-07
2791.41	-2.42204e-07
2799.97	-1.62841e-07
2808.53	-1.92695e-07
2817.09	-1.23065e-07
2825.64	-3.4346e-08
2834.2	-5.81055e-08
2842.76	-2.54912e-08
2851.32	-2.65096e-07
2859.87	-3.1729e-07
2868.43	-2.72403e-07
2876.99	-1.67677e-07
2885.55	-1.36305e-07
2894.1	-2.05921e-07
2902.66	-1.7115e-07
2911.22	-1.95515e-07
2919.78	-1.43143e-07
2928.34	-2.48864e-07
2936.89	-3.45774e-07
2945.45	-2.10001e-08
2954.01	5.382e-08
2962.57	-5.50878e-08
2971.12	-9.83904e-08
2979.68	-5.47058e-08
2988.24	-2.59892e-07
2996.8	-1.93579e-07
3005.35	-1.03114e-07
3013.91	-2.41424e-07
3022.47	-2.60549e-07
3031.03	3.1703e-08
3039.58	-1.40534e-07
3048.14	-1.26146e-07
3056.7	-1.80699e-07
3065.26	-3.45488e-07
3073.81	-1.65082e-07
3082.37	-1.87593e-07
3090.93	-1.98922e-07
3099.49	-1.18788e-07
3108.05	-1.37515e-07
3116.6	-2.3972e-07
3125.16	-1.12338e-07
3133.72	-7.41198e-08
3142.28	-1.05965e-07
3150.83	-3.45734e-07
3159.39	-2.40518e-07
3167.95	-1.00622e-07
3176.51	-1.0024e-07
3185.06	-2.02283e-07
3193.62	-2.04917e-07
3202.18	-8.92428e-08
3210.74	-4.33645e-09
3219.29	-2.4868e-07
3227.85	-2.46677e-07
3236.41	-2.97652e-07
3244.97	-2.39763e-07
3253.52	-1.42044e-07
3262.08	6.25529e-08
3270.64	-1.93692e-07
3279.2	-2.93331e-07
3287.76	-3.45182e-07
3296.31	1.38061e-09
3304.87	4.30734e-08
3313.43	-1.21555e-07
3321.99	-1.45418e-07
3330.54	-2.87473e-07
3339.1	-1.74557e-07
3347.66	-1.00719e-07
3356.22	-1.73804e-08
3364.77	3.47425e-09
3373.33	-8.1272e-08
3381.89	-3.84805e-08
3390.45	1.92212e-08
3399	-2.45104e-07
3407.56	1.65935e-07
3416.12	-2.52092e-08
3424.68	7.60625e-08
3433.23	-2.01772e-07
3441.79	9.58748e-08
3450.35	-2.29483e-07
3458.91	-1.38566e-07
3467.47	-3.00008e-07
3476.02	-3.06511e-07
3484.58	-9.0587e-08
3493.14	-2.23473e-07
3501.7	-2.52374e-07
3510.25	-2.06192e-07
3518.81	-1.616e-07
3527.37	-1.02023e-07
3535.93	7.27592e-08
3544.48	-1.70235e-07
3553.04	-2.98968e-08
3561.6	-2.22885e-07
3570.16	-1.69849e-07
3578.71	-2.71643e-07
3587.27	-1.57631e-07
3595.83	-2.86598e-08
3604.39	1.05193e-07
3612.95	4.39375e-08
3621.5	-6.9907e-08
3630.06	-2.85232e-07
3638.62	2.14698e-07
3647.18	-2.61749e-07
3655.73	-7.35577e-08
3664.29	2.26518e-08
3672.85	8.07209e-08
3681.41	-1.90453e-07
3689.96	-1.99577e-07
3698.52	-1.68578e-07
3707.08	-1.37748e-07
3715.64	-2.17987e-07
3724.19	-1.97539e-07
3732.75	-1.29311e-07
3741.31	-1.09468e-07
3749.87	-1.46473e-07
3758.42	-1.78546e-07
3766.98	-2.03391e-07
3775.54	-2.25481e-07
3784.1	-2.72156e-07
3792.66	-2.95002e-07
3801.21	-5.64157e-08
3809.77	-1.74315e-07
3818.33	-3.15511e-07
3826.89	-1.42508e-07
3835.44	4.92107e-08
3844	3.14684e-09
3852.56	-2.66761e-07
3861.12	6.01009e-08
3869.67	7.16551e-08
3878.23	-1.9566e-07
3886.79	3.96829e-08
3895.35	-3.70554e-07
3903.9	-5.09987e-08
3912.46	-3.35911e-08
3921.02	1.45649e-07
3929.58	-2.77511e-07
3938.13	-1.10783e-07
3946.69	-3.63399e-07
3955.25	-2.67883e-07
3963.81	-9.21113e-08
3972.37	-1.65678e-07
