Infrared Spectrum: Sulfur Dioxide
Formula: S O2
CAS: 7446-09-5
State: gas
Melting point: -72.7 C
Boiling point: -10 C
Class: IUPAC A
Instrument: IFS66V (Bruker)
Instrument parameters: KBr Beam splitter; MCT Detector; Multipass cell
Sampling: 1 L/min Flow
Resolution: 0.9640
Temperature: 23 C
Pressure: 101.3 kPa
Origin: NIST, Anayltical Chemistry Division, 301-975-3108
cm-1	(micromol/mol)-1m-1 (base 10)
575.169	1.66502e-05
583.847	8.64034e-06
592.525	5.67796e-06
601.203	3.34434e-06
609.882	1.92713e-06
618.56	7.71306e-07
627.238	3.85546e-07
635.916	-1.72332e-07
644.594	5.3398e-08
653.272	3.2909e-08
661.951	-5.29778e-08
670.629	-1.45353e-07
679.307	-1.1843e-07
687.985	-1.32247e-07
696.663	-2.9764e-07
705.341	-9.83941e-08
714.019	-2.34141e-07
722.698	-1.99191e-07
731.376	-2.74539e-07
740.054	-2.07044e-07
748.732	-2.78546e-07
757.41	-2.22387e-07
766.088	-2.52083e-07
774.767	-2.02736e-07
783.445	-1.11433e-07
792.123	-2.18871e-07
800.801	-3.70577e-07
809.479	-2.64278e-07
818.157	-1.13006e-07
826.835	-3.13252e-07
835.514	-3.698e-07
844.192	-3.1181e-07
852.87	-2.61859e-07
861.548	-2.15851e-07
870.226	-2.77827e-07
878.904	-2.32244e-07
887.583	-1.42446e-07
896.261	-1.91733e-07
904.939	-1.04435e-07
913.617	-2.00148e-07
922.295	-2.66346e-07
930.973	-1.43901e-07
939.651	-1.84488e-07
948.33	-2.35803e-07
957.008	-2.39443e-07
965.686	-2.698e-07
974.364	-2.05994e-07
983.042	-1.95597e-07
991.72	-2.52989e-07
1000.4	-2.4205e-07
1009.08	-2.46092e-07
1017.75	-1.63386e-07
1026.43	-1.92748e-07
1035.11	-1.83562e-07
1043.79	-9.08417e-08
1052.47	1.11938e-07
1061.15	4.67198e-07
1069.82	1.45088e-06
1078.5	3.03492e-06
1087.18	5.46395e-06
1095.86	1.02672e-05
1104.54	1.54836e-05
1113.21	2.11291e-05
1121.89	3.96169e-05
1130.57	3.26846e-05
1139.25	6.15058e-05
1147.93	2.40643e-05
1156.61	4.14229e-05
1165.28	6.12292e-05
1173.96	4.83657e-05
1182.64	3.53928e-05
1191.32	2.02262e-05
1200	1.72413e-05
1208.67	1.00294e-05
1217.35	5.86051e-06
1226.03	3.13222e-06
1234.71	1.35328e-06
1243.39	4.48506e-07
1252.07	3.92918e-08
1260.74	-1.02483e-07
1269.42	-1.86642e-07
1278.1	-2.20051e-07
1286.78	-1.37317e-07
1295.46	1.2444e-07
1304.13	2.06646e-06
1312.81	1.19092e-05
1321.49	5.29508e-05
1330.17	0.000178609
1338.85	0.000420794
1347.52	0.000621961
1356.2	0.000530734
1364.88	0.000202404
1373.56	0.000813441
1382.24	0.000449976
1390.92	7.82587e-05
1399.59	3.97639e-06
1408.27	4.02486e-08
1416.95	-7.60315e-08
1425.63	-5.63284e-08
1434.31	-1.59934e-07
1442.98	-1.76055e-07
1451.66	-2.01876e-07
1460.34	-2.16348e-07
1469.02	-2.1854e-07
1477.7	-2.34787e-07
1486.38	-2.35713e-07
1495.05	-2.4062e-07
1503.73	-1.79113e-07
1512.41	-2.14401e-07
1521.09	-1.21497e-07
1529.77	-1.04453e-07
1538.44	-1.0169e-07
1547.12	-1.67357e-07
1555.8	-2.09319e-07
1564.48	-2.151e-07
1573.16	-2.13081e-07
1581.83	-2.4741e-07
1590.51	-2.12366e-07
1599.19	-2.16491e-07
1607.87	-2.20686e-07
1616.55	-2.1745e-07
1625.23	-2.50328e-07
1633.9	-1.90242e-07
1642.58	-2.14434e-07
1651.26	-1.67934e-07
1659.94	-2.04548e-07
1668.62	-1.87e-07
1677.29	-1.34177e-07
1685.97	-1.28611e-07
1694.65	-1.9997e-07
1703.33	-2.0989e-07
1712.01	-2.14701e-07
1720.69	-1.59694e-07
1729.36	-1.70693e-07
1738.04	-1.66951e-07
1746.72	-1.9735e-07
1755.4	-1.87329e-07
1764.08	-1.63113e-07
1772.75	-2.03005e-07
1781.43	-2.08222e-07
1790.11	-1.8749e-07
1798.79	-1.69456e-07
1807.47	-1.79955e-07
1816.15	-1.83928e-07
1824.82	-1.66644e-07
1833.5	-1.58484e-07
1842.18	-7.95113e-08
1850.86	-3.92318e-08
1859.54	4.06233e-08
1868.21	-2.22025e-08
1876.89	9.99839e-08
1885.57	-5.12825e-08
1894.25	1.93785e-07
1902.93	8.06536e-08
1911.6	-8.64361e-08
1920.28	-1.18356e-07
1928.96	-9.85251e-08
1937.64	-1.66999e-07
1946.32	-2.06711e-07
1955	-2.17734e-07
1963.67	-2.17132e-07
1972.35	-1.66944e-07
1981.03	-2.17597e-07
1989.71	-1.93469e-07
1998.39	-1.78289e-07
2007.06	-1.62895e-07
2015.74	-1.64787e-07
2024.42	-1.85423e-07
2033.1	-1.66146e-07
2041.78	-2.69864e-08
2050.46	5.89495e-08
2059.13	-1.7917e-09
2067.81	8.3533e-08
2076.49	2.84379e-08
2085.17	-1.63248e-07
2093.85	-2.0788e-07
2102.52	-1.51521e-07
2111.2	8.56339e-08
2119.88	1.44076e-07
2128.56	-1.35787e-07
2137.24	-1.79173e-07
2145.91	-1.92575e-07
2154.59	9.01705e-08
2163.27	-1.77238e-07
2171.95	-1.70491e-07
2180.63	-1.99264e-07
2189.31	-1.17031e-07
2197.98	-2.33994e-07
2206.66	-8.55994e-08
2215.34	-2.01547e-07
2224.02	-2.29168e-07
2232.7	-1.34605e-07
2241.37	-1.02323e-07
2250.05	-8.75293e-08
2258.73	9.80685e-08
2267.41	2.5244e-07
2276.09	4.16515e-07
2284.77	2.67607e-07
2293.44	1.70935e-07
2302.12	7.22317e-07
2310.8	1.35777e-06
2319.48	1.57576e-06
2328.16	1.52841e-06
2336.83	8.11076e-07
2345.51	9.42088e-07
2354.19	2.31774e-06
2362.87	3.95749e-06
2371.55	1.6202e-06
2380.23	-7.74849e-08
2388.9	-2.88883e-07
2397.58	-2.34292e-07
2406.26	-2.53255e-07
2414.94	-2.27425e-07
2423.62	-1.80354e-07
2432.29	-9.81103e-08
2440.97	1.9765e-08
2449.65	4.63894e-07
2458.33	1.45448e-06
2467.01	3.97762e-06
2475.68	8.68017e-06
2484.36	1.2754e-05
2493.04	1.02127e-05
2501.72	2.84058e-06
2510.4	1.82489e-05
2519.08	9.36949e-06
2527.75	3.67851e-07
2536.43	-1.51034e-07
2545.11	-1.62784e-07
2553.79	-1.01368e-07
2562.47	-1.54539e-07
2571.14	-2.10505e-07
2579.82	-1.28464e-07
2588.5	-1.80634e-07
2597.18	-1.75148e-07
2605.86	-1.77149e-07
2614.54	-1.92997e-07
2623.21	-2.43134e-07
2631.89	-3.08372e-07
2640.57	-4.68298e-07
2649.25	-6.25709e-07
2657.93	-9.08553e-07
2666.6	-9.75941e-07
2675.28	-1.19119e-06
2683.96	-1.18782e-06
2692.64	-1.17007e-06
2701.32	-1.19825e-06
2709.99	-1.18098e-06
2718.67	-1.29041e-06
2727.35	-7.97814e-07
2736.03	-1.10195e-06
2744.71	-1.3352e-06
2753.39	-1.27252e-06
2762.06	-1.32076e-06
2770.74	-1.1511e-06
2779.42	-8.42541e-07
2788.1	-3.46321e-07
2796.78	-2.74955e-07
2805.45	-1.793e-07
2814.13	-2.47596e-07
2822.81	-1.66848e-07
2831.49	-1.91953e-07
2840.17	-1.87006e-07
2848.85	-1.21321e-07
2857.52	-1.60212e-07
2866.2	-1.05544e-07
2874.88	-2.1275e-07
2883.56	-1.85549e-07
2892.24	-1.01817e-07
2900.91	-1.44156e-07
2909.59	-2.47076e-07
2918.27	-2.05294e-07
2926.95	-1.37906e-07
2935.63	-1.89114e-07
2944.31	-1.18898e-07
2952.98	-1.59954e-07
2961.66	-1.48105e-07
2970.34	-1.52891e-07
2979.02	-1.10077e-07
2987.7	-1.30017e-07
2996.37	-2.59638e-07
3005.05	-1.84619e-07
3013.73	-1.19396e-07
3022.41	-1.5571e-07
3031.09	-8.7362e-08
3039.76	-1.98454e-07
3048.44	-1.79559e-07
3057.12	-2.25783e-07
3065.8	-1.77029e-07
3074.48	-8.21215e-08
3083.16	-1.81105e-07
3091.83	-1.89718e-07
3100.51	-1.70344e-07
3109.19	-1.80034e-07
3117.87	-1.88133e-07
3126.55	-1.75926e-07
3135.22	-1.82917e-07
3143.9	-1.66217e-07
3152.58	-5.92224e-08
3161.26	-2.59419e-07
3169.94	-1.22092e-07
3178.62	-1.65996e-07
3187.29	-1.79371e-07
3195.97	-1.51852e-07
3204.65	-1.59423e-07
3213.33	-1.67788e-07
3222.01	-1.23594e-07
3230.68	-7.06274e-08
3239.36	-2.1729e-07
3248.04	1.38588e-08
3256.72	-1.51834e-07
3265.4	-2.45166e-07
3274.07	-2.15329e-07
3282.75	-1.17717e-07
3291.43	-1.98269e-07
3300.11	-1.91675e-07
3308.79	-1.30255e-07
3317.47	-8.70509e-08
3326.14	-5.83311e-08
3334.82	-1.77902e-07
3343.5	-1.24706e-07
3352.18	-1.88683e-07
3360.86	-1.66016e-07
3369.53	-1.85703e-07
3378.21	-1.62246e-07
3386.89	-8.88263e-08
3395.57	-3.19726e-07
3404.25	-1.73765e-07
3412.93	-1.76008e-07
3421.6	-1.37167e-07
3430.28	-1.42381e-07
3438.96	-1.76332e-07
3447.64	-1.03964e-07
3456.32	-4.34027e-08
3464.99	-1.3065e-07
3473.67	-1.23016e-07
3482.35	-1.19272e-07
3491.03	-1.29453e-07
3499.71	-9.80867e-08
3508.39	-1.48622e-07
3517.06	-1.5254e-08
3525.74	-5.86748e-08
3534.42	-2.0754e-07
3543.1	-6.20563e-08
3551.78	-1.24664e-07
3560.45	-1.13928e-07
3569.13	-1.72839e-07
3577.81	-3.53792e-09
3586.49	-1.68459e-07
3595.17	-6.23983e-08
3603.84	-8.03334e-08
3612.52	-7.25518e-08
3621.2	-2.75757e-08
3629.88	-5.45239e-08
3638.56	1.19754e-07
3647.24	-2.13676e-08
3655.91	-4.49706e-08
3664.59	-1.31127e-07
3673.27	-1.42472e-07
3681.95	-5.79891e-08
3690.63	-1.76241e-08
3699.3	-4.82903e-08
3707.98	-6.3175e-08
3716.66	-1.44647e-07
3725.34	-7.49693e-08
3734.02	-9.18821e-08
3742.7	-9.92708e-08
3751.37	-1.03515e-07
3760.05	-1.71241e-07
3768.73	-9.31227e-08
3777.41	-1.38337e-07
3786.09	-1.28884e-07
3794.76	-4.79829e-08
3803.44	-7.04655e-08
3812.12	-1.812e-07
3820.8	-1.00535e-07
3829.48	-1.72961e-07
3838.16	-4.21785e-08
3846.83	-6.96306e-09
3855.51	-1.98389e-07
3864.19	-1.1138e-07
3872.87	-1.71113e-07
3881.55	-1.13643e-07
3890.22	-5.55698e-08
3898.9	-1.08891e-07
3907.58	-2.56862e-07
3916.26	-1.27667e-07
3924.94	-1.19834e-07
3933.61	-1.20004e-07
3942.29	-7.51512e-08
3950.97	-1.81434e-07
3959.65	-7.2952e-08
3968.33	-1.88876e-07
