Infrared Spectrum: Sulfur Dioxide
Formula: S O2
CAS: 7446-09-5
State: gas
Melting point: -72.7 C
Boiling point: -10 C
Class: IUPAC A
Instrument: IFS66V (Bruker)
Instrument parameters: KBr Beam splitter; MCT Detector; Multipass cell
Sampling: 1 L/min Flow
Resolution: 0.4820
Temperature: 23 C
Pressure: 101.3 kPa
Origin: NIST, Anayltical Chemistry Division, 301-975-3108
cm-1	(micromol/mol)-1m-1 (base 10)
574.928	1.99217e-05
583.606	9.44346e-06
592.284	6.49234e-06
600.962	4.18276e-06
609.641	2.18432e-06
618.319	1.24553e-06
626.997	3.56322e-07
635.675	-2.45853e-07
644.353	2.11771e-07
653.031	-3.12803e-07
661.71	1.96504e-08
670.388	-1.82184e-07
679.066	-1.58309e-07
687.744	-2.13603e-07
696.422	-3.4368e-07
705.1	-5.6643e-09
713.778	-2.23771e-07
722.457	-1.81823e-07
731.135	-2.74557e-07
739.813	-2.98051e-07
748.491	-3.84709e-07
757.169	-1.694e-07
765.847	-2.54561e-07
774.526	-4.92634e-08
783.204	-1.12544e-07
791.882	-1.78902e-07
800.56	-2.94817e-07
809.238	-1.79481e-07
817.916	-1.56814e-07
826.594	-3.26456e-07
835.273	-4.54721e-07
843.951	-2.4912e-07
852.629	-2.86175e-07
861.307	-2.93498e-07
869.985	-2.46537e-07
878.663	-1.9159e-07
887.342	-5.84275e-08
896.02	-1.66955e-07
904.698	-5.89841e-08
913.376	-2.28917e-07
922.054	-2.8072e-07
930.732	-1.12257e-07
939.41	-1.94458e-07
948.089	-2.41268e-07
956.767	-2.14452e-07
965.445	-2.17648e-07
974.123	-1.22083e-07
982.801	-1.97456e-07
991.479	-3.04661e-07
1000.16	-2.90575e-07
1008.84	-2.31549e-07
1017.51	-4.81084e-08
1026.19	-2.04126e-07
1034.87	-2.18436e-07
1043.55	-1.74822e-08
1052.23	7.85363e-08
1060.9	5.22768e-07
1069.58	1.35168e-06
1078.26	2.97801e-06
1086.94	5.39244e-06
1095.62	1.0082e-05
1104.3	1.38142e-05
1112.97	2.31443e-05
1121.65	3.73417e-05
1130.33	2.9039e-05
1139.01	4.92211e-05
1147.69	2.37457e-05
1156.36	4.05308e-05
1165.04	5.55336e-05
1173.72	5.78172e-05
1182.4	3.37665e-05
1191.08	2.10025e-05
1199.76	1.75566e-05
1208.43	1.03165e-05
1217.11	5.32312e-06
1225.79	3.22395e-06
1234.47	1.44372e-06
1243.15	5.05682e-07
1251.82	1.74389e-07
1260.5	-6.92868e-08
1269.18	-9.23278e-08
1277.86	-1.57269e-07
1286.54	-8.8326e-08
1295.21	1.73824e-07
1303.89	1.98328e-06
1312.57	1.06568e-05
1321.25	5.59132e-05
1329.93	0.000159294
1338.61	0.00041042
1347.28	0.00059972
1355.96	0.000511824
1364.64	0.000165401
1373.32	0.000721291
1382	0.00048315
1390.67	8.73479e-05
1399.35	4.48303e-06
1408.03	6.27748e-08
1416.71	-9.89725e-08
1425.39	-7.1455e-08
1434.07	-1.48698e-07
1442.74	-2.61553e-07
1451.42	-2.53844e-07
1460.1	-2.81191e-07
1468.78	-2.78309e-07
1477.46	-2.60043e-07
1486.13	-2.86255e-07
1494.81	-3.11056e-07
1503.49	-2.14774e-07
1512.17	-2.09485e-07
1520.85	-1.47497e-07
1529.52	-1.29493e-07
1538.2	-1.54411e-07
1546.88	-2.2581e-07
1555.56	-2.21681e-07
1564.24	-2.40426e-07
1572.92	-2.58102e-07
1581.59	-2.4615e-07
1590.27	-2.57568e-07
1598.95	-2.66521e-07
1607.63	-2.65793e-07
1616.31	-2.4854e-07
1624.98	-2.73178e-07
1633.66	-2.06769e-07
1642.34	-2.16922e-07
1651.02	-1.6614e-07
1659.7	-2.13359e-07
1668.38	-2.36489e-07
1677.05	-8.5874e-08
1685.73	-1.59575e-07
1694.41	-2.46157e-07
1703.09	-2.31609e-07
1711.77	-2.70766e-07
1720.44	-1.70435e-07
1729.12	-1.92757e-07
1737.8	-1.75884e-07
1746.48	-1.67488e-07
1755.16	-1.57884e-07
1763.84	-1.91624e-07
1772.51	-2.03507e-07
1781.19	-1.93703e-07
1789.87	-2.01974e-07
1798.55	-1.26754e-07
1807.23	-2.16802e-07
1815.9	-2.59978e-07
1824.58	-1.70131e-07
1833.26	-2.00468e-07
1841.94	-4.07834e-08
1850.62	-1.67637e-08
1859.29	4.60184e-08
1867.97	1.96814e-09
1876.65	1.43541e-07
1885.33	-5.73324e-08
1894.01	4.09572e-07
1902.69	-1.33653e-07
1911.36	-1.89745e-07
1920.04	-1.99664e-07
1928.72	-1.17715e-07
1937.4	-1.77707e-07
1946.08	-1.73016e-07
1954.75	-2.31442e-07
1963.43	-2.13232e-07
1972.11	-1.72472e-07
1980.79	-2.55974e-07
1989.47	-1.8704e-07
1998.15	-1.70635e-07
2006.82	-1.66906e-07
2015.5	-1.51594e-07
2024.18	-2.24786e-07
2032.86	-1.88346e-07
2041.54	-1.70293e-08
2050.21	5.37872e-08
2058.89	-1.60652e-08
2067.57	1.1188e-07
2076.25	8.00442e-08
2084.93	-1.54024e-07
2093.6	-2.06178e-07
2102.28	-2.10929e-07
2110.96	-1.46364e-07
2119.64	5.11917e-07
2128.32	-1.44087e-07
2137	-1.6761e-07
2145.67	-1.96486e-07
2154.35	8.35803e-08
2163.03	-1.38008e-07
2171.71	-2.17677e-07
2180.39	-2.08202e-07
2189.06	-1.57234e-07
2197.74	-2.61387e-07
2206.42	1.11613e-08
2215.1	-2.64632e-07
2223.78	-3.12395e-07
2232.46	-1.34135e-07
2241.13	-1.05417e-07
2249.81	-9.15693e-08
2258.49	3.20231e-08
2267.17	2.72771e-07
2275.85	3.84834e-07
2284.52	3.83468e-07
2293.2	1.45053e-07
2301.88	6.91323e-07
2310.56	1.27243e-06
2319.24	2.8967e-06
2327.92	5.22469e-07
2336.59	5.75625e-07
2345.27	2.36044e-07
2353.95	5.99405e-07
2362.63	5.0823e-06
2371.31	2.65228e-06
2379.98	-4.34645e-08
2388.66	-3.12868e-07
2397.34	-2.59337e-07
2406.02	-2.85092e-07
2414.7	-2.3932e-07
2423.37	-1.66098e-07
2432.05	-8.7533e-08
2440.73	1.46301e-08
2449.41	4.16646e-07
2458.09	1.649e-06
2466.77	3.48938e-06
2475.44	7.91337e-06
2484.12	1.52011e-05
2492.8	1.03391e-05
2501.48	2.5382e-06
2510.16	2.03798e-05
2518.83	9.57323e-06
2527.51	4.19566e-07
2536.19	-1.62631e-07
2544.87	-1.85772e-07
2553.55	-1.56027e-07
2562.23	-1.85681e-07
2570.9	-2.21812e-07
2579.58	-1.44447e-07
2588.26	-1.20244e-07
2596.94	-1.49418e-07
2605.62	-1.81445e-07
2614.29	-2.61808e-07
2622.97	-2.39178e-07
2631.65	-2.86757e-07
2640.33	-4.82481e-07
2649.01	-6.49423e-07
2657.68	-9.60329e-07
2666.36	-9.03033e-07
2675.04	-1.16825e-06
2683.72	-1.15214e-06
2692.4	-1.17738e-06
2701.08	-1.17855e-06
2709.75	-1.1736e-06
2718.43	-1.28368e-06
2727.11	-7.26162e-07
2735.79	-1.11154e-06
2744.47	-1.309e-06
2753.14	-1.34699e-06
2761.82	-1.40649e-06
2770.5	-1.22152e-06
2779.18	-9.62935e-07
2787.86	-3.65186e-07
2796.54	-3.38072e-07
2805.21	-1.63554e-07
2813.89	-2.29779e-07
2822.57	-1.65653e-07
2831.25	-1.81314e-07
2839.93	-1.89303e-07
2848.6	-1.07844e-07
2857.28	-2.20355e-07
2865.96	-9.49289e-08
2874.64	-2.02385e-07
2883.32	-1.84683e-07
2892	-2.24535e-08
2900.67	-9.74282e-08
2909.35	-2.44213e-07
2918.03	-1.9536e-07
2926.71	-1.2752e-07
2935.39	-2.72954e-07
2944.06	-4.69588e-08
2952.74	-1.21075e-07
2961.42	-4.97e-08
2970.1	-2.22871e-07
2978.78	-1.09535e-07
2987.45	-8.63524e-08
2996.13	-2.90207e-07
3004.81	-2.52258e-07
3013.49	-1.09515e-07
3022.17	-1.14727e-07
3030.85	-8.94938e-08
3039.52	-2.26607e-07
3048.2	-1.50184e-07
3056.88	-2.05952e-07
3065.56	-1.90402e-07
3074.24	-1.43754e-07
3082.91	-1.28851e-07
3091.59	-1.63072e-07
3100.27	-1.7259e-07
3108.95	-1.29324e-07
3117.63	-1.98551e-07
3126.31	-1.47234e-07
3134.98	-1.83531e-07
3143.66	-2.39725e-07
3152.34	-8.91209e-08
3161.02	-3.03209e-07
3169.7	-9.10818e-08
3178.37	-1.56134e-07
3187.05	-6.2542e-08
3195.73	-3.41077e-07
3204.41	-1.83388e-07
3213.09	-2.14099e-07
3221.77	-9.2195e-08
3230.44	-8.59668e-08
3239.12	-2.49029e-07
3247.8	4.50143e-08
3256.48	-1.36058e-07
3265.16	-3.2008e-07
3273.83	-1.91775e-07
3282.51	-9.06907e-08
3291.19	-1.90358e-07
3299.87	-1.63799e-07
3308.55	-1.58879e-07
3317.22	-1.32567e-08
3325.9	-1.29559e-07
3334.58	-2.02762e-07
3343.26	-1.43994e-07
3351.94	-1.54955e-07
3360.62	-2.66379e-07
3369.29	-2.21737e-07
3377.97	-1.23254e-07
3386.65	-1.75912e-07
3395.33	-2.84623e-07
3404.01	-1.67559e-07
3412.68	-2.1787e-07
3421.36	-6.48612e-08
3430.04	-7.47546e-08
3438.72	-2.33781e-07
3447.4	-1.97277e-07
3456.08	-9.56638e-08
3464.75	-4.23349e-08
3473.43	-1.86946e-07
3482.11	-1.73005e-07
3490.79	-2.47558e-07
3499.47	-1.37897e-08
3508.14	-2.03766e-07
3516.82	1.56632e-08
3525.5	-2.76303e-08
3534.18	-1.75897e-07
3542.86	-4.69024e-08
3551.53	-1.42854e-07
3560.21	-1.1138e-07
3568.89	-1.95764e-07
3577.57	1.88301e-08
3586.25	-2.61509e-07
3594.93	-1.38275e-07
3603.6	-1.61853e-08
3612.28	-6.7848e-08
3620.96	-7.35959e-08
3629.64	8.43225e-08
3638.32	8.02698e-08
3646.99	-6.14433e-08
3655.67	-3.99084e-08
3664.35	-1.38994e-07
3673.03	-1.4383e-07
3681.71	5.05167e-08
3690.39	-6.01137e-08
3699.06	-8.14557e-08
3707.74	-3.8948e-08
3716.42	-1.0054e-07
3725.1	-6.84009e-08
3733.78	-1.43996e-07
3742.45	-1.42672e-07
3751.13	-1.39938e-07
3759.81	-1.4341e-07
3768.49	-9.14383e-08
3777.17	-1.8359e-07
3785.85	-1.1877e-07
3794.52	-3.63869e-08
3803.2	-9.64951e-08
3811.88	-1.32975e-07
3820.56	-9.46706e-08
3829.24	-1.42106e-07
3837.91	-1.27967e-07
3846.59	1.4701e-08
3855.27	-1.73234e-07
3863.95	-7.94858e-08
3872.63	-1.30364e-07
3881.3	-1.11272e-07
3889.98	-2.66644e-08
3898.66	-1.99877e-07
3907.34	-3.14163e-07
3916.02	-1.42595e-07
3924.7	-1.38373e-07
3933.37	-2.27978e-07
3942.05	-8.34748e-08
3950.73	-2.30341e-07
3959.41	-9.61858e-08
3968.09	-2.39809e-07
