Infrared Spectrum: Sulfur Dioxide
Formula: S O2
CAS: 7446-09-5
State: gas
Melting point: -72.7 C
Boiling point: -10 C
Class: IUPAC A
Instrument: IFS66V (Bruker)
Instrument parameters: KBr Beam splitter; MCT Detector; Multipass cell
Sampling: 1 L/min Flow
Resolution: 0.4820
Temperature: 23 C
Pressure: 101.3 kPa
Origin: NIST, Anayltical Chemistry Division, 301-975-3108
cm-1	(micromol/mol)-1m-1 (base 10)
574.928	1.86693e-05
583.606	8.27038e-06
592.284	5.65479e-06
600.962	4.69165e-06
609.641	2.227e-06
618.319	2.43313e-06
626.997	4.44266e-07
635.675	-5.39706e-07
644.353	3.01736e-07
653.031	-4.91026e-07
661.71	1.83884e-07
670.388	-2.99113e-08
679.066	-1.45868e-07
687.744	-2.94191e-07
696.422	-3.06211e-07
705.1	3.98338e-08
713.778	-7.58442e-08
722.457	-1.2745e-07
731.135	-2.99106e-07
739.813	-2.3467e-07
748.491	-3.20479e-07
757.169	-2.45762e-08
765.847	-1.56982e-07
774.526	3.35114e-07
783.204	-4.13145e-08
791.882	-1.32726e-07
800.56	6.9505e-08
809.238	-1.48876e-07
817.916	-1.83171e-08
826.594	-1.68896e-07
835.273	-4.28468e-07
843.951	-1.36698e-07
852.629	-2.13488e-07
861.307	-3.0978e-07
869.985	-1.28285e-07
878.663	-5.99645e-08
887.342	1.01823e-07
896.02	2.20406e-08
904.698	9.5822e-08
913.376	-1.196e-07
922.054	-2.73109e-07
930.732	1.08528e-07
939.41	-9.05179e-08
948.089	-7.47328e-08
956.767	-4.7248e-08
965.445	-5.68777e-08
974.123	3.05152e-08
982.801	-3.92718e-08
991.479	-1.92735e-07
1000.16	-1.52332e-07
1008.84	-8.07736e-08
1017.51	2.32089e-07
1026.19	-1.89774e-08
1034.87	-9.30463e-08
1043.55	2.21899e-07
1052.23	2.63825e-07
1060.9	9.56074e-07
1069.58	1.42164e-06
1078.26	3.01015e-06
1086.94	5.49631e-06
1095.62	1.0333e-05
1104.3	1.26465e-05
1112.97	2.37441e-05
1121.65	3.88587e-05
1130.33	2.40601e-05
1139.01	4.76967e-05
1147.69	2.5143e-05
1156.36	3.9861e-05
1165.04	5.05747e-05
1173.72	6.10327e-05
1182.4	3.38499e-05
1191.08	2.46584e-05
1199.76	1.57897e-05
1208.43	1.20978e-05
1217.11	4.20957e-06
1225.79	3.37341e-06
1234.47	1.81936e-06
1243.15	1.13973e-06
1251.82	9.06987e-07
1260.5	5.81577e-07
1269.18	6.85743e-07
1277.86	7.13833e-07
1286.54	8.3706e-07
1295.21	1.36613e-06
1303.89	3.31195e-06
1312.57	1.11014e-05
1321.25	6.33719e-05
1329.93	0.000145055
1338.61	0.000424653
1347.28	0.000470602
1355.96	0.000554973
1364.64	0.000155804
1373.32	0.000600287
1382	0.000510224
1390.67	9.85992e-05
1399.35	4.40875e-06
1408.03	-3.92538e-07
1416.71	-6.57083e-07
1425.39	-5.90181e-07
1434.07	-6.39462e-07
1442.74	-7.78456e-07
1451.42	-6.90028e-07
1460.1	-7.12294e-07
1468.78	-7.12755e-07
1477.46	-6.60195e-07
1486.13	-7.13675e-07
1494.81	-7.03403e-07
1503.49	-5.82645e-07
1512.17	-5.40979e-07
1520.85	-4.63818e-07
1529.52	-4.65319e-07
1538.2	-4.60056e-07
1546.88	-5.68746e-07
1555.56	-4.49706e-07
1564.24	-5.13696e-07
1572.92	-5.78046e-07
1581.59	-4.77799e-07
1590.27	-5.16458e-07
1598.95	-5.21434e-07
1607.63	-5.21593e-07
1616.31	-4.64633e-07
1624.98	-4.49419e-07
1633.66	-3.48986e-07
1642.34	-4.16124e-07
1651.02	-2.97209e-07
1659.7	-3.73422e-07
1668.38	-4.32757e-07
1677.05	-1.58599e-07
1685.73	-3.35751e-07
1694.41	-4.37457e-07
1703.09	-3.66732e-07
1711.77	-4.64127e-07
1720.44	-3.2376e-07
1729.12	-3.36362e-07
1737.8	-3.6635e-07
1746.48	-2.46785e-07
1755.16	-2.67366e-07
1763.84	-3.47263e-07
1772.51	-3.26305e-07
1781.19	-3.2093e-07
1789.87	-3.32329e-07
1798.55	-1.97172e-07
1807.23	-3.59076e-07
1815.9	-3.91916e-07
1824.58	-3.53657e-07
1833.26	-3.23084e-07
1841.94	-1.39916e-07
1850.62	-1.52934e-07
1859.29	-1.50284e-08
1867.97	-2.13221e-07
1876.65	1.84481e-08
1885.33	-1.51583e-07
1894.01	4.48933e-07
1902.69	-3.26569e-07
1911.36	-2.31194e-07
1920.04	-2.84679e-07
1928.72	-3.00979e-07
1937.4	-2.73133e-07
1946.08	-2.57287e-07
1954.75	-3.55876e-07
1963.43	-2.9693e-07
1972.11	-2.36073e-07
1980.79	-3.36415e-07
1989.47	-2.98995e-07
1998.15	-2.20973e-07
2006.82	-2.40818e-07
2015.5	-2.54357e-07
2024.18	-3.46548e-07
2032.86	-2.7939e-07
2041.54	2.36758e-08
2050.21	-4.77537e-08
2058.89	-1.11403e-07
2067.57	-8.46553e-09
2076.25	7.5515e-08
2084.93	-2.43945e-07
2093.6	-2.88752e-07
2102.28	-2.76749e-07
2110.96	-8.01024e-08
2119.64	8.99075e-07
2128.32	-1.91326e-07
2137	-2.29561e-07
2145.67	-2.75579e-07
2154.35	-5.09169e-08
2163.03	-1.07844e-07
2171.71	-2.62264e-07
2180.39	-2.32691e-07
2189.06	-2.60143e-07
2197.74	-2.85134e-07
2206.42	7.64535e-08
2215.1	-3.45341e-07
2223.78	-4.19639e-07
2232.46	-2.26765e-07
2241.13	-1.49129e-07
2249.81	-1.59575e-07
2258.49	-2.76594e-08
2267.17	2.31131e-07
2275.85	3.07835e-07
2284.52	2.65198e-07
2293.2	4.88014e-08
2301.88	4.40992e-07
2310.56	1.41595e-06
2319.24	3.94379e-06
2327.92	4.67998e-07
2336.59	1.2519e-06
2345.27	-6.0472e-08
2353.95	8.55357e-08
2362.63	5.94728e-06
2371.31	3.80515e-06
2379.98	-1.2046e-07
2388.66	-3.32198e-07
2397.34	-2.93858e-07
2406.02	-3.3214e-07
2414.7	-2.37706e-07
2423.37	-1.51121e-07
2432.05	-1.16964e-07
2440.73	-2.94675e-10
2449.41	3.86471e-07
2458.09	1.8323e-06
2466.77	3.19342e-06
2475.44	7.29264e-06
2484.12	1.88364e-05
2492.8	1.022e-05
2501.48	2.25516e-06
2510.16	2.26037e-05
2518.83	9.52146e-06
2527.51	3.4663e-07
2536.19	-2.46306e-07
2544.87	-2.36456e-07
2553.55	-1.61289e-07
2562.23	-2.73982e-07
2570.9	-2.82886e-07
2579.58	-1.94045e-07
2588.26	-6.78443e-08
2596.94	-2.14852e-07
2605.62	-2.27054e-07
2614.29	-3.66941e-07
2622.97	-3.3335e-07
2631.65	-3.15791e-07
2640.33	-5.31115e-07
2649.01	-6.60686e-07
2657.68	-1.01847e-06
2666.36	-8.33031e-07
2675.04	-1.15572e-06
2683.72	-1.16413e-06
2692.4	-1.21305e-06
2701.08	-1.15151e-06
2709.75	-1.1961e-06
2718.43	-1.30704e-06
2727.11	-7.11059e-07
2735.79	-1.19291e-06
2744.47	-1.32733e-06
2753.14	-1.424e-06
2761.82	-1.38537e-06
2770.5	-1.22246e-06
2779.18	-1.101e-06
2787.86	-4.20459e-07
2796.54	-4.182e-07
2805.21	-2.50504e-07
2813.89	-1.69047e-07
2822.57	-1.39534e-07
2831.25	-2.02876e-07
2839.93	-2.73376e-07
2848.6	-1.39725e-07
2857.28	-3.12552e-07
2865.96	-9.59275e-08
2874.64	-1.88159e-07
2883.32	-2.45708e-07
2892	8.41715e-08
2900.67	-1.55918e-07
2909.35	-3.60847e-07
2918.03	-2.66308e-07
2926.71	-1.56296e-07
2935.39	-3.55591e-07
2944.06	-5.63393e-08
2952.74	-8.41533e-08
2961.42	-1.14414e-09
2970.1	-2.22245e-07
2978.78	-1.68523e-07
2987.45	-3.42168e-08
2996.13	-3.55158e-07
3004.81	-2.81231e-07
3013.49	-1.44334e-07
3022.17	-9.22769e-08
3030.85	-1.09061e-07
3039.52	-2.19689e-07
3048.2	-1.82027e-07
3056.88	-1.14789e-07
3065.56	-1.38586e-07
3074.24	-1.49027e-07
3082.91	-1.36549e-07
3091.59	-1.07531e-07
3100.27	-7.63535e-08
3108.95	-8.84024e-08
3117.63	-2.19522e-07
3126.31	-1.23698e-07
3134.98	-1.29604e-07
3143.66	-2.64671e-07
3152.34	-1.39929e-07
3161.02	-3.00144e-07
3169.7	-1.15323e-08
3178.37	-1.61966e-07
3187.05	7.39525e-08
3195.73	-5.30513e-07
3204.41	-2.12457e-07
3213.09	-1.82027e-07
3221.77	-2.28742e-07
3230.44	-7.39725e-08
3239.12	-1.27774e-07
3247.8	6.09704e-08
3256.48	-1.6675e-07
3265.16	-3.50381e-07
3273.83	-5.00401e-08
3282.51	-1.9534e-08
3291.19	-5.04894e-08
3299.87	-8.497e-08
3308.55	-1.77909e-07
3317.22	-1.86918e-08
3325.9	-1.6064e-07
3334.58	-2.18496e-07
3343.26	2.32884e-08
3351.94	-1.24882e-07
3360.62	-3.26916e-07
3369.29	-2.12424e-07
3377.97	-2.11384e-08
3386.65	-2.95151e-07
3395.33	-3.06085e-07
3404.01	-2.24124e-07
3412.68	-1.55998e-07
3421.36	3.57266e-08
3430.04	-8.79713e-08
3438.72	-2.1126e-07
3447.4	-2.35834e-07
3456.08	-9.52327e-08
3464.75	5.91078e-08
3473.43	-2.34887e-07
3482.11	-2.54188e-07
3490.79	-3.57526e-07
3499.47	4.9047e-08
3508.14	-2.63352e-07
3516.82	2.70464e-08
3525.5	-3.1452e-08
3534.18	-1.76627e-07
3542.86	5.69141e-08
3551.53	-9.12018e-08
3560.21	-3.82677e-08
3568.89	-2.70546e-07
3577.57	-2.32593e-08
3586.25	-3.67954e-07
3594.93	-1.83411e-07
3603.6	-2.38396e-08
3612.28	-2.21261e-08
3620.96	-1.05343e-07
3629.64	2.32949e-07
3638.32	6.43155e-08
3646.99	-2.5795e-08
3655.67	2.18114e-08
3664.35	-1.53893e-07
3673.03	-1.2758e-07
3681.71	1.34579e-07
3690.39	-3.60013e-08
3699.06	-5.2523e-08
3707.74	4.77464e-08
3716.42	-2.91182e-08
3725.1	4.19457e-08
3733.78	-1.60621e-07
3742.45	-1.79029e-07
3751.13	-1.63463e-07
3759.81	-1.60085e-07
3768.49	-1.6482e-07
3777.17	-2.4358e-07
3785.85	4.568e-08
3794.52	6.68111e-09
3803.2	-4.99383e-08
3811.88	-2.68973e-08
3820.56	-8.4166e-08
3829.24	-2.2177e-08
3837.91	-1.4649e-07
3846.59	1.88794e-07
3855.27	-1.37087e-07
3863.95	-9.34665e-08
3872.63	-7.28083e-08
3881.3	-6.21764e-08
3889.98	-4.37901e-08
3898.66	-1.53322e-07
3907.34	-4.40057e-07
3916.02	8.90573e-09
3924.7	-1.24762e-07
3933.37	-2.79052e-07
3942.05	-9.59039e-08
3950.73	-2.09186e-07
3959.41	-4.22112e-08
3968.09	-3.04224e-07
