Infrared Spectrum: Sulfur Dioxide
Formula: S O2
CAS: 7446-09-5
State: gas
Melting point: -72.7 C
Boiling point: -10 C
Class: IUPAC A
Instrument: IFS66V (Bruker)
Instrument parameters: KBr Beam splitter; MCT Detector; Multipass cell
Sampling: 1 L/min Flow
Resolution: 0.9640
Temperature: 23 C
Pressure: 101.3 kPa
Origin: NIST, Anayltical Chemistry Division, 301-975-3108
cm-1	(micromol/mol)-1m-1 (base 10)
575.169	1.61419e-05
583.847	8.55601e-06
592.525	5.62182e-06
601.203	3.33607e-06
609.882	1.93096e-06
618.56	7.86978e-07
627.238	3.76056e-07
635.916	-1.44734e-07
644.594	5.8726e-08
653.272	3.62237e-08
661.951	-4.82779e-08
670.629	-1.04477e-07
679.307	-1.05933e-07
687.985	-1.30796e-07
696.663	-2.74586e-07
705.341	-1.10751e-07
714.019	-2.31629e-07
722.698	-1.95506e-07
731.376	-2.63651e-07
740.054	-2.04852e-07
748.732	-2.68866e-07
757.41	-2.19724e-07
766.088	-2.44601e-07
774.767	-2.03942e-07
783.445	-1.12075e-07
792.123	-2.18744e-07
800.801	-3.6102e-07
809.479	-2.54577e-07
818.157	-1.07448e-07
826.835	-3.01206e-07
835.514	-3.54271e-07
844.192	-2.98404e-07
852.87	-2.53782e-07
861.548	-2.03132e-07
870.226	-2.64695e-07
878.904	-2.22713e-07
887.583	-1.43379e-07
896.261	-1.85642e-07
904.939	-1.01909e-07
913.617	-1.91859e-07
922.295	-2.5281e-07
930.973	-1.44635e-07
939.651	-1.78535e-07
948.33	-2.22263e-07
957.008	-2.24951e-07
965.686	-2.54256e-07
974.364	-1.91415e-07
983.042	-1.82828e-07
991.72	-2.36624e-07
1000.4	-2.23389e-07
1009.08	-2.23336e-07
1017.75	-1.40675e-07
1026.43	-1.6641e-07
1035.11	-1.50219e-07
1043.79	-5.62659e-08
1052.47	1.47368e-07
1061.15	5.26171e-07
1069.82	1.50803e-06
1078.5	3.10271e-06
1087.18	5.57052e-06
1095.86	1.02757e-05
1104.54	1.55441e-05
1113.21	2.12776e-05
1121.89	3.87679e-05
1130.57	3.47345e-05
1139.25	6.01123e-05
1147.93	2.45424e-05
1156.61	4.11579e-05
1165.28	6.17621e-05
1173.96	4.81772e-05
1182.64	3.48889e-05
1191.32	2.05022e-05
1200	1.7213e-05
1208.67	1.01965e-05
1217.35	6.01666e-06
1226.03	3.26473e-06
1234.71	1.50502e-06
1243.39	6.11248e-07
1252.07	2.14205e-07
1260.74	9.05396e-08
1269.42	4.5715e-08
1278.1	6.94333e-08
1286.78	2.3194e-07
1295.46	6.43485e-07
1304.13	2.84668e-06
1312.81	1.3122e-05
1321.49	5.48014e-05
1330.17	0.000180121
1338.85	0.000417462
1347.52	0.000613365
1356.2	0.00053154
1364.88	0.00021858
1373.56	0.000798898
1382.24	0.000449717
1390.92	8.22253e-05
1399.59	6.13429e-06
1408.27	1.12365e-06
1416.95	6.0848e-07
1425.63	4.19154e-07
1434.31	2.01296e-07
1442.98	1.07577e-07
1451.66	2.88651e-08
1460.34	-2.44596e-08
1469.02	-5.76847e-08
1477.7	-9.33927e-08
1486.38	-1.13509e-07
1495.05	-1.31732e-07
1503.73	-8.68753e-08
1512.41	-1.28089e-07
1521.09	-4.97367e-08
1529.77	-3.99171e-08
1538.44	-4.35932e-08
1547.12	-1.09596e-07
1555.8	-1.57458e-07
1564.48	-1.65276e-07
1573.16	-1.69594e-07
1581.83	-2.04457e-07
1590.51	-1.73794e-07
1599.19	-1.77946e-07
1607.87	-1.88101e-07
1616.55	-1.87157e-07
1625.23	-2.12616e-07
1633.9	-1.62319e-07
1642.58	-1.84623e-07
1651.26	-1.44385e-07
1659.94	-1.78063e-07
1668.62	-1.6396e-07
1677.29	-1.15463e-07
1685.97	-1.08939e-07
1694.65	-1.79063e-07
1703.33	-1.87663e-07
1712.01	-1.9335e-07
1720.69	-1.44525e-07
1729.36	-1.54907e-07
1738.04	-1.49249e-07
1746.72	-1.80456e-07
1755.4	-1.72989e-07
1764.08	-1.48317e-07
1772.75	-1.86036e-07
1781.43	-1.93303e-07
1790.11	-1.75204e-07
1798.79	-1.58424e-07
1807.47	-1.68095e-07
1816.15	-1.69675e-07
1824.82	-1.56498e-07
1833.5	-1.4533e-07
1842.18	-7.56178e-08
1850.86	-3.0594e-08
1859.54	5.40386e-08
1868.21	-1.4589e-08
1876.89	9.58546e-08
1885.57	-3.56925e-08
1894.25	1.87709e-07
1902.93	7.62845e-08
1911.6	-7.66282e-08
1920.28	-1.04738e-07
1928.96	-9.05442e-08
1937.64	-1.60758e-07
1946.32	-1.94889e-07
1955	-2.0428e-07
1963.67	-2.08364e-07
1972.35	-1.61274e-07
1981.03	-2.08378e-07
1989.71	-1.84003e-07
1998.39	-1.7014e-07
2007.06	-1.58621e-07
2015.74	-1.59204e-07
2024.42	-1.7522e-07
2033.1	-1.59621e-07
2041.78	-2.11227e-08
2050.46	6.50014e-08
2059.13	5.56693e-09
2067.81	8.9712e-08
2076.49	3.65284e-08
2085.17	-1.51621e-07
2093.85	-1.96442e-07
2102.52	-1.53678e-07
2111.2	7.52986e-08
2119.88	1.32243e-07
2128.56	-1.39981e-07
2137.24	-1.66462e-07
2145.91	-1.82771e-07
2154.59	8.34875e-08
2163.27	-1.52401e-07
2171.95	-1.67731e-07
2180.63	-1.92252e-07
2189.31	-1.21457e-07
2197.98	-2.13105e-07
2206.66	-8.5633e-08
2215.34	-1.94418e-07
2224.02	-2.1749e-07
2232.7	-1.31467e-07
2241.37	-9.66541e-08
2250.05	-7.45501e-08
2258.73	1.03013e-07
2267.41	2.57366e-07
2276.09	4.09558e-07
2284.77	2.8249e-07
2293.44	1.95642e-07
2302.12	7.46669e-07
2310.8	1.36784e-06
2319.48	1.60568e-06
2328.16	1.52334e-06
2336.83	7.89025e-07
2345.51	9.63829e-07
2354.19	2.33071e-06
2362.87	4.06065e-06
2371.55	1.65321e-06
2380.23	-3.53806e-08
2388.9	-2.69178e-07
2397.58	-2.25525e-07
2406.26	-2.41997e-07
2414.94	-2.16984e-07
2423.62	-1.68754e-07
2432.29	-8.32256e-08
2440.97	3.91795e-08
2449.65	4.90052e-07
2458.33	1.49456e-06
2467.01	4.00022e-06
2475.68	8.64839e-06
2484.36	1.26406e-05
2493.04	1.0369e-05
2501.72	3.35179e-06
2510.4	1.79331e-05
2519.08	9.29977e-06
2527.75	4.6973e-07
2536.43	-1.16755e-07
2545.11	-1.41832e-07
2553.79	-9.47214e-08
2562.47	-1.45581e-07
2571.14	-2.00511e-07
2579.82	-1.24764e-07
2588.5	-1.7577e-07
2597.18	-1.69802e-07
2605.86	-1.74865e-07
2614.54	-1.93516e-07
2623.21	-2.40532e-07
2631.89	-3.13542e-07
2640.57	-4.71313e-07
2649.25	-6.30882e-07
2657.93	-9.05989e-07
2666.6	-9.71514e-07
2675.28	-1.18666e-06
2683.96	-1.18334e-06
2692.64	-1.17268e-06
2701.32	-1.19446e-06
2709.99	-1.17637e-06
2718.67	-1.27684e-06
2727.35	-8.02699e-07
2736.03	-1.10309e-06
2744.71	-1.32982e-06
2753.39	-1.272e-06
2762.06	-1.31559e-06
2770.74	-1.14305e-06
2779.42	-8.3686e-07
2788.1	-3.50843e-07
2796.78	-2.70991e-07
2805.45	-1.78732e-07
2814.13	-2.38026e-07
2822.81	-1.64474e-07
2831.49	-1.88383e-07
2840.17	-1.82153e-07
2848.85	-1.23501e-07
2857.52	-1.58814e-07
2866.2	-1.07535e-07
2874.88	-2.06365e-07
2883.56	-1.84872e-07
2892.24	-1.00086e-07
2900.91	-1.45612e-07
2909.59	-2.33987e-07
2918.27	-1.98881e-07
2926.95	-1.38102e-07
2935.63	-1.8431e-07
2944.31	-1.20681e-07
2952.98	-1.62403e-07
2961.66	-1.50339e-07
2970.34	-1.50889e-07
2979.02	-1.1546e-07
2987.7	-1.33001e-07
2996.37	-2.50017e-07
3005.05	-1.81437e-07
3013.73	-1.21685e-07
3022.41	-1.57352e-07
3031.09	-9.38838e-08
3039.76	-1.94746e-07
3048.44	-1.73999e-07
3057.12	-2.17805e-07
3065.8	-1.71676e-07
3074.48	-8.57594e-08
3083.16	-1.74036e-07
3091.83	-1.84922e-07
3100.51	-1.63101e-07
3109.19	-1.73336e-07
3117.87	-1.87392e-07
3126.55	-1.72731e-07
3135.22	-1.82913e-07
3143.9	-1.63198e-07
3152.58	-6.67958e-08
3161.26	-2.51347e-07
3169.94	-1.25814e-07
3178.62	-1.62797e-07
3187.29	-1.7436e-07
3195.97	-1.51297e-07
3204.65	-1.58019e-07
3213.33	-1.67365e-07
3222.01	-1.19859e-07
3230.68	-7.77906e-08
3239.36	-2.08518e-07
3248.04	3.33688e-09
3256.72	-1.56726e-07
3265.4	-2.35846e-07
3274.07	-2.09645e-07
3282.75	-1.17382e-07
3291.43	-1.87567e-07
3300.11	-1.84009e-07
3308.79	-1.34197e-07
3317.47	-9.36328e-08
3326.14	-6.28924e-08
3334.82	-1.6723e-07
3343.5	-1.17578e-07
3352.18	-1.80436e-07
3360.86	-1.63062e-07
3369.53	-1.8751e-07
3378.21	-1.59034e-07
3386.89	-9.41948e-08
3395.57	-3.00649e-07
3404.25	-1.62411e-07
3412.93	-1.72715e-07
3421.6	-1.36456e-07
3430.28	-1.37104e-07
3438.96	-1.6946e-07
3447.64	-1.02626e-07
3456.32	-5.18331e-08
3464.99	-1.35546e-07
3473.67	-1.25081e-07
3482.35	-1.20854e-07
3491.03	-1.26231e-07
3499.71	-1.0559e-07
3508.39	-1.53729e-07
3517.06	-2.25878e-08
3525.74	-6.11789e-08
3534.42	-2.01385e-07
3543.1	-7.00036e-08
3551.78	-1.18054e-07
3560.45	-1.14022e-07
3569.13	-1.71939e-07
3577.81	-1.60314e-08
3586.49	-1.65735e-07
3595.17	-6.29606e-08
3603.84	-7.94313e-08
3612.52	-7.19626e-08
3621.2	-2.20694e-08
3629.88	-4.65481e-08
3638.56	1.11286e-07
3647.24	-2.39066e-08
3655.91	-4.86308e-08
3664.59	-1.28528e-07
3673.27	-1.43548e-07
3681.95	-5.94773e-08
3690.63	-1.97957e-08
3699.3	-5.37566e-08
3707.98	-5.949e-08
3716.66	-1.41492e-07
3725.34	-7.83626e-08
3734.02	-1.03258e-07
3742.7	-1.03139e-07
3751.37	-1.07072e-07
3760.05	-1.66171e-07
3768.73	-9.72434e-08
3777.41	-1.34119e-07
3786.09	-1.3124e-07
3794.76	-5.39549e-08
3803.44	-7.2441e-08
3812.12	-1.75031e-07
3820.8	-1.04561e-07
3829.48	-1.68305e-07
3838.16	-5.07226e-08
3846.83	-1.15277e-08
3855.51	-1.92679e-07
3864.19	-1.13777e-07
3872.87	-1.66918e-07
3881.55	-1.15739e-07
3890.22	-6.55853e-08
3898.9	-1.12861e-07
3907.58	-2.44565e-07
3916.26	-1.32424e-07
3924.94	-1.18923e-07
3933.61	-1.20428e-07
3942.29	-7.94958e-08
3950.97	-1.7965e-07
3959.65	-8.25726e-08
3968.33	-1.85096e-07
