Infrared Spectrum: Sulfur Dioxide
Formula: S O2
CAS: 7446-09-5
State: gas
Melting point: -72.7 C
Boiling point: -10 C
Class: IUPAC A
Instrument: IFS66V (Bruker)
Instrument parameters: KBr Beam splitter; MCT Detector; Multipass cell
Sampling: 1 L/min Flow
Resolution: 0.9640
Temperature: 23 C
Pressure: 101.3 kPa
Origin: NIST, Anayltical Chemistry Division, 301-975-3108
cm-1	(micromol/mol)-1m-1 (base 10)
575.169	1.67058e-05
583.847	8.65294e-06
592.525	5.69359e-06
601.203	3.34854e-06
609.882	1.93428e-06
618.56	7.69667e-07
627.238	3.87466e-07
635.916	-1.75166e-07
644.594	5.73579e-08
653.272	3.50845e-08
661.951	-5.23339e-08
670.629	-1.48081e-07
679.307	-1.1662e-07
687.985	-1.3121e-07
696.663	-2.99893e-07
705.341	-9.79521e-08
714.019	-2.33415e-07
722.698	-1.99135e-07
731.376	-2.7559e-07
740.054	-2.0692e-07
748.732	-2.79543e-07
757.41	-2.24788e-07
766.088	-2.52653e-07
774.767	-2.03366e-07
783.445	-1.10014e-07
792.123	-2.19775e-07
800.801	-3.72043e-07
809.479	-2.65291e-07
818.157	-1.09976e-07
826.835	-3.14438e-07
835.514	-3.7188e-07
844.192	-3.10898e-07
852.87	-2.62033e-07
861.548	-2.15202e-07
870.226	-2.78613e-07
878.904	-2.32547e-07
887.583	-1.42666e-07
896.261	-1.91864e-07
904.939	-1.04064e-07
913.617	-2.01143e-07
922.295	-2.65851e-07
930.973	-1.43519e-07
939.651	-1.84968e-07
948.33	-2.3644e-07
957.008	-2.39922e-07
965.686	-2.71665e-07
974.364	-2.06081e-07
983.042	-1.96875e-07
991.72	-2.53897e-07
1000.4	-2.42974e-07
1009.08	-2.47048e-07
1017.75	-1.63237e-07
1026.43	-1.93469e-07
1035.11	-1.83493e-07
1043.79	-9.27261e-08
1052.47	1.1082e-07
1061.15	4.65819e-07
1069.82	1.45019e-06
1078.5	3.03492e-06
1087.18	5.45699e-06
1095.86	1.02722e-05
1104.54	1.5479e-05
1113.21	2.11022e-05
1121.89	3.97124e-05
1130.57	3.2544e-05
1139.25	6.16311e-05
1147.93	2.39364e-05
1156.61	4.13562e-05
1165.28	6.12052e-05
1173.96	4.8384e-05
1182.64	3.54068e-05
1191.32	2.01427e-05
1200	1.7257e-05
1208.67	1.0023e-05
1217.35	5.85844e-06
1226.03	3.13186e-06
1234.71	1.35342e-06
1243.39	4.46845e-07
1252.07	3.7893e-08
1260.74	-1.03447e-07
1269.42	-1.87651e-07
1278.1	-2.22299e-07
1286.78	-1.38723e-07
1295.46	1.22648e-07
1304.13	2.06601e-06
1312.81	1.19045e-05
1321.49	5.29436e-05
1330.17	0.000178647
1338.85	0.000420342
1347.52	0.000621465
1356.2	0.000530501
1364.88	0.000202345
1373.56	0.000814091
1382.24	0.00044953
1390.92	7.82775e-05
1399.59	3.98424e-06
1408.27	4.94053e-08
1416.95	-6.92959e-08
1425.63	-4.97818e-08
1434.31	-1.5499e-07
1442.98	-1.72492e-07
1451.66	-1.98987e-07
1460.34	-2.13626e-07
1469.02	-2.16741e-07
1477.7	-2.32327e-07
1486.38	-2.33512e-07
1495.05	-2.38914e-07
1503.73	-1.76921e-07
1512.41	-2.13305e-07
1521.09	-1.19127e-07
1529.77	-1.02141e-07
1538.44	-1.00184e-07
1547.12	-1.66093e-07
1555.8	-2.07811e-07
1564.48	-2.13579e-07
1573.16	-2.12219e-07
1581.83	-2.46705e-07
1590.51	-2.10774e-07
1599.19	-2.15173e-07
1607.87	-2.20422e-07
1616.55	-2.17261e-07
1625.23	-2.49751e-07
1633.9	-1.89392e-07
1642.58	-2.14067e-07
1651.26	-1.66591e-07
1659.94	-2.03926e-07
1668.62	-1.86222e-07
1677.29	-1.33952e-07
1685.97	-1.27369e-07
1694.65	-1.99991e-07
1703.33	-2.0953e-07
1712.01	-2.14445e-07
1720.69	-1.5856e-07
1729.36	-1.69704e-07
1738.04	-1.66326e-07
1746.72	-1.96706e-07
1755.4	-1.86451e-07
1764.08	-1.62395e-07
1772.75	-2.02156e-07
1781.43	-2.0752e-07
1790.11	-1.87077e-07
1798.79	-1.68536e-07
1807.47	-1.80039e-07
1816.15	-1.83024e-07
1824.82	-1.658e-07
1833.5	-1.57695e-07
1842.18	-7.9202e-08
1850.86	-3.8657e-08
1859.54	4.04923e-08
1868.21	-2.21133e-08
1876.89	9.92581e-08
1885.57	-5.22175e-08
1894.25	1.96988e-07
1902.93	8.26072e-08
1911.6	-8.54484e-08
1920.28	-1.17557e-07
1928.96	-9.67897e-08
1937.64	-1.66293e-07
1946.32	-2.06241e-07
1955	-2.17199e-07
1963.67	-2.17113e-07
1972.35	-1.6612e-07
1981.03	-2.17905e-07
1989.71	-1.92528e-07
1998.39	-1.77389e-07
2007.06	-1.62089e-07
2015.74	-1.64543e-07
2024.42	-1.85161e-07
2033.1	-1.65993e-07
2041.78	-2.62552e-08
2050.46	5.89568e-08
2059.13	-1.1405e-09
2067.81	8.31892e-08
2076.49	2.77194e-08
2085.17	-1.6484e-07
2093.85	-2.10732e-07
2102.52	-1.52692e-07
2111.2	9.0105e-08
2119.88	1.4799e-07
2128.56	-1.3813e-07
2137.24	-1.7816e-07
2145.91	-1.93519e-07
2154.59	9.33773e-08
2163.27	-1.79541e-07
2171.95	-1.72205e-07
2180.63	-2.02616e-07
2189.31	-1.16129e-07
2197.98	-2.34925e-07
2206.66	-8.38095e-08
2215.34	-2.00905e-07
2224.02	-2.28959e-07
2232.7	-1.34457e-07
2241.37	-1.01621e-07
2250.05	-8.65616e-08
2258.73	9.90107e-08
2267.41	2.51874e-07
2276.09	4.16801e-07
2284.77	2.64387e-07
2293.44	1.71975e-07
2302.12	7.23601e-07
2310.8	1.36685e-06
2319.48	1.59324e-06
2328.16	1.51625e-06
2336.83	7.62986e-07
2345.51	9.3234e-07
2354.19	2.33106e-06
2362.87	3.95663e-06
2371.55	1.60652e-06
2380.23	-7.61934e-08
2388.9	-2.88585e-07
2397.58	-2.33148e-07
2406.26	-2.53611e-07
2414.94	-2.27456e-07
2423.62	-1.79521e-07
2432.29	-9.71372e-08
2440.97	2.03889e-08
2449.65	4.64307e-07
2458.33	1.45526e-06
2467.01	3.98279e-06
2475.68	8.69154e-06
2484.36	1.27576e-05
2493.04	1.02122e-05
2501.72	2.8351e-06
2510.4	1.82572e-05
2519.08	9.36775e-06
2527.75	3.66832e-07
2536.43	-1.51426e-07
2545.11	-1.62706e-07
2553.79	-1.00455e-07
2562.47	-1.54024e-07
2571.14	-2.11003e-07
2579.82	-1.27341e-07
2588.5	-1.81192e-07
2597.18	-1.75164e-07
2605.86	-1.77132e-07
2614.54	-1.92816e-07
2623.21	-2.43403e-07
2631.89	-3.08523e-07
2640.57	-4.68571e-07
2649.25	-6.24676e-07
2657.93	-9.08633e-07
2666.6	-9.75757e-07
2675.28	-1.19077e-06
2683.96	-1.18776e-06
2692.64	-1.16813e-06
2701.32	-1.19725e-06
2709.99	-1.18164e-06
2718.67	-1.29031e-06
2727.35	-7.99167e-07
2736.03	-1.10044e-06
2744.71	-1.33542e-06
2753.39	-1.2711e-06
2762.06	-1.32181e-06
2770.74	-1.15174e-06
2779.42	-8.43516e-07
2788.1	-3.45724e-07
2796.78	-2.75157e-07
2805.45	-1.78451e-07
2814.13	-2.48178e-07
2822.81	-1.67701e-07
2831.49	-1.92142e-07
2840.17	-1.86369e-07
2848.85	-1.21768e-07
2857.52	-1.59219e-07
2866.2	-1.05675e-07
2874.88	-2.14076e-07
2883.56	-1.86211e-07
2892.24	-1.00148e-07
2900.91	-1.43465e-07
2909.59	-2.4912e-07
2918.27	-2.06371e-07
2926.95	-1.37493e-07
2935.63	-1.89498e-07
2944.31	-1.18359e-07
2952.98	-1.60727e-07
2961.66	-1.48354e-07
2970.34	-1.53307e-07
2979.02	-1.10639e-07
2987.7	-1.29268e-07
2996.37	-2.61095e-07
3005.05	-1.8473e-07
3013.73	-1.1928e-07
3022.41	-1.55736e-07
3031.09	-8.71382e-08
3039.76	-1.99144e-07
3048.44	-1.78529e-07
3057.12	-2.27662e-07
3065.8	-1.7711e-07
3074.48	-8.1534e-08
3083.16	-1.8063e-07
3091.83	-1.89558e-07
3100.51	-1.71246e-07
3109.19	-1.79895e-07
3117.87	-1.88899e-07
3126.55	-1.76374e-07
3135.22	-1.83564e-07
3143.9	-1.66917e-07
3152.58	-5.8864e-08
3161.26	-2.60331e-07
3169.94	-1.21484e-07
3178.62	-1.67161e-07
3187.29	-1.79692e-07
3195.97	-1.51374e-07
3204.65	-1.58635e-07
3213.33	-1.68325e-07
3222.01	-1.23418e-07
3230.68	-6.94177e-08
3239.36	-2.18172e-07
3248.04	1.60852e-08
3256.72	-1.5227e-07
3265.4	-2.45349e-07
3274.07	-2.15003e-07
3282.75	-1.18317e-07
3291.43	-1.98172e-07
3300.11	-1.92128e-07
3308.79	-1.29819e-07
3317.47	-8.59959e-08
3326.14	-5.70123e-08
3334.82	-1.75508e-07
3343.5	-1.23447e-07
3352.18	-1.88654e-07
3360.86	-1.65547e-07
3369.53	-1.87359e-07
3378.21	-1.63372e-07
3386.89	-8.65944e-08
3395.57	-3.22116e-07
3404.25	-1.7516e-07
3412.93	-1.77378e-07
3421.6	-1.37433e-07
3430.28	-1.42232e-07
3438.96	-1.78393e-07
3447.64	-1.02618e-07
3456.32	-4.40011e-08
3464.99	-1.31931e-07
3473.67	-1.22212e-07
3482.35	-1.19249e-07
3491.03	-1.28944e-07
3499.71	-9.83468e-08
3508.39	-1.48167e-07
3517.06	-1.44973e-08
3525.74	-5.8633e-08
3534.42	-2.07957e-07
3543.1	-6.10195e-08
3551.78	-1.24982e-07
3560.45	-1.12868e-07
3569.13	-1.72259e-07
3577.81	-2.17914e-09
3586.49	-1.70046e-07
3595.17	-6.27366e-08
3603.84	-8.08518e-08
3612.52	-7.35395e-08
3621.2	-2.73957e-08
3629.88	-5.40164e-08
3638.56	1.19707e-07
3647.24	-2.14312e-08
3655.91	-4.40102e-08
3664.59	-1.32394e-07
3673.27	-1.42763e-07
3681.95	-5.63866e-08
3690.63	-1.5847e-08
3699.3	-4.72371e-08
3707.98	-6.2944e-08
3716.66	-1.44945e-07
3725.34	-7.50038e-08
3734.02	-9.2135e-08
3742.7	-9.97801e-08
3751.37	-1.03662e-07
3760.05	-1.71382e-07
3768.73	-9.323e-08
3777.41	-1.38102e-07
3786.09	-1.28753e-07
3794.76	-4.75591e-08
3803.44	-7.02581e-08
3812.12	-1.8129e-07
3820.8	-1.00368e-07
3829.48	-1.75242e-07
3838.16	-4.12836e-08
3846.83	-6.08995e-09
3855.51	-1.99897e-07
3864.19	-1.10567e-07
3872.87	-1.71961e-07
3881.55	-1.13761e-07
3890.22	-5.52097e-08
3898.9	-1.10432e-07
3907.58	-2.56913e-07
3916.26	-1.27556e-07
3924.94	-1.20058e-07
3933.61	-1.19874e-07
3942.29	-7.41926e-08
3950.97	-1.80888e-07
3959.65	-7.38106e-08
3968.33	-1.88095e-07
