Infrared Spectrum: Sulfur Dioxide
Formula: S O2
CAS: 7446-09-5
State: gas
Melting point: -72.7 C
Boiling point: -10 C
Class: IUPAC A
Instrument: IFS66V (Bruker)
Instrument parameters: KBr Beam splitter; MCT Detector; Multipass cell
Sampling: 1 L/min Flow
Resolution: 0.9640
Temperature: 23 C
Pressure: 101.3 kPa
Origin: NIST, Anayltical Chemistry Division, 301-975-3108
cm-1	(micromol/mol)-1m-1 (base 10)
575.169	1.66651e-05
583.847	8.90395e-06
592.525	5.6842e-06
601.203	3.28217e-06
609.882	1.82235e-06
618.56	7.69068e-07
627.238	3.85336e-07
635.916	-1.35807e-07
644.594	5.94042e-08
653.272	3.63978e-09
661.951	-7.0651e-08
670.629	-1.69342e-07
679.307	-1.5778e-07
687.985	-1.12769e-07
696.663	-3.01269e-07
705.341	-1.06612e-07
714.019	-2.48753e-07
722.698	-2.12448e-07
731.376	-2.87333e-07
740.054	-2.21062e-07
748.732	-2.75414e-07
757.41	-2.17072e-07
766.088	-2.47565e-07
774.767	-1.92446e-07
783.445	-1.2725e-07
792.123	-2.18218e-07
800.801	-3.45332e-07
809.479	-2.52964e-07
818.157	-1.4305e-07
826.835	-2.83857e-07
835.514	-3.50627e-07
844.192	-3.00072e-07
852.87	-2.53826e-07
861.548	-2.29352e-07
870.226	-2.71994e-07
878.904	-2.32387e-07
887.583	-1.53767e-07
896.261	-1.98569e-07
904.939	-1.12528e-07
913.617	-2.05026e-07
922.295	-2.62275e-07
930.973	-1.52234e-07
939.651	-2.00513e-07
948.33	-2.33155e-07
957.008	-2.45066e-07
965.686	-2.55974e-07
974.364	-2.09881e-07
983.042	-2.02789e-07
991.72	-2.49206e-07
1000.4	-2.29006e-07
1009.08	-2.46643e-07
1017.75	-1.94187e-07
1026.43	-2.00117e-07
1035.11	-1.93792e-07
1043.79	-9.79066e-08
1052.47	1.18603e-07
1061.15	4.74092e-07
1069.82	1.44731e-06
1078.5	3.02376e-06
1087.18	5.48836e-06
1095.86	1.02202e-05
1104.54	1.55093e-05
1113.21	2.15857e-05
1121.89	3.93892e-05
1130.57	3.36155e-05
1139.25	6.087e-05
1147.93	2.54204e-05
1156.61	4.32098e-05
1165.28	6.12919e-05
1173.96	4.8659e-05
1182.64	3.49866e-05
1191.32	2.06117e-05
1200	1.70017e-05
1208.67	1.00298e-05
1217.35	5.87364e-06
1226.03	3.14195e-06
1234.71	1.35042e-06
1243.39	4.349e-07
1252.07	2.94129e-08
1260.74	-9.87033e-08
1269.42	-1.91497e-07
1278.1	-2.24448e-07
1286.78	-1.4251e-07
1295.46	1.18592e-07
1304.13	2.04643e-06
1312.81	1.19738e-05
1321.49	5.27549e-05
1330.17	0.00017812
1338.85	0.00043119
1347.52	0.000637139
1356.2	0.00053738
1364.88	0.000204186
1373.56	0.000824015
1382.24	0.000444067
1390.92	7.85033e-05
1399.59	4.07988e-06
1408.27	9.8094e-08
1416.95	-3.22651e-08
1425.63	-2.80941e-08
1434.31	-1.34937e-07
1442.98	-1.50337e-07
1451.66	-1.80228e-07
1460.34	-1.90045e-07
1469.02	-1.92777e-07
1477.7	-2.13516e-07
1486.38	-2.17907e-07
1495.05	-2.27187e-07
1503.73	-1.74471e-07
1512.41	-1.93885e-07
1521.09	-1.13213e-07
1529.77	-9.88125e-08
1538.44	-9.52964e-08
1547.12	-1.55516e-07
1555.8	-2.03911e-07
1564.48	-2.09317e-07
1573.16	-2.05348e-07
1581.83	-2.35354e-07
1590.51	-2.04201e-07
1599.19	-2.1377e-07
1607.87	-2.07138e-07
1616.55	-2.08684e-07
1625.23	-2.43445e-07
1633.9	-1.86547e-07
1642.58	-1.99675e-07
1651.26	-1.7197e-07
1659.94	-1.97414e-07
1668.62	-1.83295e-07
1677.29	-1.3246e-07
1685.97	-1.29166e-07
1694.65	-1.90314e-07
1703.33	-2.02671e-07
1712.01	-2.0503e-07
1720.69	-1.51796e-07
1729.36	-1.67697e-07
1738.04	-1.67082e-07
1746.72	-1.91431e-07
1755.4	-1.85456e-07
1764.08	-1.65922e-07
1772.75	-2.01765e-07
1781.43	-1.99135e-07
1790.11	-1.8182e-07
1798.79	-1.70597e-07
1807.47	-1.79126e-07
1816.15	-1.77229e-07
1824.82	-1.51401e-07
1833.5	-1.46412e-07
1842.18	-6.18435e-08
1850.86	-2.42779e-08
1859.54	4.22131e-08
1868.21	-8.68745e-09
1876.89	1.10621e-07
1885.57	-4.93853e-08
1894.25	1.63646e-07
1902.93	6.20127e-08
1911.6	-7.55932e-08
1920.28	-1.10601e-07
1928.96	-1.03895e-07
1937.64	-1.55508e-07
1946.32	-2.01887e-07
1955	-2.18821e-07
1963.67	-2.11653e-07
1972.35	-1.71121e-07
1981.03	-2.11345e-07
1989.71	-1.92839e-07
1998.39	-1.81962e-07
2007.06	-1.60738e-07
2015.74	-1.66853e-07
2024.42	-1.88414e-07
2033.1	-1.58904e-07
2041.78	-2.82961e-08
2050.46	6.56706e-08
2059.13	6.15725e-09
2067.81	9.56947e-08
2076.49	3.72673e-08
2085.17	-1.58648e-07
2093.85	-1.89245e-07
2102.52	-1.04242e-07
2111.2	6.10995e-08
2119.88	9.0447e-08
2128.56	-1.12102e-07
2137.24	-1.80587e-07
2145.91	-1.88823e-07
2154.59	3.47625e-08
2163.27	-1.77585e-07
2171.95	-1.22617e-07
2180.63	-1.49138e-07
2189.31	-8.24671e-08
2197.98	-2.26445e-07
2206.66	-9.21659e-08
2215.34	-1.95109e-07
2224.02	-2.24755e-07
2232.7	-1.26134e-07
2241.37	-1.03183e-07
2250.05	-8.02461e-08
2258.73	9.70171e-08
2267.41	2.65344e-07
2276.09	4.47604e-07
2284.77	3.08694e-07
2293.44	1.5704e-07
2302.12	7.43144e-07
2310.8	1.30926e-06
2319.48	1.48524e-06
2328.16	1.68973e-06
2336.83	1.42025e-06
2345.51	1.0166e-06
2354.19	2.08918e-06
2362.87	3.34523e-06
2371.55	1.4065e-06
2380.23	-7.64044e-08
2388.9	-2.8285e-07
2397.58	-2.32418e-07
2406.26	-2.59592e-07
2414.94	-2.33195e-07
2423.62	-1.79259e-07
2432.29	-1.00671e-07
2440.97	2.33612e-08
2449.65	4.69732e-07
2458.33	1.43912e-06
2467.01	3.91022e-06
2475.68	8.55133e-06
2484.36	1.27348e-05
2493.04	1.00492e-05
2501.72	2.8018e-06
2510.4	1.82623e-05
2519.08	9.36738e-06
2527.75	3.76703e-07
2536.43	-1.51981e-07
2545.11	-1.62251e-07
2553.79	-1.11529e-07
2562.47	-1.5774e-07
2571.14	-2.00264e-07
2579.82	-1.34021e-07
2588.5	-1.77409e-07
2597.18	-1.84346e-07
2605.86	-1.79559e-07
2614.54	-1.91952e-07
2623.21	-2.47236e-07
2631.89	-3.03711e-07
2640.57	-4.52262e-07
2649.25	-6.20509e-07
2657.93	-8.94885e-07
2666.6	-1.00078e-06
2675.28	-1.17263e-06
2683.96	-1.18982e-06
2692.64	-1.18576e-06
2701.32	-1.19969e-06
2709.99	-1.17232e-06
2718.67	-1.29448e-06
2727.35	-7.89614e-07
2736.03	-1.09959e-06
2744.71	-1.32512e-06
2753.39	-1.27679e-06
2762.06	-1.31823e-06
2770.74	-1.13899e-06
2779.42	-8.29524e-07
2788.1	-3.60704e-07
2796.78	-2.64825e-07
2805.45	-1.69256e-07
2814.13	-2.34979e-07
2822.81	-1.67463e-07
2831.49	-1.97119e-07
2840.17	-1.748e-07
2848.85	-1.31356e-07
2857.52	-1.65185e-07
2866.2	-1.15995e-07
2874.88	-2.10743e-07
2883.56	-1.73352e-07
2892.24	-1.18485e-07
2900.91	-1.4183e-07
2909.59	-2.4229e-07
2918.27	-1.953e-07
2926.95	-1.51059e-07
2935.63	-1.87306e-07
2944.31	-1.27583e-07
2952.98	-1.63052e-07
2961.66	-1.39163e-07
2970.34	-1.54461e-07
2979.02	-1.08508e-07
2987.7	-1.26459e-07
2996.37	-2.4975e-07
3005.05	-1.84848e-07
3013.73	-1.31707e-07
3022.41	-1.55936e-07
3031.09	-8.6889e-08
3039.76	-1.84503e-07
3048.44	-1.91446e-07
3057.12	-2.11331e-07
3065.8	-1.87717e-07
3074.48	-1.00271e-07
3083.16	-1.72734e-07
3091.83	-1.90262e-07
3100.51	-1.64545e-07
3109.19	-1.75188e-07
3117.87	-1.72032e-07
3126.55	-1.75899e-07
3135.22	-1.72903e-07
3143.9	-1.62688e-07
3152.58	-6.55724e-08
3161.26	-2.40542e-07
3169.94	-1.26583e-07
3178.62	-1.56498e-07
3187.29	-1.81503e-07
3195.97	-1.40345e-07
3204.65	-1.47621e-07
3213.33	-1.69776e-07
3222.01	-1.34404e-07
3230.68	-7.93166e-08
3239.36	-2.00484e-07
3248.04	-1.04191e-08
3256.72	-1.3986e-07
3265.4	-2.29719e-07
3274.07	-2.05532e-07
3282.75	-1.25446e-07
3291.43	-2.1227e-07
3300.11	-1.8158e-07
3308.79	-1.18239e-07
3317.47	-8.47445e-08
3326.14	-8.00315e-08
3334.82	-1.99162e-07
3343.5	-1.42093e-07
3352.18	-1.73171e-07
3360.86	-1.66806e-07
3369.53	-1.53807e-07
3378.21	-1.52631e-07
3386.89	-1.041e-07
3395.57	-2.94613e-07
3404.25	-1.72467e-07
3412.93	-1.54319e-07
3421.6	-1.27763e-07
3430.28	-1.47356e-07
3438.96	-1.76638e-07
3447.64	-1.2348e-07
3456.32	-4.71771e-08
3464.99	-1.24731e-07
3473.67	-1.23461e-07
3482.35	-1.19005e-07
3491.03	-1.49724e-07
3499.71	-8.41733e-08
3508.39	-1.36303e-07
3517.06	-3.07408e-08
3525.74	-7.07801e-08
3534.42	-1.83099e-07
3543.1	-7.16769e-08
3551.78	-1.26006e-07
3560.45	-1.17039e-07
3569.13	-1.56676e-07
3577.81	-2.30174e-08
3586.49	-1.54108e-07
3595.17	-5.54243e-08
3603.84	-7.39379e-08
3612.52	-5.69686e-08
3621.2	-3.44933e-08
3629.88	-5.38836e-08
3638.56	1.04087e-07
3647.24	-5.36781e-09
3655.91	-6.37534e-08
3664.59	-1.24782e-07
3673.27	-1.29901e-07
3681.95	-7.13913e-08
3690.63	-4.28406e-08
3699.3	-5.92005e-08
3707.98	-6.01064e-08
3716.66	-1.34774e-07
3725.34	-6.57634e-08
3734.02	-6.70294e-08
3742.7	-8.36658e-08
3751.37	-1.09241e-07
3760.05	-1.68718e-07
3768.73	-9.21604e-08
3777.41	-1.36036e-07
3786.09	-1.23714e-07
3794.76	-5.55698e-08
3803.44	-7.62807e-08
3812.12	-1.65323e-07
3820.8	-9.77538e-08
3829.48	-1.5326e-07
3838.16	-5.11024e-08
3846.83	-2.64825e-08
3855.51	-1.77578e-07
3864.19	-1.31798e-07
3872.87	-1.50588e-07
3881.55	-1.11092e-07
3890.22	-5.91278e-08
3898.9	-1.09637e-07
3907.58	-2.59605e-07
3916.26	-1.20131e-07
3924.94	-1.3994e-07
3933.61	-1.27229e-07
3942.29	-8.45044e-08
3950.97	-1.8797e-07
3959.65	-6.44737e-08
3968.33	-1.87029e-07
