Infrared Spectrum: Sulfur Dioxide
Formula: S O2
CAS: 7446-09-5
State: gas
Melting point: -72.7 C
Boiling point: -10 C
Class: IUPAC A
Instrument: IFS66V (Bruker)
Instrument parameters: KBr Beam splitter; MCT Detector; Multipass cell
Sampling: 1 L/min Flow
Resolution: 1.9290
Temperature: 23 C
Pressure: 101.3 kPa
Origin: NIST, Anayltical Chemistry Division, 301-975-3108
cm-1	(micromol/mol)-1m-1 (base 10)
574.687	1.62955e-05
583.365	9.23968e-06
592.043	5.71169e-06
600.721	3.39413e-06
609.4	1.52737e-06
618.078	8.529e-07
626.756	3.17905e-07
635.434	-1.60705e-08
644.112	5.24042e-09
652.79	-1.30839e-07
661.469	-1.25356e-07
670.147	-4.45582e-08
678.825	-2.46539e-07
687.503	-4.28902e-08
696.181	-2.59134e-07
704.859	-9.81802e-08
713.537	-2.86558e-07
722.216	-2.4956e-07
730.894	-3.04491e-07
739.572	-2.43087e-07
748.25	-2.93756e-07
756.928	-1.96101e-07
765.606	-2.4115e-07
774.285	-1.54674e-07
782.963	-1.77571e-07
791.641	-2.03189e-07
800.319	-2.93549e-07
808.997	-1.9523e-07
817.675	-1.63017e-07
826.353	-2.54627e-07
835.032	-3.41298e-07
843.71	-2.4846e-07
852.388	-2.54367e-07
861.066	-2.21201e-07
869.744	-2.4277e-07
878.422	-2.156e-07
887.101	-1.59258e-07
895.779	-2.02257e-07
904.457	-1.24464e-07
913.135	-1.9872e-07
921.813	-2.54012e-07
930.491	-1.87429e-07
939.169	-2.35246e-07
947.848	-2.33303e-07
956.526	-2.3281e-07
965.204	-2.02713e-07
973.882	-2.22668e-07
982.56	-2.06247e-07
991.238	-2.50045e-07
999.917	-2.23376e-07
1008.59	-2.4913e-07
1017.27	-2.2849e-07
1025.95	-1.95565e-07
1034.63	-1.87124e-07
1043.31	-7.85827e-08
1051.99	9.43704e-08
1060.66	4.66269e-07
1069.34	1.35232e-06
1078.02	2.96066e-06
1086.7	5.4948e-06
1095.38	9.53702e-06
1104.05	1.4645e-05
1112.73	2.37095e-05
1121.41	3.476e-05
1130.09	4.23032e-05
1138.77	5.37484e-05
1147.45	3.20707e-05
1156.12	4.25689e-05
1164.8	5.96763e-05
1173.48	5.24921e-05
1182.16	3.06087e-05
1190.84	2.39844e-05
1199.51	1.70853e-05
1208.19	1.03617e-05
1216.87	5.94662e-06
1225.55	3.30512e-06
1234.23	1.38843e-06
1242.9	4.9684e-07
1251.58	2.96163e-08
1260.26	-3.52014e-08
1268.94	-2.3188e-07
1277.62	-1.68922e-07
1286.3	-1.82192e-07
1294.97	1.39838e-07
1303.65	1.76918e-06
1312.33	1.10793e-05
1321.01	4.89379e-05
1329.69	0.000167337
1338.36	0.000422335
1347.04	0.000645541
1355.72	0.000535676
1364.4	0.000172944
1373.08	0.000824822
1381.76	0.000471684
1390.43	8.9555e-05
1399.11	5.01589e-06
1407.79	1.98701e-07
1416.47	-7.36879e-08
1425.15	-1.85852e-08
1433.82	-1.51194e-07
1442.5	-1.37593e-07
1451.18	-1.86258e-07
1459.86	-1.86183e-07
1468.54	-1.9997e-07
1477.22	-1.97745e-07
1485.89	-2.3535e-07
1494.57	-2.1478e-07
1503.25	-1.81623e-07
1511.93	-1.63779e-07
1520.61	-1.28183e-07
1529.28	-1.13879e-07
1537.96	-1.18197e-07
1546.64	-1.3639e-07
1555.32	-2.23697e-07
1564	-2.07132e-07
1572.67	-2.06469e-07
1581.35	-2.26338e-07
1590.03	-2.00398e-07
1598.71	-2.21534e-07
1607.39	-1.97635e-07
1616.07	-1.97971e-07
1624.74	-2.28356e-07
1633.42	-1.95404e-07
1642.1	-1.69289e-07
1650.78	-1.98021e-07
1659.46	-1.99095e-07
1668.13	-1.91898e-07
1676.81	-1.40542e-07
1685.49	-1.38477e-07
1694.17	-1.65344e-07
1702.85	-1.9036e-07
1711.53	-1.98706e-07
1720.2	-1.54818e-07
1728.88	-1.83819e-07
1737.56	-1.66403e-07
1746.24	-1.91133e-07
1754.92	-1.9953e-07
1763.59	-1.71682e-07
1772.27	-1.8718e-07
1780.95	-1.81896e-07
1789.63	-1.78105e-07
1798.31	-1.71811e-07
1806.98	-1.7658e-07
1815.66	-1.93002e-07
1824.34	-1.46082e-07
1833.02	-1.54905e-07
1841.7	-9.20648e-08
1850.38	2.51999e-08
1859.05	1.47991e-08
1867.73	4.11103e-08
1876.41	1.6892e-07
1885.09	1.54884e-09
1893.77	9.87995e-08
1902.44	-3.90613e-08
1911.12	-1.25845e-07
1919.8	-1.19511e-07
1928.48	-1.32097e-07
1937.16	-1.51708e-07
1945.84	-1.99516e-07
1954.51	-2.22771e-07
1963.19	-2.0135e-07
1971.87	-1.98666e-07
1980.55	-2.19793e-07
1989.23	-2.06562e-07
1997.9	-1.96668e-07
2006.58	-1.68127e-07
2015.26	-1.67667e-07
2023.94	-1.85305e-07
2032.62	-1.62032e-07
2041.3	-4.14659e-08
2049.97	6.85029e-08
2058.65	1.01771e-08
2067.33	9.56646e-08
2076.01	5.36557e-08
2084.69	-1.52003e-07
2093.36	-1.80389e-07
2102.04	-1.31226e-07
2110.72	-8.59386e-08
2119.4	5.49599e-09
2128.08	-1.35867e-08
2136.75	-1.66254e-07
2145.43	-1.78783e-07
2154.11	-8.27763e-08
2162.79	-6.67313e-08
2171.47	-1.65429e-07
2180.15	1.64152e-08
2188.82	-1.35893e-07
2197.5	-1.61139e-07
2206.18	-1.27212e-07
2214.86	-2.07915e-07
2223.54	-2.36413e-07
2232.21	-1.24953e-07
2240.89	-1.04196e-07
2249.57	-8.03798e-08
2258.25	1.31738e-08
2266.93	2.96972e-07
2275.61	4.51993e-07
2284.28	5.11865e-07
2292.96	1.23877e-07
2301.64	8.0235e-07
2310.32	1.16796e-06
2319	1.31879e-06
2327.67	1.83939e-06
2336.35	2.33363e-06
2345.03	1.30358e-06
2353.71	1.66163e-06
2362.39	3.02168e-06
2371.06	1.48313e-06
2379.74	-4.8257e-08
2388.42	-2.54715e-07
2397.1	-2.51048e-07
2405.78	-2.69453e-07
2414.46	-2.47331e-07
2423.13	-1.86986e-07
2431.81	-1.26031e-07
2440.49	7.39225e-09
2449.17	4.38454e-07
2457.85	1.34964e-06
2466.52	3.62621e-06
2475.2	8.24788e-06
2483.88	1.25487e-05
2492.56	1.03842e-05
2501.24	2.63442e-06
2509.92	1.79724e-05
2518.59	1.01659e-05
2527.27	5.6402e-07
2535.95	-1.51911e-07
2544.63	-1.81065e-07
2553.31	-1.63736e-07
2561.98	-1.69044e-07
2570.66	-1.7109e-07
2579.34	-1.66072e-07
2588.02	-1.79405e-07
2596.7	-1.70453e-07
2605.38	-1.89851e-07
2614.05	-2.17675e-07
2622.73	-2.45792e-07
2631.41	-2.9963e-07
2640.09	-4.30832e-07
2648.77	-6.50385e-07
2657.44	-8.95639e-07
2666.12	-1.00023e-06
2674.8	-1.15403e-06
2683.48	-1.18246e-06
2692.16	-1.2411e-06
2700.83	-1.19163e-06
2709.51	-1.16768e-06
2718.19	-1.2881e-06
2726.87	-7.20567e-07
2735.55	-1.11417e-06
2744.23	-1.3175e-06
2752.9	-1.31588e-06
2761.58	-1.33951e-06
2770.26	-1.13029e-06
2778.94	-8.55088e-07
2787.62	-3.92927e-07
2796.29	-2.57376e-07
2804.97	-1.51873e-07
2813.65	-1.90001e-07
2822.33	-1.4844e-07
2831.01	-2.0048e-07
2839.69	-1.34498e-07
2848.36	-1.41311e-07
2857.04	-1.85214e-07
2865.72	-1.27114e-07
2874.4	-1.70938e-07
2883.08	-1.72663e-07
2891.75	-1.52452e-07
2900.43	-1.55914e-07
2909.11	-1.95123e-07
2917.79	-1.62038e-07
2926.47	-1.73596e-07
2935.14	-1.73723e-07
2943.82	-1.41286e-07
2952.5	-1.86208e-07
2961.18	-1.15989e-07
2969.86	-1.74376e-07
2978.54	-1.0401e-07
2987.21	-1.26184e-07
2995.89	-2.31408e-07
3004.57	-2.14604e-07
3013.25	-1.75817e-07
3021.93	-1.46307e-07
3030.6	-1.11054e-07
3039.28	-1.67926e-07
3047.96	-1.90219e-07
3056.64	-1.69936e-07
3065.32	-2.10772e-07
3074	-1.35857e-07
3082.67	-1.48639e-07
3091.35	-2.09766e-07
3100.03	-1.34791e-07
3108.71	-1.70596e-07
3117.39	-1.63443e-07
3126.06	-1.60344e-07
3134.74	-1.49382e-07
3143.42	-1.46334e-07
3152.1	-9.58164e-08
3160.78	-2.22368e-07
3169.46	-1.1973e-07
3178.13	-1.20877e-07
3186.81	-1.74908e-07
3195.49	-1.46687e-07
3204.17	-1.45402e-07
3212.85	-1.78822e-07
3221.52	-1.09269e-07
3230.2	-1.06082e-07
3238.88	-1.59522e-07
3247.56	-6.09215e-08
3256.24	-1.09787e-07
3264.91	-2.13989e-07
3273.59	-1.94221e-07
3282.27	-1.14393e-07
3290.95	-2.32915e-07
3299.63	-1.68387e-07
3308.31	-1.02967e-07
3316.98	-1.10249e-07
3325.66	-1.10419e-07
3334.34	-2.44564e-07
3343.02	-1.78907e-07
3351.7	-1.64219e-07
3360.37	-1.90273e-07
3369.05	-1.46835e-07
3377.73	-1.16987e-07
3386.41	-1.72018e-07
3395.09	-1.92166e-07
3403.77	-1.29745e-07
3412.44	-1.40223e-07
3421.12	-9.39038e-08
3429.8	-1.48194e-07
3438.48	-1.44882e-07
3447.16	-1.8097e-07
3455.83	-5.63214e-08
3464.51	-1.21842e-07
3473.19	-1.38004e-07
3481.87	-1.21806e-07
3490.55	-1.86711e-07
3499.22	-1.00109e-07
3507.9	-1.45499e-07
3516.58	-7.77251e-08
3525.26	-8.07809e-08
3533.94	-1.26827e-07
3542.62	-1.07208e-07
3551.29	-1.32089e-07
3559.97	-1.47731e-07
3568.65	-1.15858e-07
3577.33	-5.94882e-08
3586.01	-1.23285e-07
3594.68	-5.09718e-08
3603.36	-7.71257e-08
3612.04	-3.56534e-08
3620.72	-7.02028e-08
3629.4	1.45089e-08
3638.08	7.83362e-08
3646.75	3.82073e-09
3655.43	-1.11318e-07
3664.11	-1.08576e-07
3672.79	-1.20919e-07
3681.47	-1.06079e-07
3690.14	-8.44225e-08
3698.82	-8.39814e-08
3707.5	-3.60791e-08
3716.18	-1.39109e-07
3724.86	-6.96007e-08
3733.54	-5.53264e-08
3742.21	-7.69356e-08
3750.89	-1.43451e-07
3759.57	-1.38619e-07
3768.25	-9.95299e-08
3776.93	-1.51884e-07
3785.6	-1.54438e-07
3794.28	-5.73609e-08
3802.96	-1.21534e-07
3811.64	-1.33815e-07
3820.32	-1.04698e-07
3828.99	-1.02216e-07
3837.67	-1.23862e-07
3846.35	-4.9081e-08
3855.03	-1.39076e-07
3863.71	-1.546e-07
3872.39	-9.76145e-08
3881.06	-1.35299e-07
3889.74	-8.62142e-08
3898.42	-1.29419e-07
3907.1	-2.67941e-07
3915.78	-1.21727e-07
3924.45	-1.6671e-07
3933.13	-1.52143e-07
3941.81	-1.19023e-07
3950.49	-1.98306e-07
3959.17	-5.52509e-08
3967.85	-1.81549e-07
