Infrared Spectrum: Sulfur Dioxide
Formula: S O2
CAS: 7446-09-5
State: gas
Melting point: -72.7 C
Boiling point: -10 C
Class: IUPAC A
Instrument: IFS66V (Bruker)
Instrument parameters: KBr Beam splitter; MCT Detector; Multipass cell
Sampling: 1 L/min Flow
Resolution: 1.9290
Temperature: 23 C
Pressure: 101.3 kPa
Origin: NIST, Anayltical Chemistry Division, 301-975-3108
cm-1	(micromol/mol)-1m-1 (base 10)
574.687	1.60038e-05
583.365	9.16971e-06
592.043	5.76076e-06
600.721	3.37229e-06
609.4	1.60397e-06
618.078	8.77294e-07
626.756	3.71908e-07
635.434	4.66563e-10
644.112	3.35807e-08
652.79	-1.14182e-07
661.469	-9.8946e-08
670.147	1.11575e-08
678.825	-2.00774e-07
687.503	-4.84735e-08
696.181	-2.26819e-07
704.859	-1.06205e-07
713.537	-2.6181e-07
722.216	-2.41864e-07
730.894	-2.73954e-07
739.572	-2.39633e-07
748.25	-2.63566e-07
756.928	-1.9075e-07
765.606	-2.1934e-07
774.285	-1.56253e-07
782.963	-1.59236e-07
791.641	-1.96768e-07
800.319	-2.68418e-07
808.997	-1.87928e-07
817.675	-1.44441e-07
826.353	-2.421e-07
835.032	-3.09336e-07
843.71	-2.32137e-07
852.388	-2.28388e-07
861.066	-2.07491e-07
869.744	-2.15258e-07
878.422	-1.97896e-07
887.101	-1.36327e-07
895.779	-1.85082e-07
904.457	-1.05177e-07
913.135	-1.76375e-07
921.813	-2.20253e-07
930.491	-1.63824e-07
939.169	-2.01761e-07
947.848	-2.05219e-07
956.526	-1.95093e-07
965.204	-1.71612e-07
973.882	-1.79633e-07
982.56	-1.68681e-07
991.238	-1.99579e-07
999.917	-1.81317e-07
1008.59	-1.93891e-07
1017.27	-1.72681e-07
1025.95	-1.34917e-07
1034.63	-1.12349e-07
1043.31	-2.76664e-09
1051.99	1.91064e-07
1060.66	5.71931e-07
1069.34	1.49167e-06
1078.02	3.0937e-06
1086.7	5.68606e-06
1095.38	9.66818e-06
1104.05	1.48046e-05
1112.73	2.37912e-05
1121.41	3.47168e-05
1130.09	4.22265e-05
1138.77	5.34067e-05
1147.45	3.25858e-05
1156.12	4.25967e-05
1164.8	5.84418e-05
1173.48	5.23237e-05
1182.16	3.07041e-05
1190.84	2.3946e-05
1199.51	1.73399e-05
1208.19	1.05556e-05
1216.87	6.27696e-06
1225.55	3.55578e-06
1234.23	1.74153e-06
1242.9	7.8988e-07
1251.58	4.25938e-07
1260.26	3.22572e-07
1268.94	2.83753e-07
1277.62	3.74096e-07
1286.3	6.10496e-07
1294.97	1.12668e-06
1303.65	3.35183e-06
1312.33	1.34182e-05
1321.01	5.24227e-05
1329.69	0.000170278
1338.36	0.000419528
1347.04	0.000635537
1355.72	0.000538107
1364.4	0.000215372
1373.08	0.000802005
1381.76	0.000467412
1390.43	9.61753e-05
1399.11	9.29402e-06
1407.79	2.24396e-06
1416.47	1.26053e-06
1425.15	8.51415e-07
1433.82	5.43683e-07
1442.5	3.60213e-07
1451.18	2.48547e-07
1459.86	1.43326e-07
1468.54	9.90005e-08
1477.22	3.84383e-08
1485.89	-1.11902e-08
1494.57	-3.82427e-08
1503.25	-1.26018e-08
1511.93	-2.73253e-08
1520.61	5.07945e-09
1529.28	-4.52921e-09
1537.96	-1.02262e-08
1546.64	-4.81288e-08
1555.32	-1.31755e-07
1564	-1.31166e-07
1572.67	-1.29667e-07
1581.35	-1.5827e-07
1590.03	-1.36602e-07
1598.71	-1.63583e-07
1607.39	-1.43483e-07
1616.07	-1.47733e-07
1624.74	-1.76085e-07
1633.42	-1.49746e-07
1642.1	-1.29332e-07
1650.78	-1.56509e-07
1659.46	-1.58995e-07
1668.13	-1.55256e-07
1676.81	-1.09679e-07
1685.49	-1.07729e-07
1694.17	-1.35441e-07
1702.85	-1.61962e-07
1711.53	-1.69986e-07
1720.2	-1.28343e-07
1728.88	-1.57964e-07
1737.56	-1.41649e-07
1746.24	-1.68808e-07
1754.92	-1.73827e-07
1763.59	-1.53528e-07
1772.27	-1.63592e-07
1780.95	-1.63716e-07
1789.63	-1.57119e-07
1798.31	-1.5614e-07
1806.98	-1.56773e-07
1815.66	-1.74333e-07
1824.34	-1.2902e-07
1833.02	-1.3691e-07
1841.7	-7.48275e-08
1850.38	3.57908e-08
1859.05	2.82657e-08
1867.73	4.99004e-08
1876.41	1.62831e-07
1885.09	1.53238e-08
1893.77	1.11446e-07
1902.44	-2.83312e-08
1911.12	-1.1277e-07
1919.8	-1.12947e-07
1928.48	-1.17769e-07
1937.16	-1.41703e-07
1945.84	-1.84799e-07
1954.51	-2.11467e-07
1963.19	-1.8666e-07
1971.87	-1.89075e-07
1980.55	-2.07271e-07
1989.23	-1.96765e-07
1997.9	-1.8414e-07
2006.58	-1.61994e-07
2015.26	-1.56633e-07
2023.94	-1.78511e-07
2032.62	-1.48733e-07
2041.3	-3.602e-08
2049.97	7.35233e-08
2058.65	1.34685e-08
2067.33	1.01438e-07
2076.01	5.77065e-08
2084.69	-1.35072e-07
2093.36	-1.69211e-07
2102.04	-1.1846e-07
2110.72	-7.68647e-08
2119.4	-2.91034e-11
2128.08	-1.64852e-08
2136.75	-1.54532e-07
2145.43	-1.73712e-07
2154.11	-7.62372e-08
2162.79	-6.17519e-08
2171.47	-1.50809e-07
2180.15	1.67035e-08
2188.82	-1.26029e-07
2197.5	-1.55504e-07
2206.18	-1.18385e-07
2214.86	-2.00728e-07
2223.54	-2.20874e-07
2232.21	-1.2157e-07
2240.89	-9.48951e-08
2249.57	-6.78199e-08
2258.25	2.78765e-08
2266.93	2.89747e-07
2275.61	4.46484e-07
2284.28	5.06971e-07
2292.96	1.58883e-07
2301.64	7.88563e-07
2310.32	1.19214e-06
2319	1.28779e-06
2327.67	1.85902e-06
2336.35	2.28079e-06
2345.03	1.33141e-06
2353.71	1.65251e-06
2362.39	2.95436e-06
2371.06	1.47375e-06
2379.74	1.88262e-10
2388.42	-2.34576e-07
2397.1	-2.27895e-07
2405.78	-2.54037e-07
2414.46	-2.21824e-07
2423.13	-1.68136e-07
2431.81	-9.47142e-08
2440.49	4.11331e-08
2449.17	4.87981e-07
2457.85	1.40715e-06
2466.52	3.67982e-06
2475.2	8.17004e-06
2483.88	1.23445e-05
2492.56	1.04468e-05
2501.24	3.52689e-06
2509.92	1.74354e-05
2518.59	1.00494e-05
2527.27	7.65466e-07
2535.95	-6.68722e-08
2544.63	-1.38135e-07
2553.31	-1.34375e-07
2561.98	-1.52252e-07
2570.66	-1.50363e-07
2579.34	-1.57459e-07
2588.02	-1.67087e-07
2596.7	-1.63159e-07
2605.38	-1.77453e-07
2614.05	-2.15007e-07
2622.73	-2.38437e-07
2631.41	-2.99712e-07
2640.09	-4.27289e-07
2648.77	-6.48004e-07
2657.44	-8.84297e-07
2666.12	-9.9684e-07
2674.8	-1.13964e-06
2683.48	-1.178e-06
2692.16	-1.22659e-06
2700.83	-1.18654e-06
2709.51	-1.16113e-06
2718.19	-1.27244e-06
2726.87	-7.37032e-07
2735.55	-1.11336e-06
2744.23	-1.30196e-06
2752.9	-1.30842e-06
2761.58	-1.32049e-06
2770.26	-1.1217e-06
2778.94	-8.3961e-07
2787.62	-3.99567e-07
2796.29	-2.55717e-07
2804.97	-1.59682e-07
2813.65	-1.84803e-07
2822.33	-1.49422e-07
2831.01	-1.93215e-07
2839.69	-1.37095e-07
2848.36	-1.36968e-07
2857.04	-1.84845e-07
2865.72	-1.25204e-07
2874.4	-1.6884e-07
2883.08	-1.67638e-07
2891.75	-1.50775e-07
2900.43	-1.51183e-07
2909.11	-1.90266e-07
2917.79	-1.55678e-07
2926.47	-1.72549e-07
2935.14	-1.69205e-07
2943.82	-1.43134e-07
2952.5	-1.81691e-07
2961.18	-1.19594e-07
2969.86	-1.68327e-07
2978.54	-1.06556e-07
2987.21	-1.21708e-07
2995.89	-2.24001e-07
3004.57	-2.06825e-07
3013.25	-1.77962e-07
3021.93	-1.41194e-07
3030.6	-1.1483e-07
3039.28	-1.60505e-07
3047.96	-1.85867e-07
3056.64	-1.64871e-07
3065.32	-2.03646e-07
3074	-1.31062e-07
3082.67	-1.46453e-07
3091.35	-1.99522e-07
3100.03	-1.38277e-07
3108.71	-1.65332e-07
3117.39	-1.6169e-07
3126.06	-1.53367e-07
3134.74	-1.51394e-07
3143.42	-1.42547e-07
3152.1	-1.01466e-07
3160.78	-2.10473e-07
3169.46	-1.25354e-07
3178.13	-1.1672e-07
3186.81	-1.70732e-07
3195.49	-1.43091e-07
3204.17	-1.45757e-07
3212.85	-1.72535e-07
3221.52	-1.09001e-07
3230.2	-1.05863e-07
3238.88	-1.59166e-07
3247.56	-5.94991e-08
3256.24	-1.13131e-07
3264.91	-2.03755e-07
3273.59	-1.91619e-07
3282.27	-1.12624e-07
3290.95	-2.24812e-07
3299.63	-1.6046e-07
3308.31	-1.0302e-07
3316.98	-1.06245e-07
3325.66	-1.1372e-07
3334.34	-2.26404e-07
3343.02	-1.74558e-07
3351.7	-1.56351e-07
3360.37	-1.87739e-07
3369.05	-1.41522e-07
3377.73	-1.21282e-07
3386.41	-1.64124e-07
3395.09	-1.88051e-07
3403.77	-1.26113e-07
3412.44	-1.41848e-07
3421.12	-9.21994e-08
3429.8	-1.46083e-07
3438.48	-1.37619e-07
3447.16	-1.76126e-07
3455.83	-5.5752e-08
3464.51	-1.19275e-07
3473.19	-1.3659e-07
3481.87	-1.23316e-07
3490.55	-1.77817e-07
3499.22	-1.10297e-07
3507.9	-1.42443e-07
3516.58	-8.71364e-08
3525.26	-7.99942e-08
3533.94	-1.29237e-07
3542.62	-1.04595e-07
3551.29	-1.30084e-07
3559.97	-1.43634e-07
3568.65	-1.15112e-07
3577.33	-6.13726e-08
3586.01	-1.26774e-07
3594.68	-5.44424e-08
3603.36	-7.38034e-08
3612.04	-3.07641e-08
3620.72	-6.50224e-08
3629.4	2.06779e-08
3638.08	7.09003e-08
3646.75	5.23497e-09
3655.43	-1.09656e-07
3664.11	-1.06647e-07
3672.79	-1.18574e-07
3681.47	-9.71698e-08
3690.14	-8.53311e-08
3698.82	-7.87173e-08
3707.5	-4.49247e-08
3716.18	-1.27665e-07
3724.86	-7.18808e-08
3733.54	-5.49653e-08
3742.21	-8.25389e-08
3750.89	-1.35247e-07
3759.57	-1.34488e-07
3768.25	-9.72525e-08
3776.93	-1.48907e-07
3785.6	-1.46719e-07
3794.28	-6.60446e-08
3802.96	-1.18711e-07
3811.64	-1.29828e-07
3820.32	-9.99728e-08
3828.99	-1.03874e-07
3837.67	-1.16343e-07
3846.35	-5.23324e-08
3855.03	-1.30458e-07
3863.71	-1.4643e-07
3872.39	-9.54354e-08
3881.06	-1.33002e-07
3889.74	-8.32001e-08
3898.42	-1.29345e-07
3907.1	-2.4749e-07
3915.78	-1.25968e-07
3924.45	-1.58316e-07
3933.13	-1.53514e-07
3941.81	-1.13811e-07
3950.49	-1.94493e-07
3959.17	-6.26013e-08
3967.85	-1.7529e-07
