Infrared Spectrum: Sulfur Dioxide
Formula: S O2
CAS: 7446-09-5
State: gas
Melting point: -72.7 C
Boiling point: -10 C
Class: IUPAC A
Instrument: IFS66V (Bruker)
Instrument parameters: KBr Beam splitter; MCT Detector; Multipass cell
Sampling: 1 L/min Flow
Resolution: 1.9290
Temperature: 23 C
Pressure: 101.3 kPa
Origin: NIST, Anayltical Chemistry Division, 301-975-3108
cm-1	(micromol/mol)-1m-1 (base 10)
574.687	1.97793e-05
583.365	1.07756e-05
592.043	6.08506e-06
600.721	3.9312e-06
609.4	1.43679e-06
618.078	1.10642e-06
626.756	2.30741e-07
635.434	1.31432e-07
644.112	-1.64376e-07
652.79	-5.50114e-08
661.469	-1.60008e-07
670.147	3.78726e-07
678.825	-5.2459e-07
687.503	1.67064e-07
696.181	-4.4008e-07
704.859	5.14899e-08
713.537	-4.0873e-07
722.216	-1.83617e-07
730.894	-4.53481e-07
739.572	-1.69203e-07
748.25	-4.61912e-07
756.928	-4.03468e-08
765.606	-3.62224e-07
774.285	-8.50573e-08
782.963	-2.07691e-07
791.641	-4.08106e-08
800.319	-4.6516e-07
808.997	-8.37186e-08
817.675	-1.8564e-07
826.353	-2.10583e-07
835.032	-5.13152e-07
843.71	-1.51055e-07
852.388	-3.19693e-07
861.066	-1.36444e-07
869.744	-3.09518e-07
878.422	-1.53262e-07
887.101	-1.58486e-07
895.779	-1.17099e-07
904.457	-1.45276e-07
913.135	-1.58206e-07
921.813	-2.59969e-07
930.491	-1.00097e-07
939.169	-2.6387e-07
947.848	-2.09985e-07
956.526	-2.45369e-07
965.204	-1.58515e-07
973.882	-2.64834e-07
982.56	-1.82675e-07
991.238	-2.56627e-07
999.917	-2.4737e-07
1008.59	-3.08392e-07
1017.27	-2.09536e-07
1025.95	-1.66611e-07
1034.63	-2.05614e-07
1043.31	-4.05087e-08
1051.99	5.44403e-08
1060.66	5.07806e-07
1069.34	1.24031e-06
1078.02	3.17316e-06
1086.7	5.26191e-06
1095.38	9.85485e-06
1104.05	1.3204e-05
1112.73	2.59353e-05
1121.41	3.47406e-05
1130.09	3.80292e-05
1138.77	5.49682e-05
1147.45	3.40539e-05
1156.12	4.66447e-05
1164.8	4.726e-05
1173.48	5.80686e-05
1182.16	2.75196e-05
1190.84	2.51423e-05
1199.51	1.7225e-05
1208.19	1.07592e-05
1216.87	5.02421e-06
1225.55	3.89077e-06
1234.23	8.86094e-07
1242.9	1.00454e-06
1251.58	-4.37499e-07
1260.26	4.74697e-07
1268.94	-7.47284e-07
1277.62	3.6351e-07
1286.3	-7.289e-07
1294.97	7.32294e-07
1303.65	1.11052e-06
1312.33	1.1758e-05
1321.01	4.78774e-05
1329.69	0.000167948
1338.36	0.000420619
1347.04	0.000650757
1355.72	0.000523115
1364.4	0.000161172
1373.08	0.000830707
1381.76	0.000470255
1390.43	8.94668e-05
1399.11	4.28147e-06
1407.79	6.7446e-07
1416.47	-4.20143e-07
1425.15	2.83695e-07
1433.82	-3.9553e-07
1442.5	6.06994e-08
1451.18	-3.5785e-07
1459.86	-4.93435e-08
1468.54	-3.55385e-07
1477.22	-7.68064e-08
1485.89	-3.63228e-07
1494.57	-1.36271e-07
1503.25	-2.57679e-07
1511.93	-7.44454e-08
1520.61	-1.80739e-07
1529.28	-5.01547e-08
1537.96	-1.81372e-07
1546.64	-1.14408e-07
1555.32	-2.69462e-07
1564	-1.62444e-07
1572.67	-2.35398e-07
1581.35	-1.83757e-07
1590.03	-2.2947e-07
1598.71	-2.114e-07
1607.39	-2.24289e-07
1616.07	-1.90558e-07
1624.74	-2.59783e-07
1633.42	-1.89052e-07
1642.1	-1.88137e-07
1650.78	-1.92306e-07
1659.46	-2.35878e-07
1668.13	-2.07111e-07
1676.81	-1.61025e-07
1685.49	-1.29739e-07
1694.17	-1.53062e-07
1702.85	-2.41273e-07
1711.53	-2.09934e-07
1720.2	-1.50199e-07
1728.88	-1.89399e-07
1737.56	-1.67785e-07
1746.24	-1.99062e-07
1754.92	-2.06647e-07
1763.59	-1.68801e-07
1772.27	-2.11977e-07
1780.95	-1.67999e-07
1789.63	-1.91186e-07
1798.31	-1.38528e-07
1806.98	-1.77123e-07
1815.66	-2.2185e-07
1824.34	-1.51454e-07
1833.02	-1.83824e-07
1841.7	-1.1397e-07
1850.38	6.95141e-08
1859.05	-4.42812e-08
1867.73	8.32966e-08
1876.41	2.27587e-07
1885.09	3.31182e-08
1893.77	1.83842e-07
1902.44	-3.21687e-08
1911.12	-2.43425e-07
1919.8	-1.366e-07
1928.48	-1.45256e-07
1937.16	-1.23018e-07
1945.84	-2.25492e-07
1954.51	-2.19002e-07
1963.19	-2.05827e-07
1971.87	-1.6126e-07
1980.55	-2.82855e-07
1989.23	-1.79826e-07
1997.9	-2.13852e-07
2006.58	-1.25688e-07
2015.26	-1.87468e-07
2023.94	-1.76205e-07
2032.62	-1.87624e-07
2041.3	-1.57378e-08
2049.97	5.7909e-08
2058.65	5.81164e-09
2067.33	7.22899e-08
2076.01	6.42536e-08
2084.69	-1.52734e-07
2093.36	-2.24722e-07
2102.04	-2.6663e-07
2110.72	-1.7193e-07
2119.4	1.59441e-07
2128.08	1.00751e-07
2136.75	-2.40007e-07
2145.43	-1.66573e-07
2154.11	-6.57088e-08
2162.79	-6.2009e-09
2171.47	-2.79672e-07
2180.15	1.54431e-07
2188.82	-2.18618e-07
2197.5	-1.38619e-07
2206.18	-1.27338e-07
2214.86	-2.102e-07
2223.54	-2.94537e-07
2232.21	-8.35039e-08
2240.89	-1.41769e-07
2249.57	-4.76009e-08
2258.25	-6.24747e-08
2266.93	3.03169e-07
2275.61	5.05991e-07
2284.28	6.14692e-07
2292.96	6.07939e-08
2301.64	7.52183e-07
2310.32	9.93825e-07
2319	2.0586e-06
2327.67	1.43387e-06
2336.35	2.57364e-06
2345.03	1.1727e-06
2353.71	1.70757e-06
2362.39	2.95369e-06
2371.06	1.55486e-06
2379.74	-1.42352e-07
2388.42	-2.12464e-07
2397.1	-3.0988e-07
2405.78	-2.25079e-07
2414.46	-3.00572e-07
2423.13	-1.33155e-07
2431.81	-1.58382e-07
2440.49	5.85693e-08
2449.17	4.1701e-07
2457.85	1.42244e-06
2466.52	3.52445e-06
2475.2	8.46429e-06
2483.88	1.25293e-05
2492.56	1.02332e-05
2501.24	2.32398e-06
2509.92	1.80882e-05
2518.59	1.01186e-05
2527.27	5.85853e-07
2535.95	-1.66562e-07
2544.63	-1.56349e-07
2553.31	-2.21381e-07
2561.98	-1.11482e-07
2570.66	-1.95659e-07
2579.34	-1.18981e-07
2588.02	-2.34385e-07
2596.7	-8.24853e-08
2605.38	-1.99257e-07
2614.05	-1.99318e-07
2622.73	-2.7792e-07
2631.41	-2.46435e-07
2640.09	-4.57845e-07
2648.77	-6.14952e-07
2657.44	-9.70886e-07
2666.12	-9.52945e-07
2674.8	-1.15743e-06
2683.48	-1.12552e-06
2692.16	-1.25162e-06
2700.83	-1.09743e-06
2709.51	-1.23403e-06
2718.19	-1.30211e-06
2726.87	-7.49154e-07
2735.55	-1.10022e-06
2744.23	-1.32768e-06
2752.9	-1.3108e-06
2761.58	-1.4517e-06
2770.26	-1.10015e-06
2778.94	-9.17239e-07
2787.62	-3.3486e-07
2796.29	-2.93296e-07
2804.97	-1.06803e-07
2813.65	-2.53711e-07
2822.33	-1.27636e-07
2831.01	-2.55487e-07
2839.69	-2.31847e-08
2848.36	-1.3517e-07
2857.04	-1.27771e-07
2865.72	-1.38812e-07
2874.4	-1.07094e-07
2883.08	-2.19904e-07
2891.75	-9.11273e-08
2900.43	-1.67448e-07
2909.11	-1.70156e-07
2917.79	-2.26558e-07
2926.47	-1.8318e-07
2935.14	-2.07373e-07
2943.82	-5.85875e-08
2952.5	-2.23045e-07
2961.18	-3.72072e-08
2969.86	-2.40817e-07
2978.54	-2.78213e-08
2987.21	-1.46175e-07
2995.89	-2.31973e-07
3004.57	-3.035e-07
3013.25	-1.55654e-07
3021.93	-1.39579e-07
3030.6	-4.51671e-08
3039.28	-2.30279e-07
3047.96	-1.39079e-07
3056.64	-2.20599e-07
3065.32	-1.99595e-07
3074	-1.37819e-07
3082.67	-1.04102e-07
3091.35	-2.87579e-07
3100.03	-1.18365e-07
3108.71	-2.0525e-07
3117.39	-1.36907e-07
3126.06	-1.97967e-07
3134.74	-1.21039e-07
3143.42	-2.3041e-07
3152.1	-5.86039e-08
3160.78	-2.65153e-07
3169.46	-2.97094e-08
3178.13	-1.27971e-07
3186.81	-1.30181e-07
3195.49	-2.25732e-07
3204.17	-1.28236e-07
3212.85	-2.84179e-07
3221.52	-7.77905e-08
3230.2	-1.39838e-07
3238.88	-1.42095e-07
3247.56	-3.16812e-08
3256.24	-4.82175e-08
3264.91	-3.11791e-07
3273.59	-1.67872e-07
3282.27	-1.25861e-07
3290.95	-1.93194e-07
3299.63	-2.41251e-07
3308.31	-1.5756e-08
3316.98	-1.30555e-07
3325.66	-8.37877e-08
3334.34	-2.73529e-07
3343.02	-1.77494e-07
3351.7	-2.80767e-07
3360.37	-2.21148e-07
3369.05	-1.98816e-07
3377.73	-1.51365e-07
3386.41	-1.56092e-07
3395.09	-1.96084e-07
3403.77	-2.19716e-07
3412.44	-1.92705e-07
3421.12	-1.38825e-07
3429.8	-1.09748e-07
3438.48	-1.99917e-07
3447.16	-1.99164e-07
3455.83	-2.99313e-08
3464.51	-8.51737e-08
3473.19	-1.65225e-07
3481.87	-8.53211e-08
3490.55	-2.2111e-07
3499.22	-9.42304e-08
3507.9	-2.06169e-07
3516.58	-2.57895e-08
3525.26	-7.91984e-08
3533.94	-7.79578e-08
3542.62	-8.89536e-08
3551.29	-9.66952e-08
3559.97	-2.2693e-07
3568.65	-8.08882e-08
3577.33	-7.12258e-08
3586.01	-1.24487e-07
3594.68	-1.07909e-07
3603.36	-4.31517e-08
3612.04	-6.10941e-08
3620.72	-1.0125e-07
3629.4	-2.95912e-08
3638.08	1.4816e-07
3646.75	-5.34635e-08
3655.43	-5.7678e-08
3664.11	-1.83424e-07
3672.79	-8.8306e-08
3681.47	-1.08064e-07
3690.14	-3.83077e-08
3698.82	-1.06303e-07
3707.5	1.17542e-08
3716.18	-1.6212e-07
3724.86	-6.27948e-08
3733.54	-7.98387e-08
3742.21	-6.72441e-08
3750.89	-1.68603e-07
3759.57	-7.00489e-08
3768.25	-1.456e-07
3776.93	-1.16206e-07
3785.6	-2.17865e-07
3794.28	2.22116e-08
3802.96	-1.7593e-07
3811.64	-1.32484e-07
3820.32	-1.19292e-07
3828.99	-6.50267e-08
3837.67	-2.18058e-07
3846.35	-1.23891e-08
3855.03	-1.82627e-07
3863.71	-9.78939e-08
3872.39	-1.33271e-07
3881.06	-1.08509e-07
3889.74	-8.4397e-08
3898.42	-1.76748e-07
3907.1	-3.02527e-07
3915.78	-1.1295e-07
3924.45	-2.19258e-07
3933.13	-1.5234e-07
3941.81	-1.60774e-07
3950.49	-2.47168e-07
3959.17	-8.95829e-08
3967.85	-1.13375e-07
