Infrared Spectrum: Sulfur Dioxide
Formula: S O2
CAS: 7446-09-5
State: gas
Melting point: -72.7 C
Boiling point: -10 C
Class: IUPAC A
Instrument: IFS66V (Bruker)
Instrument parameters: KBr Beam splitter; MCT Detector; Multipass cell
Sampling: 1 L/min Flow
Resolution: 0.9640
Temperature: 23 C
Pressure: 101.3 kPa
Origin: NIST, Anayltical Chemistry Division, 301-975-3108
cm-1	(micromol/mol)-1m-1 (base 10)
575.169	1.49135e-05
583.847	6.85214e-06
592.525	5.18095e-06
601.203	3.55111e-06
609.882	2.25869e-06
618.56	8.36653e-07
627.238	3.41086e-07
635.916	-2.85038e-07
644.594	-1.08124e-07
653.272	1.20202e-07
661.951	2.09165e-08
670.629	7.35304e-08
679.307	3.76238e-08
687.985	-2.66877e-07
696.663	-2.08e-07
705.341	-6.35242e-08
714.019	-1.72619e-07
722.698	-1.29557e-07
731.376	-1.76232e-07
740.054	-1.30523e-07
748.732	-2.60472e-07
757.41	-1.75408e-07
766.088	-2.6054e-07
774.767	-2.36775e-07
783.445	-7.17096e-08
792.123	-1.93865e-07
800.801	-4.53541e-07
809.479	-2.95291e-07
818.157	-4.38647e-08
826.835	-4.32339e-07
835.514	-4.05098e-07
844.192	-4.02133e-07
852.87	-3.00585e-07
861.548	-1.6178e-07
870.226	-2.83433e-07
878.904	-2.17357e-07
887.583	-7.11549e-08
896.261	-1.48745e-07
904.939	-7.32722e-08
913.617	-1.38735e-07
922.295	-3.02056e-07
930.973	-1.06025e-07
939.651	-8.12156e-08
948.33	-2.28286e-07
957.008	-1.91164e-07
965.686	-2.83786e-07
974.364	-1.77434e-07
983.042	-1.15702e-07
991.72	-2.40538e-07
1000.4	-2.80216e-07
1009.08	-2.1018e-07
1017.75	1.02954e-09
1026.43	-1.2866e-07
1035.11	-1.28542e-07
1043.79	9.74246e-09
1052.47	1.1632e-07
1061.15	4.73506e-07
1069.82	1.49159e-06
1078.5	3.09919e-06
1087.18	5.54968e-06
1095.86	1.03863e-05
1104.54	1.55037e-05
1113.21	1.9558e-05
1121.89	3.79562e-05
1130.57	3.21162e-05
1139.25	6.1273e-05
1147.93	2.0833e-05
1156.61	3.39531e-05
1165.28	6.14381e-05
1173.96	4.61603e-05
1182.64	3.70894e-05
1191.32	2.07095e-05
1200	1.80582e-05
1208.67	1.02251e-05
1217.35	5.85528e-06
1226.03	3.09538e-06
1234.71	1.3705e-06
1243.39	5.73526e-07
1252.07	1.39416e-07
1260.74	-8.77694e-08
1269.42	-1.23622e-07
1278.1	-1.22496e-07
1286.78	-5.86876e-08
1295.46	2.16855e-07
1304.13	2.19704e-06
1312.81	1.17258e-05
1321.49	5.4171e-05
1330.17	0.000180135
1338.85	0.000379853
1347.52	0.000557862
1356.2	0.000502804
1364.88	0.000196188
1373.56	0.000740429
1382.24	0.000493165
1390.92	7.60317e-05
1399.59	3.10917e-06
1408.27	-5.89881e-07
1416.95	-5.51577e-07
1425.63	-4.33259e-07
1434.31	-4.64873e-07
1442.98	-4.40677e-07
1451.66	-4.22056e-07
1460.34	-4.53941e-07
1469.02	-4.23973e-07
1477.7	-4.36175e-07
1486.38	-4.07837e-07
1495.05	-3.74381e-07
1503.73	-2.79399e-07
1512.41	-3.66406e-07
1521.09	-2.46017e-07
1529.77	-2.11698e-07
1538.44	-1.87853e-07
1547.12	-2.76958e-07
1555.8	-2.90378e-07
1564.48	-2.99655e-07
1573.16	-2.86406e-07
1581.83	-3.37817e-07
1590.51	-3.09025e-07
1599.19	-2.76572e-07
1607.87	-3.04977e-07
1616.55	-2.72794e-07
1625.23	-3.10893e-07
1633.9	-2.40302e-07
1642.58	-3.08856e-07
1651.26	-1.91017e-07
1659.94	-2.66128e-07
1668.62	-2.33199e-07
1677.29	-1.52765e-07
1685.97	-1.6819e-07
1694.65	-2.53913e-07
1703.33	-2.62759e-07
1712.01	-2.77176e-07
1720.69	-2.3924e-07
1729.36	-2.19322e-07
1738.04	-1.8968e-07
1746.72	-2.51387e-07
1755.4	-2.26316e-07
1764.08	-1.73756e-07
1772.75	-2.38181e-07
1781.43	-2.79877e-07
1790.11	-2.32367e-07
1798.79	-1.92595e-07
1807.47	-1.84405e-07
1816.15	-2.51961e-07
1824.82	-2.73957e-07
1833.5	-2.46404e-07
1842.18	-1.82809e-07
1850.86	-1.35234e-07
1859.54	3.22578e-08
1868.21	-9.83341e-08
1876.89	6.2884e-08
1885.57	-3.2829e-08
1894.25	2.55056e-07
1902.93	1.2012e-07
1911.6	-1.77694e-07
1920.28	-1.90507e-07
1928.96	-1.27923e-07
1937.64	-2.50574e-07
1946.32	-2.48835e-07
1955	-2.31658e-07
1963.67	-2.47751e-07
1972.35	-1.72092e-07
1981.03	-2.44143e-07
1989.71	-2.27423e-07
1998.39	-1.88934e-07
2007.06	-2.01394e-07
2015.74	-1.62962e-07
2024.42	-1.80532e-07
2033.1	-2.09712e-07
2041.78	-4.50907e-08
2050.46	1.95122e-08
2059.13	-6.79225e-08
2067.81	2.69355e-08
2076.49	6.91212e-11
2085.17	-1.42575e-07
2093.85	-2.21841e-07
2102.52	-3.6928e-07
2111.2	7.76777e-08
2119.88	3.08639e-07
2128.56	-1.87766e-07
2137.24	-2.03449e-07
2145.91	-1.88303e-07
2154.59	2.83783e-07
2163.27	-1.14348e-07
2171.95	-3.74435e-07
2180.63	-3.6902e-07
2189.31	-3.28499e-07
2197.98	-2.50363e-07
2206.66	-1.07223e-07
2215.34	-2.57056e-07
2224.02	-2.6307e-07
2232.7	-1.85443e-07
2241.37	-1.20822e-07
2250.05	-1.58413e-07
2258.73	7.12258e-08
2267.41	1.97538e-07
2276.09	2.38747e-07
2284.77	1.39576e-07
2293.44	2.06582e-07
2302.12	5.58018e-07
2310.8	1.32145e-06
2319.48	1.50582e-06
2328.16	1.02826e-06
2336.83	-9.99375e-07
2345.51	8.33091e-07
2354.19	3.13198e-06
2362.87	7.11878e-06
2371.55	3.13194e-06
2380.23	-1.38663e-07
2388.9	-3.32531e-07
2397.58	-2.80445e-07
2406.26	-2.109e-07
2414.94	-1.97478e-07
2423.62	-2.12133e-07
2432.29	-1.16146e-07
2440.97	-1.92685e-08
2449.65	4.15813e-07
2458.33	1.5091e-06
2467.01	4.18378e-06
2475.68	9.02835e-06
2484.36	1.27408e-05
2493.04	1.10732e-05
2501.72	3.208e-06
2510.4	1.79414e-05
2519.08	9.46e-06
2527.75	3.53371e-07
2536.43	-1.31592e-07
2545.11	-1.67846e-07
2553.79	-7.37578e-08
2562.47	-1.52783e-07
2571.14	-2.50341e-07
2579.82	-1.33804e-07
2588.5	-1.81347e-07
2597.18	-1.25528e-07
2605.86	-1.64039e-07
2614.54	-2.04388e-07
2623.21	-2.13847e-07
2631.89	-3.26276e-07
2640.57	-5.44244e-07
2649.25	-6.84662e-07
2657.93	-9.7804e-07
2666.6	-8.4992e-07
2675.28	-1.30147e-06
2683.96	-1.18228e-06
2692.64	-1.14373e-06
2701.32	-1.22238e-06
2709.99	-1.20787e-06
2718.67	-1.27361e-06
2727.35	-7.9934e-07
2736.03	-1.15885e-06
2744.71	-1.38031e-06
2753.39	-1.29263e-06
2762.06	-1.29946e-06
2770.74	-1.19582e-06
2779.42	-8.83746e-07
2788.1	-2.89392e-07
2796.78	-3.25308e-07
2805.45	-2.58635e-07
2814.13	-2.97498e-07
2822.81	-1.38897e-07
2831.49	-1.57184e-07
2840.17	-2.74189e-07
2848.85	-5.57299e-08
2857.52	-1.64932e-07
2866.2	-4.76827e-08
2874.88	-1.85201e-07
2883.56	-2.30625e-07
2892.24	-6.44756e-08
2900.91	-1.76752e-07
2909.59	-2.13352e-07
2918.27	-2.28273e-07
2926.95	-7.97204e-08
2935.63	-1.88679e-07
2944.31	-9.04124e-08
2952.98	-1.20107e-07
2961.66	-1.86496e-07
2970.34	-1.32296e-07
2979.02	-1.01008e-07
2987.7	-1.71443e-07
2996.37	-2.67974e-07
3005.05	-1.82576e-07
3013.73	-5.74725e-08
3022.41	-1.52762e-07
3031.09	-9.62895e-08
3039.76	-2.52636e-07
3048.44	-1.47907e-07
3057.12	-2.44982e-07
3065.8	-1.17617e-07
3074.48	-7.3123e-10
3083.16	-2.41881e-07
3091.83	-1.90653e-07
3100.51	-1.76332e-07
3109.19	-2.15287e-07
3117.87	-2.51281e-07
3126.55	-1.59575e-07
3135.22	-2.15726e-07
3143.9	-1.64929e-07
3152.58	-3.63396e-08
3161.26	-3.33344e-07
3169.94	-1.15e-07
3178.62	-1.82587e-07
3187.29	-1.57409e-07
3195.97	-2.27143e-07
3204.65	-2.47683e-07
3213.33	-1.37735e-07
3222.01	-7.2892e-08
3230.68	-5.78108e-08
3239.36	-2.78624e-07
3248.04	7.51402e-08
3256.72	-1.98551e-07
3265.4	-3.2141e-07
3274.07	-2.7694e-07
3282.75	-6.0532e-08
3291.43	-1.28358e-07
3300.11	-2.31729e-07
3308.79	-2.03466e-07
3317.47	-1.31776e-07
3326.14	1.78151e-08
3334.82	-1.36858e-07
3343.5	-7.13604e-08
3352.18	-2.75515e-07
3360.86	-1.75308e-07
3369.53	-3.03346e-07
3378.21	-1.82848e-07
3386.89	-7.30084e-08
3395.57	-3.81558e-07
3404.25	-1.42646e-07
3412.93	-2.51698e-07
3421.6	-1.80594e-07
3430.28	-1.21117e-07
3438.96	-1.11582e-07
3447.64	-4.0425e-08
3456.32	-4.33827e-09
3464.99	-1.21817e-07
3473.67	-1.4528e-07
3482.35	-1.19694e-07
3491.03	-3.93627e-08
3499.71	-1.60627e-07
3508.39	-2.27214e-07
3517.06	4.14491e-08
3525.74	2.18823e-09
3534.42	-3.26256e-07
3543.1	-3.92936e-08
3551.78	-1.11922e-07
3560.45	-1.28438e-07
3569.13	-2.73324e-07
3577.81	6.02519e-08
3586.49	-1.96204e-07
3595.17	-9.18821e-08
3603.84	-9.78284e-08
3612.52	-1.26226e-07
3621.2	1.42972e-09
3629.88	-7.27974e-08
3638.56	2.07133e-07
3647.24	-1.03273e-07
3655.91	2.53639e-08
3664.59	-1.25777e-07
3673.27	-1.98274e-07
3681.95	-3.47734e-08
3690.63	6.33915e-08
3699.3	-1.8881e-08
3707.98	-9.05761e-08
3716.66	-1.88796e-07
3725.34	-1.19733e-07
3734.02	-2.09868e-07
3742.7	-1.66515e-07
3751.37	-6.71131e-08
3760.05	-1.79546e-07
3768.73	-9.50381e-08
3777.41	-1.58046e-07
3786.09	-1.58188e-07
3794.76	-2.11547e-08
3803.44	-4.62075e-08
3812.12	-2.63759e-07
3820.8	-1.17008e-07
3829.48	-2.09099e-07
3838.16	-2.05999e-08
3846.83	7.24645e-08
3855.51	-2.61813e-07
3864.19	-2.0378e-08
3872.87	-2.53575e-07
3881.55	-1.21626e-07
3890.22	-4.42685e-08
3898.9	-5.38182e-08
3907.58	-2.40067e-07
3916.26	-1.67657e-07
3924.94	-6.39553e-09
3933.61	-8.42915e-08
3942.29	-5.2725e-08
3950.97	-1.57338e-07
3959.65	-9.03524e-08
3968.33	-2.21368e-07
