Infrared Spectrum: Sulfur Dioxide
Formula: S O2
CAS: 7446-09-5
State: gas
Melting point: -72.7 C
Boiling point: -10 C
Class: IUPAC A
Instrument: IFS66V (Bruker)
Instrument parameters: KBr Beam splitter; MCT Detector; Multipass cell
Sampling: 1 L/min Flow
Resolution: 0.4820
Temperature: 23 C
Pressure: 101.3 kPa
Origin: NIST, Anayltical Chemistry Division, 301-975-3108
cm-1	(micromol/mol)-1m-1 (base 10)
574.928	1.99698e-05
583.606	9.4627e-06
592.284	6.51175e-06
600.962	4.19744e-06
609.641	2.19359e-06
618.319	1.24336e-06
626.997	3.56593e-07
635.675	-2.46921e-07
644.353	2.16591e-07
653.031	-3.20184e-07
661.71	1.95322e-08
670.388	-1.84485e-07
679.066	-1.54953e-07
687.744	-2.18592e-07
696.422	-3.45952e-07
705.1	-4.0345e-09
713.778	-2.25033e-07
722.457	-1.81054e-07
731.135	-2.75674e-07
739.813	-3.01587e-07
748.491	-3.8687e-07
757.169	-1.70202e-07
765.847	-2.58006e-07
774.526	-4.88978e-08
783.204	-1.12762e-07
791.882	-1.80867e-07
800.56	-2.98762e-07
809.238	-1.7878e-07
817.916	-1.60165e-07
826.594	-3.28682e-07
835.273	-4.58383e-07
843.951	-2.49608e-07
852.629	-2.89032e-07
861.307	-2.95493e-07
869.985	-2.49131e-07
878.663	-1.92381e-07
887.342	-6.04138e-08
896.02	-1.68914e-07
904.698	-6.17253e-08
913.376	-2.31312e-07
922.054	-2.82135e-07
930.732	-1.1528e-07
939.41	-1.95888e-07
948.089	-2.45013e-07
956.767	-2.17093e-07
965.445	-2.19482e-07
974.123	-1.21519e-07
982.801	-1.99811e-07
991.479	-3.08299e-07
1000.16	-2.94809e-07
1008.84	-2.33306e-07
1017.51	-4.73135e-08
1026.19	-2.07617e-07
1034.87	-2.22803e-07
1043.55	-1.91648e-08
1052.23	7.37578e-08
1060.9	5.20055e-07
1069.58	1.3462e-06
1078.26	2.97309e-06
1086.94	5.39019e-06
1095.62	1.00806e-05
1104.3	1.37966e-05
1112.97	2.31353e-05
1121.65	3.7322e-05
1130.33	2.9006e-05
1139.01	4.90647e-05
1147.69	2.35178e-05
1156.36	4.03875e-05
1165.04	5.56117e-05
1173.72	5.79016e-05
1182.4	3.38139e-05
1191.08	2.09342e-05
1199.76	1.75802e-05
1208.43	1.02932e-05
1217.11	5.32687e-06
1225.79	3.22174e-06
1234.47	1.43849e-06
1243.15	4.97144e-07
1251.82	1.65398e-07
1260.5	-8.02807e-08
1269.18	-1.02814e-07
1277.86	-1.70726e-07
1286.54	-1.0346e-07
1295.21	1.55679e-07
1303.89	1.96139e-06
1312.57	1.0604e-05
1321.25	5.59423e-05
1329.93	0.00015906
1338.61	0.000409571
1347.28	0.000599486
1355.96	0.000511108
1364.64	0.000165009
1373.32	0.000719803
1382	0.000483557
1390.67	8.73442e-05
1399.35	4.48542e-06
1408.03	6.8672e-08
1416.71	-9.20622e-08
1425.39	-6.46011e-08
1434.07	-1.40722e-07
1442.74	-2.55707e-07
1451.42	-2.48425e-07
1460.1	-2.76312e-07
1468.78	-2.73458e-07
1477.46	-2.54892e-07
1486.13	-2.8096e-07
1494.81	-3.06673e-07
1503.49	-2.09941e-07
1512.17	-2.04311e-07
1520.85	-1.43307e-07
1529.52	-1.24422e-07
1538.2	-1.50804e-07
1546.88	-2.22112e-07
1555.56	-2.17907e-07
1564.24	-2.36988e-07
1572.92	-2.54681e-07
1581.59	-2.42605e-07
1590.27	-2.54539e-07
1598.95	-2.63585e-07
1607.63	-2.63532e-07
1616.31	-2.46465e-07
1624.98	-2.71201e-07
1633.66	-2.04226e-07
1642.34	-2.14554e-07
1651.02	-1.63359e-07
1659.7	-2.10507e-07
1668.38	-2.34352e-07
1677.05	-8.22088e-08
1685.73	-1.57636e-07
1694.41	-2.44864e-07
1703.09	-2.30088e-07
1711.77	-2.69129e-07
1720.44	-1.68679e-07
1729.12	-1.90645e-07
1737.8	-1.73043e-07
1746.48	-1.65078e-07
1755.16	-1.55152e-07
1763.84	-1.8961e-07
1772.51	-2.01719e-07
1781.19	-1.91411e-07
1789.87	-2.00621e-07
1798.55	-1.243e-07
1807.23	-2.15793e-07
1815.9	-2.59357e-07
1824.58	-1.68639e-07
1833.26	-1.99075e-07
1841.94	-3.77147e-08
1850.62	-1.70675e-08
1859.29	4.86868e-08
1867.97	4.0636e-09
1876.65	1.45306e-07
1885.33	-5.62138e-08
1894.01	4.16026e-07
1902.69	-1.35552e-07
1911.36	-1.89387e-07
1920.04	-2.00057e-07
1928.72	-1.1552e-07
1937.4	-1.76827e-07
1946.08	-1.71035e-07
1954.75	-2.2967e-07
1963.43	-2.11707e-07
1972.11	-1.71037e-07
1980.79	-2.55267e-07
1989.47	-1.84781e-07
1998.15	-1.69669e-07
2006.82	-1.66087e-07
2015.5	-1.49358e-07
2024.18	-2.23911e-07
2032.86	-1.87797e-07
2041.54	-1.72367e-08
2050.21	5.48804e-08
2058.89	-1.51958e-08
2067.57	1.14325e-07
2076.25	8.19196e-08
2084.93	-1.53315e-07
2093.6	-2.04613e-07
2102.28	-2.10696e-07
2110.96	-1.51663e-07
2119.64	5.19981e-07
2128.32	-1.45413e-07
2137	-1.66264e-07
2145.67	-1.95371e-07
2154.35	8.71564e-08
2163.03	-1.36975e-07
2171.71	-2.17461e-07
2180.39	-2.12681e-07
2189.06	-1.55779e-07
2197.74	-2.6152e-07
2206.42	1.3646e-08
2215.1	-2.6432e-07
2223.78	-3.13037e-07
2232.46	-1.3274e-07
2241.13	-1.04419e-07
2249.81	-9.06089e-08
2258.49	3.29435e-08
2267.17	2.73291e-07
2275.85	3.8421e-07
2284.52	3.85615e-07
2293.2	1.45797e-07
2301.88	6.95332e-07
2310.56	1.27072e-06
2319.24	2.92022e-06
2327.92	5.22202e-07
2336.59	5.44495e-07
2345.27	2.32922e-07
2353.95	5.67305e-07
2362.63	5.12483e-06
2371.31	2.67743e-06
2379.98	-4.10162e-08
2388.66	-3.13938e-07
2397.34	-2.59328e-07
2406.02	-2.85376e-07
2414.7	-2.39649e-07
2423.37	-1.66331e-07
2432.05	-8.6709e-08
2440.73	1.48301e-08
2449.41	4.15984e-07
2458.09	1.65569e-06
2466.77	3.48011e-06
2475.44	7.8952e-06
2484.12	1.52331e-05
2492.8	1.03448e-05
2501.48	2.54309e-06
2510.16	2.04262e-05
2518.83	9.56411e-06
2527.51	4.19477e-07
2536.19	-1.61755e-07
2544.87	-1.85289e-07
2553.55	-1.56703e-07
2562.23	-1.85489e-07
2570.9	-2.21794e-07
2579.58	-1.43758e-07
2588.26	-1.1851e-07
2596.94	-1.48167e-07
2605.62	-1.8113e-07
2614.29	-2.61837e-07
2622.97	-2.37357e-07
2631.65	-2.85855e-07
2640.33	-4.83607e-07
2649.01	-6.48967e-07
2657.68	-9.61498e-07
2666.36	-9.01587e-07
2675.04	-1.16869e-06
2683.72	-1.15071e-06
2692.4	-1.17685e-06
2701.08	-1.17905e-06
2709.75	-1.17314e-06
2718.43	-1.28155e-06
2727.11	-7.25076e-07
2735.79	-1.11021e-06
2744.47	-1.30815e-06
2753.14	-1.34678e-06
2761.82	-1.40763e-06
2770.5	-1.2247e-06
2779.18	-9.65376e-07
2787.86	-3.63969e-07
2796.54	-3.39293e-07
2805.21	-1.6303e-07
2813.89	-2.30574e-07
2822.57	-1.64883e-07
2831.25	-1.80583e-07
2839.93	-1.89107e-07
2848.6	-1.07343e-07
2857.28	-2.20566e-07
2865.96	-9.43268e-08
2874.64	-2.03442e-07
2883.32	-1.84757e-07
2892	-2.07054e-08
2900.67	-9.53382e-08
2909.35	-2.42616e-07
2918.03	-1.93843e-07
2926.71	-1.25808e-07
2935.39	-2.74017e-07
2944.06	-4.43158e-08
2952.74	-1.19596e-07
2961.42	-4.82557e-08
2970.1	-2.24346e-07
2978.78	-1.09077e-07
2987.45	-8.60578e-08
2996.13	-2.90404e-07
3004.81	-2.52482e-07
3013.49	-1.07322e-07
3022.17	-1.14405e-07
3030.85	-8.95629e-08
3039.52	-2.2766e-07
3048.2	-1.48391e-07
3056.88	-2.07064e-07
3065.56	-1.90123e-07
3074.24	-1.45038e-07
3082.91	-1.27447e-07
3091.59	-1.6254e-07
3100.27	-1.73711e-07
3108.95	-1.28438e-07
3117.63	-1.99533e-07
3126.31	-1.46737e-07
3134.98	-1.83903e-07
3143.66	-2.40336e-07
3152.34	-9.01214e-08
3161.02	-3.05767e-07
3169.7	-9.23296e-08
3178.37	-1.56712e-07
3187.05	-6.02755e-08
3195.73	-3.43591e-07
3204.41	-1.84217e-07
3213.09	-2.15496e-07
3221.77	-9.0205e-08
3230.44	-8.76767e-08
3239.12	-2.5248e-07
3247.8	4.54436e-08
3256.48	-1.35381e-07
3265.16	-3.21699e-07
3273.83	-1.93701e-07
3282.51	-9.0587e-08
3291.19	-1.91113e-07
3299.87	-1.63976e-07
3308.55	-1.60671e-07
3317.22	-1.04846e-08
3325.9	-1.30636e-07
3334.58	-2.02962e-07
3343.26	-1.45955e-07
3351.94	-1.54082e-07
3360.62	-2.68136e-07
3369.29	-2.22638e-07
3377.97	-1.23994e-07
3386.65	-1.77009e-07
3395.33	-2.85174e-07
3404.01	-1.65785e-07
3412.68	-2.19533e-07
3421.36	-6.32023e-08
3430.04	-7.20807e-08
3438.72	-2.34707e-07
3447.4	-1.98542e-07
3456.08	-9.80012e-08
3464.75	-4.02067e-08
3473.43	-1.87157e-07
3482.11	-1.74118e-07
3490.79	-2.49033e-07
3499.47	-1.12176e-08
3508.14	-2.03746e-07
3516.82	1.7324e-08
3525.5	-2.71046e-08
3534.18	-1.7639e-07
3542.86	-4.80866e-08
3551.53	-1.43461e-07
3560.21	-1.11258e-07
3568.89	-1.97099e-07
3577.57	2.05254e-08
3586.25	-2.63845e-07
3594.93	-1.40018e-07
3603.6	-1.38443e-08
3612.28	-6.92704e-08
3620.96	-7.39834e-08
3629.64	8.62742e-08
3638.32	7.89456e-08
3646.99	-6.34788e-08
3655.67	-4.01758e-08
3664.35	-1.38641e-07
3673.03	-1.44409e-07
3681.71	5.26249e-08
3690.39	-6.11396e-08
3699.06	-8.21924e-08
3707.74	-3.8817e-08
3716.42	-1.00311e-07
3725.1	-6.88648e-08
3733.78	-1.4611e-07
3742.45	-1.44187e-07
3751.13	-1.3993e-07
3759.81	-1.42728e-07
3768.49	-8.99104e-08
3777.17	-1.83519e-07
3785.85	-1.19927e-07
3794.52	-3.73582e-08
3803.2	-9.63859e-08
3811.88	-1.32898e-07
3820.56	-9.50344e-08
3829.24	-1.43907e-07
3837.91	-1.2922e-07
3846.59	1.3475e-08
3855.27	-1.73622e-07
3863.95	-7.87436e-08
3872.63	-1.30899e-07
3881.3	-1.11614e-07
3889.98	-2.63097e-08
3898.66	-2.01625e-07
3907.34	-3.1367e-07
3916.02	-1.45568e-07
3924.7	-1.37246e-07
3933.37	-2.3015e-07
3942.05	-8.24926e-08
3950.73	-2.30612e-07
3959.41	-9.72827e-08
3968.09	-2.42439e-07
