Infrared Spectrum: Sulfur Dioxide
Formula: S O2
CAS: 7446-09-5
State: gas
Melting point: -72.7 C
Boiling point: -10 C
Class: IUPAC A
Instrument: IFS66V (Bruker)
Instrument parameters: KBr Beam splitter; MCT Detector; Multipass cell
Sampling: 1 L/min Flow
Resolution: 0.1250
Temperature: 23 C
Pressure: 101.3 kPa
Origin: NIST, Anayltical Chemistry Division, 301-975-3108
cm-1	(micromol/mol)-1m-1 (base 10)
574.988	1.24316e-05
583.546	9.32798e-06
592.103	1.04536e-05
600.661	3.75891e-06
609.219	6.69303e-07
617.776	1.53857e-06
626.334	2.86688e-07
634.891	1.40094e-07
643.449	3.01836e-07
652.007	6.90394e-08
660.564	-7.44998e-07
669.122	9.08399e-08
677.68	1.13104e-08
686.237	6.33098e-07
694.795	-7.39197e-08
703.352	7.46873e-09
711.91	-4.0604e-07
720.468	-1.96093e-07
729.025	-6.38335e-08
737.583	-7.6339e-08
746.141	-3.59076e-07
754.698	-3.45843e-08
763.256	-7.04691e-07
771.813	-5.56068e-07
780.371	-2.2113e-07
788.929	-1.29921e-07
797.486	-2.95026e-07
806.044	4.69806e-08
814.602	-3.70173e-07
823.159	-2.19573e-07
831.717	-6.22017e-07
840.274	-1.44609e-08
848.832	-5.07641e-07
857.39	2.33666e-08
865.947	-2.12535e-07
874.505	-4.35447e-07
883.063	-9.66224e-08
891.62	-3.19429e-07
900.178	-1.16833e-07
908.735	-2.65091e-07
917.293	-1.81658e-07
925.851	-1.58331e-07
934.408	-3.19127e-07
942.966	-2.83732e-07
951.524	-1.66684e-07
960.081	-2.2523e-07
968.639	-1.11664e-07
977.196	-1.75906e-07
985.754	7.29065e-08
994.312	-1.65605e-07
1002.87	-3.95897e-07
1011.43	-4.15853e-07
1019.98	-2.30679e-07
1028.54	-7.48947e-08
1037.1	-5.14086e-07
1045.66	-7.86436e-08
1054.22	1.34746e-07
1062.77	2.28233e-07
1071.33	1.73492e-06
1079.89	3.10697e-06
1088.45	6.96267e-06
1097	1.09346e-05
1105.56	1.54933e-05
1114.12	1.77933e-05
1122.68	4.26871e-05
1131.23	4.84918e-05
1139.79	8.27712e-05
1148.35	2.00964e-05
1156.91	4.07215e-05
1165.46	6.10718e-05
1174.02	4.57291e-05
1182.58	3.99488e-05
1191.14	2.31865e-05
1199.69	1.81011e-05
1208.25	6.92297e-06
1216.81	7.4112e-06
1225.37	3.16996e-06
1233.93	1.36052e-06
1242.48	4.66296e-07
1251.04	6.67475e-08
1259.6	-1.0503e-07
1268.16	-2.63252e-07
1276.71	-9.99639e-08
1285.27	-1.17457e-07
1293.83	-3.44497e-08
1302.39	1.25458e-06
1310.94	7.17609e-06
1319.5	4.23753e-05
1328.06	0.000124358
1336.62	0.00044283
1345.17	0.000650867
1353.73	0.000496745
1362.29	0.000153921
1370.85	0.000644397
1379.4	0.000591145
1387.96	0.000162364
1396.52	1.26222e-05
1405.08	3.68398e-07
1413.64	2.07005e-07
1422.19	-8.49918e-08
1430.75	-2.44204e-07
1439.31	-1.32145e-07
1447.87	-2.03899e-07
1456.42	-1.9991e-07
1464.98	-1.51627e-07
1473.54	-3.1174e-07
1482.1	-1.2553e-07
1490.65	-2.72652e-07
1499.21	-1.819e-07
1507.77	-2.36167e-07
1516.33	-1.53587e-07
1524.88	-8.8186e-08
1533.44	-2.04408e-07
1542	-5.37745e-08
1550.56	-2.12782e-07
1559.11	-6.41882e-08
1567.67	-2.70229e-07
1576.23	-3.44848e-07
1584.79	-7.40998e-08
1593.35	-3.05128e-07
1601.9	-1.96632e-07
1610.46	-1.62895e-07
1619.02	-1.80505e-07
1627.58	-1.94824e-07
1636.13	-9.3541e-08
1644.69	-1.36394e-07
1653.25	-1.56742e-07
1661.81	-9.72863e-08
1670.36	-8.99831e-08
1678.92	-2.35629e-07
1687.48	-5.99245e-08
1696.04	-9.2386e-08
1704.59	-1.76274e-07
1713.15	-2.42779e-07
1721.71	-2.40267e-07
1730.27	-8.80477e-08
1738.83	-2.64843e-07
1747.38	-9.04233e-08
1755.94	-2.31472e-07
1764.5	-1.60008e-07
1773.06	-1.64012e-07
1781.61	-2.13486e-07
1790.17	-1.29435e-07
1798.73	-2.44978e-07
1807.29	-1.67837e-07
1815.84	-3.4054e-07
1824.4	-6.22273e-08
1832.96	-1.9305e-07
1841.52	-1.10619e-07
1850.07	2.81373e-07
1858.63	-3.42805e-08
1867.19	1.48611e-07
1875.75	3.04241e-07
1884.3	5.44252e-07
1892.86	-8.39623e-08
1901.42	-2.2193e-07
1909.98	-1.41229e-07
1918.54	-1.8256e-07
1927.09	-1.54266e-07
1935.65	-2.0266e-07
1944.21	-2.70451e-07
1952.77	-2.39485e-07
1961.32	-2.07757e-07
1969.88	-2.58292e-07
1978.44	-2.68198e-07
1987	-1.86033e-07
1995.55	-1.0758e-07
2004.11	-2.21663e-07
2012.67	-1.97396e-08
2021.23	-2.14687e-07
2029.78	-2.18192e-07
2038.34	-1.16988e-07
2046.9	5.18809e-08
2055.46	1.52218e-07
2064.01	-5.21556e-08
2072.57	1.77367e-07
2081.13	-5.75853e-08
2089.69	-1.54419e-07
2098.25	-1.64045e-07
2106.8	-1.62293e-07
2115.36	-1.27747e-08
2123.92	-4.37592e-08
2132.48	-1.61005e-07
2141.03	-2.08557e-07
2149.59	-1.88788e-07
2158.15	2.3329e-07
2166.71	-2.07858e-07
2175.26	-1.29073e-07
2183.82	-1.85707e-07
2192.38	-9.15293e-08
2200.94	-1.42177e-07
2209.49	1.88166e-07
2218.05	-2.4327e-07
2226.61	-6.5818e-08
2235.17	-1.98585e-07
2243.72	-4.24714e-08
2252.28	1.82471e-07
2260.84	4.8092e-08
2269.4	3.87366e-07
2277.96	1.84306e-07
2286.51	1.75402e-07
2295.07	1.04049e-07
2303.63	9.71866e-07
2312.19	8.17399e-07
2320.74	9.80805e-07
2329.3	6.23645e-07
2337.86	2.60797e-06
2346.42	3.16013e-07
2354.97	5.64389e-07
2363.53	5.16361e-07
2372.09	-7.44054e-08
2380.65	1.62961e-07
2389.2	-2.96679e-07
2397.76	-2.00181e-07
2406.32	-7.40561e-08
2414.88	-2.53777e-07
2423.44	-2.44647e-07
2431.99	-1.38135e-07
2440.55	8.99431e-08
2449.11	4.68235e-07
2457.67	9.6247e-07
2466.22	3.14743e-06
2474.78	5.7569e-06
2483.34	1.4112e-05
2491.9	9.18209e-06
2500.45	2.58991e-06
2509.01	1.99883e-05
2517.57	1.01265e-05
2526.13	8.35599e-07
2534.68	-2.61635e-07
2543.24	-1.58706e-07
2551.8	-1.04188e-07
2560.36	-2.31023e-07
2568.91	-2.72969e-07
2577.47	-2.68763e-07
2586.03	-2.43925e-08
2594.59	-3.28815e-07
2603.15	-1.44158e-07
2611.7	-2.14509e-07
2620.26	-1.44151e-07
2628.82	-1.6954e-07
2637.38	-4.3518e-07
2645.93	-4.93871e-07
2654.49	-6.80257e-07
2663.05	-8.4261e-07
2671.61	-1.14671e-06
2680.16	-1.11141e-06
2688.72	-1.26616e-06
2697.28	-1.15172e-06
2705.84	-1.05394e-06
2714.39	-1.02703e-06
2722.95	-1.12221e-06
2731.51	-1.02527e-06
2740.07	-1.21699e-06
2748.62	-1.29255e-06
2757.18	-1.393e-06
2765.74	-1.2656e-06
2774.3	-1.00984e-06
2782.86	-8.5838e-07
2791.41	-1.99806e-07
2799.97	-1.4399e-07
2808.53	-2.15411e-07
2817.09	-1.13965e-07
2825.64	-1.73767e-08
2834.2	-4.57255e-08
2842.76	3.11955e-09
2851.32	-2.61424e-07
2859.87	-3.86322e-07
2868.43	-2.9884e-07
2876.99	-1.8194e-07
2885.55	-1.08911e-07
2894.1	-1.98798e-07
2902.66	-1.71746e-07
2911.22	-2.22218e-07
2919.78	-1.21208e-07
2928.34	-2.52107e-07
2936.89	-3.50874e-07
2945.45	1.68674e-08
2954.01	6.9274e-08
2962.57	-6.21236e-08
2971.12	-8.73147e-08
2979.68	-5.35344e-08
2988.24	-3.45623e-07
2996.8	-2.0682e-07
3005.35	-7.53185e-08
3013.91	-2.74735e-07
3022.47	-2.56858e-07
3031.03	5.4031e-08
3039.58	-1.284e-07
3048.14	-1.18135e-07
3056.7	-1.50055e-07
3065.26	-3.54232e-07
3073.81	-1.66351e-07
3082.37	-2.11677e-07
3090.93	-1.73058e-07
3099.49	-1.25981e-07
3108.05	-1.24491e-07
3116.6	-2.35343e-07
3125.16	-1.25053e-07
3133.72	-3.01423e-08
3142.28	-8.24653e-08
3150.83	-4.12945e-07
3159.39	-2.41797e-07
3167.95	-9.11345e-08
3176.51	-8.83733e-08
3185.06	-2.691e-07
3193.62	-2.22512e-07
3202.18	-9.3692e-08
3210.74	1.21235e-08
3219.29	-2.53655e-07
3227.85	-2.86164e-07
3236.41	-2.91155e-07
3244.97	-2.98889e-07
3253.52	-1.99073e-07
3262.08	1.31081e-07
3270.64	-2.11817e-07
3279.2	-3.14505e-07
3287.76	-3.40455e-07
3296.31	-2.53784e-08
3304.87	7.58151e-09
3313.43	-1.24464e-07
3321.99	-1.33422e-07
3330.54	-2.94862e-07
3339.1	-1.73343e-07
3347.66	-1.20244e-07
3356.22	2.56822e-08
3364.77	1.5716e-08
3373.33	-4.80029e-09
3381.89	-5.24412e-09
3390.45	7.52439e-08
3399	-2.39425e-07
3407.56	2.21632e-07
3416.12	-2.12511e-08
3424.68	4.90724e-08
3433.23	-1.85279e-07
3441.79	1.01395e-07
3450.35	-2.99864e-07
3458.91	-1.67799e-07
3467.47	-2.9233e-07
3476.02	-2.80174e-07
3484.58	-1.04391e-07
3493.14	-2.36744e-07
3501.7	-2.93489e-07
3510.25	-1.66338e-07
3518.81	-1.44864e-07
3527.37	-5.41419e-08
3535.93	1.23609e-07
3544.48	-1.47563e-07
3553.04	-1.79642e-08
3561.6	-2.01838e-07
3570.16	-1.56867e-07
3578.71	-2.98498e-07
3587.27	-1.86224e-07
3595.83	-3.1361e-08
3604.39	1.13641e-07
3612.95	4.89706e-08
3621.5	-6.04174e-08
3630.06	-3.19793e-07
3638.62	1.71226e-07
3647.18	-3.36495e-07
3655.73	-8.85734e-08
3664.29	1.06767e-07
3672.85	1.36798e-07
3681.41	-1.98734e-07
3689.96	-2.24873e-07
3698.52	-1.57427e-07
3707.08	-1.32889e-07
3715.64	-2.20542e-07
3724.19	-2.39853e-07
3732.75	-9.86651e-08
3741.31	-8.03589e-08
3749.87	-1.87173e-07
3758.42	-1.87104e-07
3766.98	-2.32153e-07
3775.54	-1.98722e-07
3784.1	-3.08723e-07
3792.66	-3.14234e-07
3801.21	-1.64363e-08
3809.77	-1.88323e-07
3818.33	-3.36126e-07
3826.89	-1.58537e-07
3835.44	5.90659e-08
3844	-2.50092e-08
3852.56	-2.79313e-07
3861.12	1.15727e-07
3869.67	1.20564e-07
3878.23	-2.13899e-07
3886.79	4.64222e-08
3895.35	-4.03444e-07
3903.9	-1.03955e-08
3912.46	-2.93129e-08
3921.02	1.88688e-07
3929.58	-2.67637e-07
3938.13	-9.80812e-08
3946.69	-4.05622e-07
3955.25	-3.02573e-07
3963.81	-6.61418e-08
3972.37	-1.39398e-07
