Infrared Spectrum: Sulfur Dioxide
Formula: S O2
CAS: 7446-09-5
State: gas
Melting point: -72.7 C
Boiling point: -10 C
Class: IUPAC A
Instrument: IFS66V (Bruker)
Instrument parameters: KBr Beam splitter; MCT Detector; Multipass cell
Sampling: 1 L/min Flow
Resolution: 0.2410
Temperature: 23 C
Pressure: 101.3 kPa
Origin: NIST, Anayltical Chemistry Division, 301-975-3108
cm-1	(micromol/mol)-1m-1 (base 10)
575.048	1.3282e-05
583.606	8.3012e-06
592.163	7.95173e-06
600.721	3.71324e-06
609.279	1.48049e-06
617.836	9.53948e-07
626.394	5.04581e-07
634.951	1.22921e-07
643.509	-1.52039e-07
652.067	-1.22154e-07
660.624	-3.47345e-07
669.182	2.01819e-07
677.74	-3.80585e-08
686.297	1.74711e-07
694.855	1.53935e-07
703.412	-2.8116e-08
711.97	-1.93392e-07
720.528	-2.21557e-07
729.085	-1.65136e-07
737.643	-2.87794e-07
746.201	-2.90164e-07
754.758	-1.5826e-07
763.316	-4.4843e-07
771.873	-3.27591e-07
780.431	-2.25395e-07
788.989	-2.40256e-07
797.546	-2.10032e-07
806.104	-2.64763e-07
814.662	-4.51107e-07
823.219	-4.0628e-07
831.777	-3.13247e-07
840.334	-7.28101e-08
848.892	-2.3718e-07
857.45	-1.55419e-07
866.007	-1.20416e-07
874.565	-3.48811e-07
883.123	-1.7533e-07
891.68	-3.50043e-07
900.238	-9.59639e-08
908.795	-2.47385e-07
917.353	-1.72217e-07
925.911	-2.15957e-07
934.468	-3.19628e-07
943.026	-2.95017e-07
951.584	-1.49618e-07
960.141	-1.95036e-07
968.699	-1.16151e-07
977.256	-1.00915e-07
985.814	-2.63188e-08
994.372	-2.12277e-07
1002.93	-2.42188e-07
1011.49	-2.61531e-07
1020.04	-2.65602e-07
1028.6	-1.61478e-07
1037.16	-4.27431e-07
1045.72	1.84463e-08
1054.28	1.5979e-07
1062.83	5.0239e-07
1071.39	1.753e-06
1079.95	3.051e-06
1088.51	6.6336e-06
1097.06	1.02529e-05
1105.62	1.6578e-05
1114.18	2.02999e-05
1122.74	3.86609e-05
1131.29	4.34053e-05
1139.85	7.25716e-05
1148.41	1.93201e-05
1156.97	4.11003e-05
1165.52	6.39886e-05
1174.08	4.35933e-05
1182.64	3.7308e-05
1191.2	2.13121e-05
1199.75	1.62114e-05
1208.31	8.5633e-06
1216.87	6.82638e-06
1225.43	3.33698e-06
1233.99	1.51351e-06
1242.54	5.11192e-07
1251.1	-4.35282e-09
1259.66	-5.74543e-08
1268.22	-1.87966e-07
1276.77	-9.97711e-08
1285.33	-6.4481e-08
1293.89	1.52951e-07
1302.45	1.54175e-06
1311	7.60679e-06
1319.56	4.70207e-05
1328.12	0.000137741
1336.68	0.000412972
1345.23	0.000627982
1353.79	0.000554328
1362.35	0.000168559
1370.91	0.000694525
1379.46	0.00056459
1388.02	0.000143686
1396.58	1.30956e-05
1405.14	6.47955e-07
1413.7	2.70457e-07
1422.25	1.12018e-07
1430.81	-8.76767e-08
1439.37	-1.36938e-07
1447.93	-1.97472e-07
1456.48	-1.31538e-07
1465.04	-1.07729e-07
1473.6	-2.66064e-07
1482.16	-8.4779e-08
1490.71	-1.86473e-07
1499.27	-1.6646e-07
1507.83	-1.57715e-07
1516.39	-1.66404e-07
1524.94	-6.47575e-08
1533.5	-1.5939e-07
1542.06	-7.67737e-08
1550.62	-1.6152e-07
1559.18	-1.13397e-07
1567.73	-2.70137e-07
1576.29	-2.9577e-07
1584.85	-1.7611e-07
1593.41	-2.69109e-07
1601.96	-1.43992e-07
1610.52	-1.82298e-07
1619.08	-1.77782e-07
1627.64	-1.78959e-07
1636.19	-1.44805e-07
1644.75	-1.87575e-07
1653.31	-1.64958e-07
1661.87	-1.84788e-07
1670.42	-1.06048e-07
1678.98	-1.9586e-07
1687.54	-1.01828e-07
1696.1	-1.98767e-07
1704.65	-2.02167e-07
1713.21	-2.23853e-07
1721.77	-2.20138e-07
1730.33	-1.14325e-07
1738.89	-1.5843e-07
1747.44	-1.05626e-07
1756	-2.0553e-07
1764.56	-1.91306e-07
1773.12	-1.89625e-07
1781.67	-2.27944e-07
1790.23	-1.45093e-07
1798.79	-2.32184e-07
1807.35	-1.67013e-07
1815.9	-2.68481e-07
1824.46	-1.11251e-07
1833.02	-1.78404e-07
1841.58	-1.13657e-07
1850.13	4.0313e-07
1858.69	-4.30098e-08
1867.25	9.02578e-08
1875.81	3.48793e-07
1884.36	3.28311e-07
1892.92	-7.31157e-08
1901.48	-1.75475e-07
1910.04	-1.64198e-07
1918.6	-4.31244e-08
1927.15	-1.3949e-07
1935.71	-1.89399e-07
1944.27	-1.74478e-07
1952.83	-2.10267e-07
1961.38	-1.58757e-07
1969.94	-2.12673e-07
1978.5	-1.95371e-07
1987.06	-1.41026e-07
1995.61	-1.32171e-07
2004.17	-2.24744e-07
2012.73	-7.4851e-08
2021.29	-2.38757e-07
2029.84	-1.8948e-07
2038.4	-1.15171e-07
2046.96	1.12297e-07
2055.52	8.72237e-08
2064.08	-3.2889e-08
2072.63	1.49866e-07
2081.19	-1.09723e-07
2089.75	-2.11782e-07
2098.31	-2.22019e-07
2106.86	-1.50739e-07
2115.42	1.33329e-07
2123.98	-4.11089e-10
2132.54	-2.17988e-07
2141.09	-1.83388e-07
2149.65	-1.65194e-07
2158.21	5.61252e-07
2166.77	-1.94511e-07
2175.32	-1.18705e-07
2183.88	-2.08442e-07
2192.44	-1.42506e-07
2201	-2.64298e-07
2209.55	5.99754e-08
2218.11	-2.13161e-07
2226.67	-1.47103e-07
2235.23	-2.13157e-07
2243.79	-3.91481e-08
2252.34	9.30208e-08
2260.9	1.96832e-08
2269.46	3.88651e-07
2278.02	1.95626e-07
2286.57	2.14814e-07
2295.13	1.52138e-07
2303.69	9.60341e-07
2312.25	8.54231e-07
2320.8	1.17794e-06
2329.36	7.4654e-07
2337.92	2.08199e-06
2346.48	2.6036e-07
2355.03	6.8505e-07
2363.59	7.00893e-07
2372.15	1.6246e-07
2380.71	1.2557e-07
2389.26	-2.8045e-07
2397.82	-2.03451e-07
2406.38	-1.4976e-07
2414.94	-2.06632e-07
2423.5	-2.41177e-07
2432.05	-1.07185e-07
2440.61	8.3051e-08
2449.17	4.57288e-07
2457.73	1.15786e-06
2466.28	3.38905e-06
2474.84	6.17248e-06
2483.4	1.29245e-05
2491.96	9.65335e-06
2500.51	2.73324e-06
2509.07	1.96492e-05
2517.63	1.05334e-05
2526.19	9.17703e-07
2534.74	-2.19331e-07
2543.3	-1.57773e-07
2551.86	-1.2581e-07
2560.42	-2.24479e-07
2568.98	-2.49204e-07
2577.53	-2.16902e-07
2586.09	-8.97376e-08
2594.65	-2.44584e-07
2603.21	-2.43718e-07
2611.76	-2.39018e-07
2620.32	-1.55732e-07
2628.88	-2.26006e-07
2637.44	-4.61577e-07
2645.99	-5.1269e-07
2654.55	-7.50646e-07
2663.11	-9.62402e-07
2671.67	-1.08244e-06
2680.22	-1.06793e-06
2688.78	-1.20174e-06
2697.34	-1.06943e-06
2705.9	-1.06868e-06
2714.45	-1.15604e-06
2723.01	-1.0787e-06
2731.57	-9.6492e-07
2740.13	-1.30894e-06
2748.69	-1.30392e-06
2757.24	-1.44275e-06
2765.8	-1.22161e-06
2774.36	-1.10549e-06
2782.92	-8.16657e-07
2791.47	-3.77788e-07
2800.03	-1.87388e-07
2808.59	-1.43827e-07
2817.15	-2.30872e-07
2825.7	-1.65116e-07
2834.26	-1.11734e-07
2842.82	-6.39153e-08
2851.38	-2.97551e-07
2859.93	-2.32151e-07
2868.49	-1.82475e-07
2877.05	-8.20724e-08
2885.61	-1.76443e-07
2894.16	-2.03007e-07
2902.72	-1.92561e-07
2911.28	-2.50564e-07
2919.84	-1.79246e-07
2928.4	-2.16173e-07
2936.95	-2.3095e-07
2945.51	-8.25835e-08
2954.07	-3.53028e-08
2962.63	-1.75746e-07
2971.18	-9.0567e-08
2979.74	-1.74949e-08
2988.3	-1.35065e-07
2996.86	-1.98563e-07
3005.41	-5.78217e-08
3013.97	-1.77367e-07
3022.53	-2.88516e-07
3031.09	-7.83144e-08
3039.64	-1.86302e-07
3048.2	-1.43328e-07
3056.76	-1.80154e-07
3065.32	-3.27507e-07
3073.88	-2.26685e-07
3082.43	-1.42319e-07
3090.99	-1.83049e-07
3099.55	-1.19589e-07
3108.11	-1.67037e-07
3116.66	-2.37337e-07
3125.22	-9.9118e-08
3133.78	-1.78846e-07
3142.34	-8.97394e-08
3150.89	-2.01732e-07
3159.45	-2.34912e-07
3168.01	-7.76795e-08
3176.57	-1.59694e-07
3185.12	-1.44471e-07
3193.68	-2.55398e-07
3202.24	-4.63312e-08
3210.8	-2.13475e-08
3219.35	-1.20948e-07
3227.91	-2.08293e-07
3236.47	-1.77321e-07
3245.03	-1.4156e-07
3253.59	-7.3254e-08
3262.14	-7.5304e-08
3270.7	-1.97239e-07
3279.26	-1.87731e-07
3287.82	-4.09378e-07
3296.37	-3.47152e-08
3304.93	8.37058e-08
3313.49	-1.49225e-07
3322.05	-9.72518e-08
3330.6	-2.36604e-07
3339.16	-1.49897e-07
3347.72	-1.09512e-07
3356.28	-5.70614e-08
3364.83	-5.68631e-08
3373.39	-1.85743e-07
3381.95	3.20413e-08
3390.51	1.32203e-08
3399.06	-3.13896e-07
3407.62	1.23067e-07
3416.18	-6.47739e-09
3424.74	2.17186e-08
3433.3	-1.54111e-07
3441.85	-7.0249e-09
3450.41	-4.29152e-08
3458.97	-9.08581e-08
3467.53	-3.52857e-07
3476.08	-2.86127e-07
3484.64	-1.48438e-07
3493.2	-1.27072e-07
3501.76	-1.81931e-07
3510.31	-1.23789e-07
3518.87	-2.61791e-07
3527.43	-1.76597e-07
3535.99	-1.23327e-08
3544.54	-1.83435e-07
3553.1	4.10835e-08
3561.66	-2.78006e-07
3570.22	-2.34088e-07
3578.78	-2.17301e-07
3587.33	-3.05443e-08
3595.89	-1.82244e-08
3604.45	5.6543e-08
3613.01	-5.21593e-08
3621.56	-1.294e-07
3630.12	-1.91859e-07
3638.68	2.28588e-07
3647.24	-1.42095e-07
3655.79	-6.47739e-09
3664.35	-1.31889e-07
3672.91	-2.57877e-08
3681.47	-6.32914e-08
3690.02	-1.439e-07
3698.58	-9.37466e-08
3707.14	-1.42533e-07
3715.7	-1.46266e-07
3724.25	-1.06609e-07
3732.81	-1.49115e-07
3741.37	-4.76827e-08
3749.93	-1.16273e-07
3758.49	-8.89736e-08
3767.04	-1.03873e-07
3775.6	-2.74273e-07
3784.16	-1.56199e-07
3792.72	-2.79672e-07
3801.27	-1.34039e-07
3809.83	-1.49235e-07
3818.39	-2.60813e-07
3826.95	-4.23604e-08
3835.5	4.44104e-08
3844.06	-1.46792e-09
3852.62	-1.95222e-07
3861.18	5.63484e-08
3869.73	-3.26489e-08
3878.29	-1.29657e-08
3886.85	-3.72745e-08
3895.41	-2.63019e-07
3903.96	-1.03562e-07
3912.52	-2.37741e-08
3921.08	-1.52758e-08
3929.64	-3.18327e-07
3938.2	-1.86791e-08
3946.75	-2.54937e-07
3955.31	-1.09574e-07
3963.87	-1.48632e-07
3972.43	-1.99882e-07
