Infrared Spectrum: Sulfur Dioxide
Formula: S O2
CAS: 7446-09-5
State: gas
Melting point: -72.7 C
Boiling point: -10 C
Class: IUPAC A
Instrument: IFS66V (Bruker)
Instrument parameters: KBr Beam splitter; MCT Detector; Multipass cell
Sampling: 1 L/min Flow
Resolution: 0.1250
Temperature: 23 C
Pressure: 101.3 kPa
Origin: NIST, Anayltical Chemistry Division, 301-975-3108
cm-1	(micromol/mol)-1m-1 (base 10)
3975.02	-4.39295e-07
3966.46	-1.15869e-09
3957.9	-4.1098e-08
3949.34	-1.78688e-08
3940.79	-4.3198e-08
3932.23	-1.98696e-07
3923.67	6.64783e-08
3915.11	-1.99997e-07
3906.56	-2.29596e-07
3898	1.23598e-07
3889.44	-1.12898e-07
3880.88	-1.33198e-07
3872.33	-1.71897e-07
3863.77	8.0478e-08
3855.21	-4.05394e-07
3846.65	5.26085e-08
3838.09	-2.50796e-07
3829.54	-1.56297e-07
3820.98	-2.78896e-07
3812.42	-4.36594e-07
3803.86	1.20298e-07
3795.31	-3.32395e-07
3786.75	-7.70584e-08
3778.19	-2.99196e-07
3769.63	-2.02197e-07
3761.08	-4.39595e-07
3752.52	-2.13985e-08
3743.96	-2.73096e-07
3735.4	-1.11098e-07
3726.85	-1.69097e-07
3718.29	-1.53697e-07
3709.73	-2.49696e-07
3701.17	-2.20097e-07
3692.62	2.52196e-07
3684.06	-8.14785e-08
3675.5	-1.32598e-07
3666.94	-9.26579e-08
3658.38	-2.10083e-08
3649.83	-4.0988e-08
3641.27	2.93796e-07
3632.71	4.55282e-08
3624.15	1.37798e-07
3615.6	1.50998e-07
3607.04	-8.43916e-09
3598.48	5.27993e-07
3589.92	-1.75797e-07
3581.37	-6.96691e-07
3572.81	-2.54796e-07
3564.25	1.93997e-07
3555.69	1.50248e-09
3547.14	-1.15798e-07
3538.58	-4.06995e-07
3530.02	1.35998e-07
3521.46	8.02579e-08
3512.91	5.97626e-09
3504.35	-4.30794e-07
3495.79	-2.30997e-07
3487.23	-8.3809e-07
3478.67	7.08038e-09
3470.12	-1.91097e-07
3461.56	1.52998e-07
3453	-2.92696e-07
3444.44	-1.51198e-07
3435.89	4.05987e-08
3427.33	-3.75095e-07
3418.77	-3.86495e-07
3410.21	2.50396e-07
3401.66	3.41295e-07
3393.1	-6.53291e-07
3384.54	8.98085e-08
3375.98	-2.27996e-07
3367.43	-2.14697e-07
3358.87	-4.42485e-08
3350.31	-2.3101e-10
3341.75	-3.13695e-07
3333.2	-1.24998e-07
3324.64	1.46698e-07
3316.08	1.11185e-08
3307.52	-4.94281e-08
3298.96	-3.50095e-07
3290.41	-4.26594e-07
3281.85	6.42882e-08
3273.29	1.99897e-07
3264.73	4.27688e-08
3256.18	-2.78097e-07
3247.62	-1.26898e-07
3239.06	1.31498e-07
3230.5	-3.59495e-07
3221.95	-2.35185e-08
3213.39	-1.33698e-07
3204.83	-6.63782e-08
3196.27	-2.4558e-08
3187.72	-2.00996e-07
3179.16	-2.32397e-07
3170.6	-2.81496e-07
3162.04	3.56384e-08
3153.48	-2.05997e-07
3144.93	-1.50498e-07
3136.37	-1.49793e-09
3127.81	-3.40395e-07
3119.25	-1.93797e-07
3110.7	-1.44698e-07
3102.14	-2.17796e-07
3093.58	-1.08898e-07
3085.02	-1.30598e-07
3076.47	-4.79683e-08
3067.91	-2.11596e-07
3059.35	-4.99183e-08
3050.79	-1.09498e-07
3042.24	-8.6618e-08
3033.68	-1.17988e-08
3025.12	-9.26179e-08
3016.56	1.67483e-08
3008.01	-4.29894e-07
2999.45	-2.11384e-08
2990.89	-4.1018e-08
2982.33	-5.7608e-08
2973.77	-2.72296e-07
2965.22	-1.32585e-08
2956.66	-1.53697e-07
2948.1	-2.21796e-07
2939.54	-2.17696e-07
2930.99	-6.71091e-07
2922.43	-2.62488e-08
2913.87	-2.98296e-07
2905.31	-1.51098e-07
2896.76	-4.62494e-07
2888.2	-3.97695e-07
2879.64	-3.44695e-07
2871.08	-3.25695e-07
2862.53	3.2728e-08
2853.97	-6.18292e-07
2845.41	-4.23195e-07
2836.85	-6.5818e-08
2828.3	-9.48234e-09
2819.74	1.85536e-10
2811.18	-2.25296e-07
2802.62	-3.00896e-07
2794.06	-1.92596e-07
2785.51	-6.32291e-07
2776.95	-7.53991e-07
2768.39	-1.45598e-06
2759.83	-8.9179e-07
2751.28	-1.41898e-06
2742.72	-1.24398e-06
2734.16	-7.51191e-07
2725.6	-6.74792e-07
2717.05	-1.23698e-06
2708.49	-1.20199e-06
2699.93	-1.29898e-06
2691.37	-1.08799e-06
2682.82	-1.08499e-06
2674.26	-1.29698e-06
2665.7	-9.62488e-07
2657.14	-8.55189e-07
2648.59	-5.80393e-07
2640.03	-2.35896e-07
2631.47	-9.97383e-08
2622.91	-4.25894e-07
2614.35	-2.03397e-07
2605.8	-9.12482e-08
2597.24	-1.99397e-07
2588.68	-4.35495e-07
2580.12	-6.44983e-08
2571.57	-1.49198e-07
2563.01	1.24882e-08
2554.45	-4.16083e-08
2545.89	-6.04583e-08
2537.34	-1.79997e-07
2528.78	2.24297e-07
2520.22	7.77891e-06
2511.66	1.61398e-05
2503.11	4.81094e-06
2494.55	1.08599e-05
2485.99	1.10599e-05
2477.43	1.17299e-05
2468.87	6.05993e-06
2460.32	1.11899e-06
2451.76	5.89592e-07
2443.2	2.58496e-07
2434.64	1.16788e-08
2426.09	-1.75597e-07
2417.53	-7.8278e-08
2408.97	-2.83596e-07
2400.41	-2.75897e-07
2391.86	-1.89397e-07
2383.3	7.95285e-08
2374.74	4.01595e-06
2366.18	4.02195e-07
2357.63	9.66088e-07
2349.07	3.51994e-07
2340.51	5.76693e-07
2331.95	6.60392e-07
2323.4	9.72488e-07
2314.84	7.20891e-07
2306.28	8.31689e-07
2297.72	2.86497e-07
2289.16	4.64095e-07
2280.61	6.06593e-07
2272.05	4.86486e-08
2263.49	-1.03182e-08
2254.93	-9.52882e-08
2246.38	6.26284e-08
2237.82	-3.55695e-07
2229.26	-2.22397e-07
2220.7	-1.55596e-07
2212.15	-1.20098e-07
2203.59	-3.94495e-07
2195.03	-2.18297e-07
2186.47	1.50898e-07
2177.92	-2.00297e-07
2169.36	3.83395e-07
2160.8	-7.09684e-08
2152.24	-1.68197e-07
2143.69	-9.72881e-08
2135.13	-4.27495e-07
2126.57	-2.17496e-07
2118.01	-1.48998e-07
2109.45	-1.69297e-07
2100.9	-1.95597e-07
2092.34	-1.77597e-07
2083.78	-1.53797e-07
2075.22	2.44689e-08
2066.67	6.62682e-08
2058.11	-2.60387e-08
2049.55	2.01897e-07
2040.99	2.61387e-08
2032.44	-2.09296e-07
2023.88	-2.97396e-07
2015.32	-6.47884e-08
2006.76	-1.61397e-07
1998.21	-1.85997e-07
1989.65	-1.97096e-07
1981.09	-1.33998e-07
1972.53	-1.92796e-07
1963.97	-3.15695e-07
1955.42	-2.33796e-07
1946.86	-1.24797e-07
1938.3	-3.42787e-08
1929.74	-1.52298e-07
1921.19	-2.72183e-08
1912.63	1.18198e-07
1904.07	-1.84296e-07
1895.51	1.58988e-08
1886.96	-1.04998e-07
1878.4	-5.48086e-08
1869.84	-1.06298e-07
1861.28	7.24382e-08
1852.73	1.51597e-07
1844.17	-1.52198e-07
1835.61	6.67591e-07
1827.05	-1.64397e-07
1818.5	-3.18695e-07
1809.94	-2.38496e-07
1801.38	-2.27496e-07
1792.82	-1.33998e-07
1784.26	-2.28397e-07
1775.71	-1.23098e-07
1767.15	2.06081e-08
1758.59	-1.88197e-07
1750.03	-2.16486e-08
1741.48	-2.03797e-07
1732.92	-3.09996e-07
1724.36	-2.91796e-07
1715.8	-1.52998e-07
1707.25	-2.95496e-07
1698.69	-2.09797e-07
1690.13	-1.87897e-07
1681.57	-2.53896e-07
1673.02	-7.59579e-08
1664.46	-1.09698e-07
1655.9	-3.29695e-07
1647.34	-2.20197e-07
1638.79	-3.42495e-07
1630.23	-1.88496e-07
1621.67	-6.08485e-08
1613.11	-3.15695e-07
1604.55	-2.73096e-07
1596	-4.23894e-07
1587.44	-1.50698e-07
1578.88	-9.24779e-08
1570.32	-3.91081e-08
1561.77	-3.32095e-07
1553.21	-1.97697e-07
1544.65	-1.12798e-07
1536.09	1.16588e-08
1527.54	-1.0119e-08
1518.98	-1.87397e-07
1510.42	-5.08593e-07
1501.86	-1.62697e-07
1493.31	-7.56186e-08
1484.75	-2.10796e-07
1476.19	-8.07482e-08
1467.63	-1.25998e-07
1459.08	-1.72196e-07
1450.52	-7.02381e-08
1441.96	-9.20777e-08
1433.4	-1.99497e-07
1424.84	7.78178e-08
1416.29	1.75697e-07
1407.73	2.83796e-07
1399.17	4.51995e-06
1390.61	0.000116999
1382.06	0.000451195
1373.5	0.000753191
1364.94	0.000198498
1356.38	0.000472495
1347.83	0.000589593
1339.27	0.000450395
1330.71	0.000182798
1322.15	4.55095e-05
1313.6	1.55698e-05
1305.04	2.46997e-06
1296.48	1.57797e-07
1287.92	-2.50496e-07
1279.36	-3.51895e-07
1270.81	-4.54494e-07
1262.25	-5.5608e-08
1253.69	6.36879e-08
1245.13	3.66695e-07
1236.58	9.13189e-07
1228.02	1.70698e-06
1219.46	5.72393e-06
1210.9	9.1369e-06
1202.35	1.63498e-05
1193.79	1.95198e-05
1185.23	1.97798e-05
1176.67	5.91493e-05
1168.12	4.26895e-05
1159.56	6.32393e-05
1151	1.85898e-05
1142.44	3.52496e-05
1133.89	3.83696e-05
1125.33	4.80694e-05
1116.77	1.60098e-05
1108.21	1.83398e-05
1099.65	1.18099e-05
1091.1	6.54092e-06
1082.54	4.52995e-06
1073.98	1.95398e-06
1065.42	1.29698e-06
1056.87	3.04696e-07
1048.31	1.02998e-07
1039.75	7.85281e-08
1031.19	-1.67197e-07
1022.64	-3.97795e-07
1014.08	8.49582e-08
1005.52	-1.47597e-07
996.963	-2.82996e-07
988.406	-4.36382e-08
979.848	-4.80594e-07
971.29	-2.55896e-07
962.733	-7.55786e-08
954.175	-2.44296e-07
945.618	-2.06097e-07
937.06	-1.48098e-07
928.502	-9.68279e-08
919.945	-2.43297e-07
911.387	-1.96197e-07
902.829	-6.81572e-09
894.272	-1.15098e-07
885.714	-3.85495e-07
877.157	-8.50282e-08
868.599	-1.21998e-07
860.041	5.18282e-08
851.484	-5.82693e-07
842.926	-2.73396e-07
834.368	-6.65191e-07
825.811	-6.42991e-07
817.253	1.50998e-07
808.696	-5.05693e-07
800.138	-1.72096e-07
791.58	3.45588e-08
783.023	-1.23498e-07
774.465	1.81589e-08
765.907	-5.75493e-07
757.35	-5.03294e-07
748.792	-4.09594e-07
740.235	1.19498e-07
731.677	-5.64493e-07
723.119	-2.11697e-07
714.562	-1.76497e-07
706.004	-2.83396e-07
697.446	-3.86994e-07
688.889	9.92345e-09
680.331	-1.45698e-07
671.774	-1.11999e-06
663.216	3.07296e-07
654.658	-6.68691e-07
646.101	-6.17393e-07
637.543	4.81493e-07
628.985	1.32498e-06
620.428	3.21795e-07
611.87	1.45598e-06
603.313	2.17397e-06
594.755	4.74695e-06
586.197	6.99092e-06
577.64	7.85291e-06
