Infrared Spectrum: Sulfur Dioxide
Formula: S O2
CAS: 7446-09-5
State: gas
Melting point: -72.7 C
Boiling point: -10 C
Class: IUPAC A
Instrument: IFS66V (Bruker)
Instrument parameters: KBr Beam splitter; MCT Detector; Multipass cell
Sampling: 1 L/min Flow
Resolution: 0.2410
Temperature: 23 C
Pressure: 101.3 kPa
Origin: NIST, Anayltical Chemistry Division, 301-975-3108
cm-1	(micromol/mol)-1m-1 (base 10)
575.048	1.2987e-05
583.606	8.31338e-06
592.163	8.25234e-06
600.721	3.83545e-06
609.279	1.50274e-06
617.836	9.38323e-07
626.394	5.45699e-07
634.951	1.06214e-07
643.509	-1.81614e-07
652.067	-1.17846e-07
660.624	-3.62304e-07
669.182	1.56363e-07
677.74	-9.91162e-09
686.297	1.99082e-07
694.855	1.9327e-07
703.412	-1.96323e-08
711.97	-1.83546e-07
720.528	-2.13383e-07
729.085	-1.50146e-07
737.643	-3.01385e-07
746.201	-2.92103e-07
754.758	-1.58824e-07
763.316	-4.58418e-07
771.873	-3.27789e-07
780.431	-2.29268e-07
788.989	-2.26698e-07
797.546	-2.21606e-07
806.104	-2.69133e-07
814.662	-4.61826e-07
823.219	-4.21307e-07
831.777	-3.2432e-07
840.334	-6.10741e-08
848.892	-2.22907e-07
857.45	-1.58237e-07
866.007	-1.13397e-07
874.565	-3.59041e-07
883.123	-1.67013e-07
891.68	-3.64327e-07
900.238	-8.92664e-08
908.795	-2.52494e-07
917.353	-1.66504e-07
925.911	-2.19509e-07
934.468	-3.29272e-07
943.026	-2.95788e-07
951.584	-1.43816e-07
960.141	-2.04073e-07
968.699	-1.13148e-07
977.256	-9.93109e-08
985.814	-1.94867e-08
994.372	-2.21832e-07
1002.93	-2.54537e-07
1011.49	-2.68503e-07
1020.04	-2.78801e-07
1028.6	-1.66611e-07
1037.16	-4.5705e-07
1045.72	8.35276e-09
1054.28	1.53151e-07
1062.83	4.82819e-07
1071.39	1.76477e-06
1079.95	2.9889e-06
1088.51	6.61132e-06
1097.06	1.01382e-05
1105.62	1.64942e-05
1114.18	2.00432e-05
1122.74	3.89604e-05
1131.29	4.34712e-05
1139.85	7.46893e-05
1148.41	1.85107e-05
1156.97	4.06049e-05
1165.52	6.38989e-05
1174.08	4.2962e-05
1182.64	3.76307e-05
1191.2	2.11763e-05
1199.75	1.61561e-05
1208.31	8.36579e-06
1216.87	6.85932e-06
1225.43	3.30569e-06
1233.99	1.47886e-06
1242.54	4.643e-07
1251.1	-5.76253e-08
1259.66	-1.08539e-07
1268.22	-2.51947e-07
1276.77	-1.73323e-07
1285.33	-1.47605e-07
1293.89	2.50128e-08
1302.45	1.37233e-06
1311	7.1449e-06
1319.56	4.75324e-05
1328.12	0.00013817
1336.68	0.000417257
1345.23	0.000629244
1353.79	0.000561245
1362.35	0.000144634
1370.91	0.000685852
1379.46	0.00056023
1388.02	0.000143226
1396.58	1.25321e-05
1405.14	3.37836e-07
1413.7	8.16467e-08
1422.25	-1.63072e-08
1430.81	-1.93558e-07
1439.37	-2.09521e-07
1447.93	-2.62277e-07
1456.48	-1.78647e-07
1465.04	-1.45178e-07
1473.6	-2.99815e-07
1482.16	-1.06956e-07
1490.71	-2.12619e-07
1499.27	-1.86078e-07
1507.83	-1.81452e-07
1516.39	-1.85303e-07
1524.94	-7.92475e-08
1533.5	-1.7328e-07
1542.06	-1.01943e-07
1550.62	-1.68392e-07
1559.18	-1.18812e-07
1567.73	-2.85034e-07
1576.29	-3.10869e-07
1584.85	-1.86205e-07
1593.41	-2.83803e-07
1601.96	-1.48472e-07
1610.52	-1.86693e-07
1619.08	-1.84148e-07
1627.64	-1.84463e-07
1636.19	-1.36866e-07
1644.75	-1.96028e-07
1653.31	-1.70066e-07
1661.87	-1.9291e-07
1670.42	-1.01474e-07
1678.98	-2.07933e-07
1687.54	-9.75592e-08
1696.1	-2.04783e-07
1704.65	-2.05508e-07
1713.21	-2.33868e-07
1721.77	-2.26874e-07
1730.33	-1.12568e-07
1738.89	-1.60567e-07
1747.44	-1.04282e-07
1756	-2.06054e-07
1764.56	-2.00262e-07
1773.12	-1.90256e-07
1781.67	-2.36424e-07
1790.23	-1.40571e-07
1798.79	-2.37919e-07
1807.35	-1.68308e-07
1815.9	-2.79768e-07
1824.46	-1.03336e-07
1833.02	-1.82747e-07
1841.58	-1.1089e-07
1850.13	4.32077e-07
1858.69	-5.14717e-08
1867.25	8.70036e-08
1875.81	3.72633e-07
1884.36	3.5861e-07
1892.92	-7.89365e-08
1901.48	-1.8891e-07
1910.04	-1.74738e-07
1918.6	-3.79748e-08
1927.15	-1.37999e-07
1935.71	-1.91617e-07
1944.27	-1.77265e-07
1952.83	-2.12373e-07
1961.38	-1.62309e-07
1969.94	-2.21799e-07
1978.5	-1.95075e-07
1987.06	-1.34415e-07
1995.61	-1.26643e-07
2004.17	-2.29182e-07
2012.73	-6.87011e-08
2021.29	-2.44593e-07
2029.84	-1.95893e-07
2038.4	-1.16884e-07
2046.96	1.17399e-07
2055.52	8.94756e-08
2064.08	-3.95064e-08
2072.63	1.36356e-07
2081.19	-1.18141e-07
2089.75	-2.21277e-07
2098.31	-2.33477e-07
2106.86	-1.63537e-07
2115.42	1.66206e-07
2123.98	-4.52017e-09
2132.54	-2.27025e-07
2141.09	-1.88796e-07
2149.65	-1.6695e-07
2158.21	6.22777e-07
2166.77	-2.01992e-07
2175.32	-1.26676e-07
2183.88	-2.27935e-07
2192.44	-1.47254e-07
2201	-2.76003e-07
2209.55	7.80506e-08
2218.11	-2.17277e-07
2226.67	-1.48238e-07
2235.23	-2.17548e-07
2243.79	-3.66088e-08
2252.34	9.36629e-08
2260.9	6.12087e-09
2269.46	3.9708e-07
2278.02	1.87126e-07
2286.57	1.98913e-07
2295.13	1.44029e-07
2303.69	9.68336e-07
2312.25	8.40824e-07
2320.8	1.09721e-06
2329.36	6.12518e-07
2337.92	2.09964e-06
2346.48	1.68674e-07
2355.03	5.2931e-07
2363.59	4.69148e-07
2372.15	-1.12886e-08
2380.71	1.39669e-07
2389.26	-2.86377e-07
2397.82	-2.01214e-07
2406.38	-1.46386e-07
2414.94	-2.03804e-07
2423.5	-2.46954e-07
2432.05	-1.07009e-07
2440.61	8.48209e-08
2449.17	4.594e-07
2457.73	1.12182e-06
2466.28	3.37755e-06
2474.84	5.89872e-06
2483.4	1.30871e-05
2491.96	9.43213e-06
2500.51	2.49251e-06
2509.07	2.00372e-05
2517.63	1.04698e-05
2526.19	8.64774e-07
2534.74	-2.32169e-07
2543.3	-1.65345e-07
2551.86	-1.28242e-07
2560.42	-2.24202e-07
2568.98	-2.60109e-07
2577.53	-2.26494e-07
2586.09	-8.36731e-08
2594.65	-2.47316e-07
2603.21	-2.49269e-07
2611.76	-2.30086e-07
2620.32	-1.39112e-07
2628.88	-2.23343e-07
2637.44	-4.67713e-07
2645.99	-5.12208e-07
2654.55	-7.44283e-07
2663.11	-9.67816e-07
2671.67	-1.08287e-06
2680.22	-1.05039e-06
2688.78	-1.19686e-06
2697.34	-1.05929e-06
2705.9	-1.06093e-06
2714.45	-1.1567e-06
2723.01	-1.07891e-06
2731.57	-9.56107e-07
2740.13	-1.31201e-06
2748.69	-1.30877e-06
2757.24	-1.45636e-06
2765.8	-1.22405e-06
2774.36	-1.11883e-06
2782.92	-8.40643e-07
2791.47	-3.81049e-07
2800.03	-1.83786e-07
2808.59	-1.40469e-07
2817.15	-2.41499e-07
2825.7	-1.56951e-07
2834.26	-1.077e-07
2842.82	-5.02493e-08
2851.38	-3.06516e-07
2859.93	-2.39516e-07
2868.49	-1.72219e-07
2877.05	-7.15896e-08
2885.61	-1.70908e-07
2894.16	-2.08855e-07
2902.72	-1.96483e-07
2911.28	-2.50866e-07
2919.84	-1.78009e-07
2928.4	-2.15869e-07
2936.95	-2.46401e-07
2945.51	-7.81306e-08
2954.07	-1.86918e-08
2962.63	-1.75075e-07
2971.18	-9.90453e-08
2979.74	-9.4205e-09
2988.3	-1.26303e-07
2996.86	-1.99075e-07
3005.41	-5.64084e-08
3013.97	-1.85078e-07
3022.53	-2.89825e-07
3031.09	-7.08693e-08
3039.64	-2.00528e-07
3048.2	-1.3547e-07
3056.76	-1.84274e-07
3065.32	-3.41199e-07
3073.88	-2.43631e-07
3082.43	-1.39663e-07
3090.99	-1.87051e-07
3099.55	-1.1339e-07
3108.11	-1.73784e-07
3116.66	-2.49939e-07
3125.22	-9.35574e-08
3133.78	-1.73731e-07
3142.34	-8.60978e-08
3150.89	-2.04148e-07
3159.45	-2.40835e-07
3168.01	-7.17278e-08
3176.57	-1.6604e-07
3185.12	-1.44663e-07
3193.68	-2.66177e-07
3202.24	-3.83023e-08
3210.8	-2.03453e-08
3219.35	-1.31776e-07
3227.91	-2.06223e-07
3236.47	-1.9996e-07
3245.03	-1.29773e-07
3253.59	-6.33351e-08
3262.14	-8.1523e-08
3270.7	-1.95726e-07
3279.26	-1.93103e-07
3287.82	-4.32201e-07
3296.37	-1.79733e-08
3304.93	9.30026e-08
3313.49	-1.51341e-07
3322.05	-9.12673e-08
3330.6	-2.47436e-07
3339.16	-1.48396e-07
3347.72	-1.11056e-07
3356.28	-5.68158e-08
3364.83	-4.05269e-08
3373.39	-1.91919e-07
3381.95	4.5067e-08
3390.51	2.07018e-08
3399.06	-3.20568e-07
3407.62	1.37444e-07
3416.18	3.5652e-09
3424.74	2.98313e-08
3433.3	-1.63797e-07
3441.85	1.14996e-08
3450.41	-2.89563e-08
3458.97	-9.03305e-08
3467.53	-3.72156e-07
3476.08	-2.95133e-07
3484.64	-1.52403e-07
3493.2	-1.24829e-07
3501.76	-1.79491e-07
3510.31	-1.13031e-07
3518.87	-2.68425e-07
3527.43	-1.82697e-07
3535.99	-9.81704e-09
3544.54	-1.96845e-07
3553.1	6.51959e-08
3561.66	-2.97656e-07
3570.22	-2.55747e-07
3578.78	-2.17803e-07
3587.33	-1.60761e-08
3595.89	-2.15058e-08
3604.45	7.01271e-08
3613.01	-4.77264e-08
3621.56	-1.37366e-07
3630.12	-2.17179e-07
3638.68	2.45524e-07
3647.24	-1.57607e-07
3655.79	3.47971e-09
3664.35	-1.40189e-07
3672.91	-2.26518e-08
3681.47	-5.39364e-08
3690.02	-1.45051e-07
3698.58	-1.01039e-07
3707.14	-1.56385e-07
3715.7	-1.4815e-07
3724.25	-1.0897e-07
3732.81	-1.53184e-07
3741.37	-5.25431e-08
3749.93	-1.05204e-07
3758.49	-9.20495e-08
3767.04	-1.0617e-07
3775.6	-2.79241e-07
3784.16	-1.59936e-07
3792.72	-2.87894e-07
3801.27	-1.39758e-07
3809.83	-1.48505e-07
3818.39	-2.79999e-07
3826.95	-4.33408e-08
3835.5	5.1901e-08
3844.06	8.01443e-09
3852.62	-2.06927e-07
3861.18	5.97153e-08
3869.73	-3.18249e-08
3878.29	-9.13128e-09
3886.85	-2.84543e-08
3895.41	-2.6996e-07
3903.96	-1.0951e-07
3912.52	-9.67697e-09
3921.08	2.92856e-10
3929.64	-3.40435e-07
3938.2	-3.70526e-09
3946.75	-2.71454e-07
3955.31	-9.94345e-08
3963.87	-1.46213e-07
3972.43	-2.0226e-07
