Infrared Spectrum: Sulfur Dioxide
Formula: S O2
CAS: 7446-09-5
State: gas
Melting point: -72.7 C
Boiling point: -10 C
Class: IUPAC A
Instrument: IFS66V (Bruker)
Instrument parameters: KBr Beam splitter; MCT Detector; Multipass cell
Sampling: 1 L/min Flow
Resolution: 1.9290
Temperature: 23 C
Pressure: 101.3 kPa
Origin: NIST, Anayltical Chemistry Division, 301-975-3108
cm-1	(micromol/mol)-1m-1 (base 10)
574.687	1.53893e-05
583.365	8.97502e-06
592.043	5.5874e-06
600.721	3.30048e-06
609.4	1.52668e-06
618.078	8.22566e-07
626.756	3.12653e-07
635.434	-2.83812e-08
644.112	-1.32875e-09
652.79	-1.3522e-07
661.469	-1.25507e-07
670.147	2.94808e-08
678.825	-2.1952e-07
687.503	-7.51985e-08
696.181	-2.33168e-07
704.859	-1.30015e-07
713.537	-2.74822e-07
722.216	-2.48493e-07
730.894	-2.84909e-07
739.572	-2.43008e-07
748.25	-2.67768e-07
756.928	-2.098e-07
765.606	-2.33557e-07
774.285	-1.68145e-07
782.963	-1.8272e-07
791.641	-2.24127e-07
800.319	-2.74186e-07
808.997	-2.08369e-07
817.675	-1.71786e-07
826.353	-2.46003e-07
835.032	-3.06276e-07
843.71	-2.62097e-07
852.388	-2.5181e-07
861.066	-2.23262e-07
869.744	-2.35734e-07
878.422	-2.15437e-07
887.101	-1.69441e-07
895.779	-2.10697e-07
904.457	-1.33554e-07
913.135	-2.03359e-07
921.813	-2.57664e-07
930.491	-2.01663e-07
939.169	-2.33923e-07
947.848	-2.32418e-07
956.526	-2.32078e-07
965.204	-2.07817e-07
973.882	-2.12986e-07
982.56	-2.10281e-07
991.238	-2.4753e-07
999.917	-2.15961e-07
1008.59	-2.39894e-07
1017.27	-2.29841e-07
1025.95	-2.03613e-07
1034.63	-1.88731e-07
1043.31	-8.29537e-08
1051.99	9.54272e-08
1060.66	4.68962e-07
1069.34	1.3572e-06
1078.02	2.92559e-06
1086.7	5.5318e-06
1095.38	9.54947e-06
1104.05	1.49504e-05
1112.73	2.31364e-05
1121.41	3.4273e-05
1130.09	4.44377e-05
1138.77	5.37693e-05
1147.45	3.13445e-05
1156.12	4.18497e-05
1164.8	6.29921e-05
1173.48	5.07139e-05
1182.16	3.13497e-05
1190.84	2.36936e-05
1199.51	1.68323e-05
1208.19	1.04593e-05
1216.87	6.09415e-06
1225.55	3.239e-06
1234.23	1.42603e-06
1242.9	4.6322e-07
1251.58	6.23021e-08
1260.26	-7.9092e-08
1268.94	-1.91255e-07
1277.62	-2.06411e-07
1286.3	-1.42985e-07
1294.97	9.69669e-08
1303.65	1.83371e-06
1312.33	1.10703e-05
1321.01	4.91629e-05
1329.69	0.000167572
1338.36	0.000422712
1347.04	0.000644592
1355.72	0.000538911
1364.4	0.000179969
1373.08	0.000821779
1381.76	0.000471939
1390.43	9.02262e-05
1399.11	5.17857e-06
1407.79	1.59724e-07
1416.47	-4.02372e-08
1425.15	-4.96103e-08
1433.82	-1.31988e-07
1442.5	-1.50034e-07
1451.18	-1.7325e-07
1459.86	-1.90839e-07
1468.54	-1.84622e-07
1477.22	-2.06432e-07
1485.89	-2.20092e-07
1494.57	-2.16343e-07
1503.25	-1.79578e-07
1511.93	-1.71263e-07
1520.61	-1.30659e-07
1529.28	-1.20484e-07
1537.96	-1.13797e-07
1546.64	-1.38775e-07
1555.32	-2.19027e-07
1564	-2.12489e-07
1572.67	-2.05508e-07
1581.35	-2.28005e-07
1590.03	-1.97546e-07
1598.71	-2.18518e-07
1607.39	-1.95033e-07
1616.07	-2.00034e-07
1624.74	-2.19042e-07
1633.42	-1.95435e-07
1642.1	-1.67219e-07
1650.78	-1.98346e-07
1659.46	-1.92394e-07
1668.13	-1.8809e-07
1676.81	-1.38669e-07
1685.49	-1.41812e-07
1694.17	-1.67822e-07
1702.85	-1.82875e-07
1711.53	-1.93192e-07
1720.2	-1.58657e-07
1728.88	-1.82185e-07
1737.56	-1.67872e-07
1746.24	-1.87402e-07
1754.92	-1.98244e-07
1763.59	-1.73485e-07
1772.27	-1.87174e-07
1780.95	-1.8278e-07
1789.63	-1.78404e-07
1798.31	-1.74511e-07
1806.98	-1.78406e-07
1815.66	-1.87736e-07
1824.34	-1.47332e-07
1833.02	-1.42679e-07
1841.7	-8.71846e-08
1850.38	1.03635e-08
1859.05	3.4995e-08
1867.73	2.76582e-08
1876.41	1.38992e-07
1885.09	1.44425e-09
1893.77	7.16316e-08
1902.44	-3.40255e-08
1911.12	-9.74035e-08
1919.8	-1.10451e-07
1928.48	-1.34257e-07
1937.16	-1.55532e-07
1945.84	-1.9512e-07
1954.51	-2.17181e-07
1963.19	-2.00585e-07
1971.87	-2.00921e-07
1980.55	-2.09489e-07
1989.23	-2.04212e-07
1997.9	-1.95123e-07
2006.58	-1.76074e-07
2015.26	-1.69337e-07
2023.94	-1.84203e-07
2032.62	-1.59394e-07
2041.3	-4.57214e-08
2049.97	7.06948e-08
2058.65	1.36631e-08
2067.33	9.86086e-08
2076.01	5.98338e-08
2084.69	-1.46818e-07
2093.36	-1.61073e-07
2102.04	-1.15863e-07
2110.72	-8.57521e-08
2119.4	-3.3327e-08
2128.08	-4.47064e-08
2136.75	-1.54761e-07
2145.43	-1.77403e-07
2154.11	-9.67796e-08
2162.79	-7.59025e-08
2171.47	-1.29761e-07
2180.15	-2.35437e-08
2188.82	-1.17884e-07
2197.5	-1.59814e-07
2206.18	-1.36968e-07
2214.86	-2.02207e-07
2223.54	-2.25641e-07
2232.21	-1.32037e-07
2240.89	-1.03159e-07
2249.57	-7.9695e-08
2258.25	2.62121e-08
2266.93	2.88727e-07
2275.61	4.38821e-07
2284.28	4.75424e-07
2292.96	1.40658e-07
2301.64	8.00898e-07
2310.32	1.16055e-06
2319	1.2575e-06
2327.67	1.86172e-06
2336.35	2.31051e-06
2345.03	1.31215e-06
2353.71	1.65627e-06
2362.39	3.01556e-06
2371.06	1.47736e-06
2379.74	-3.01793e-08
2388.42	-2.58483e-07
2397.1	-2.49093e-07
2405.78	-2.71807e-07
2414.46	-2.45257e-07
2423.13	-1.94836e-07
2431.81	-1.22502e-07
2440.49	3.36326e-09
2449.17	4.36561e-07
2457.85	1.34875e-06
2466.52	3.63898e-06
2475.2	8.2012e-06
2483.88	1.2524e-05
2492.56	1.04764e-05
2501.24	3.30005e-06
2509.92	1.78914e-05
2518.59	1.01751e-05
2527.27	5.85695e-07
2535.95	-1.5411e-07
2544.63	-1.77384e-07
2553.31	-1.59455e-07
2561.98	-1.73806e-07
2570.66	-1.72448e-07
2579.34	-1.6907e-07
2588.02	-1.73263e-07
2596.7	-1.82042e-07
2605.38	-1.90402e-07
2614.05	-2.18918e-07
2622.73	-2.45578e-07
2631.41	-3.07951e-07
2640.09	-4.34433e-07
2648.77	-6.55051e-07
2657.44	-8.82597e-07
2666.12	-1.00709e-06
2674.8	-1.15596e-06
2683.48	-1.19397e-06
2692.16	-1.24923e-06
2700.83	-1.20796e-06
2709.51	-1.16014e-06
2718.19	-1.28269e-06
2726.87	-7.14313e-07
2735.55	-1.11266e-06
2744.23	-1.3153e-06
2752.9	-1.31728e-06
2761.58	-1.32244e-06
2770.26	-1.13048e-06
2778.94	-8.46665e-07
2787.62	-4.06599e-07
2796.29	-2.52577e-07
2804.97	-1.55876e-07
2813.65	-1.81378e-07
2822.33	-1.53218e-07
2831.01	-1.93582e-07
2839.69	-1.49803e-07
2848.36	-1.48923e-07
2857.04	-1.89958e-07
2865.72	-1.32781e-07
2874.4	-1.80308e-07
2883.08	-1.65296e-07
2891.75	-1.54104e-07
2900.43	-1.58788e-07
2909.11	-1.90856e-07
2917.79	-1.58699e-07
2926.47	-1.74533e-07
2935.14	-1.69141e-07
2943.82	-1.49572e-07
2952.5	-1.81013e-07
2961.18	-1.25837e-07
2969.86	-1.63706e-07
2978.54	-1.20603e-07
2987.21	-1.30586e-07
2995.89	-2.21221e-07
3004.57	-2.00448e-07
3013.25	-1.69953e-07
3021.93	-1.5259e-07
3030.6	-1.21736e-07
3039.28	-1.60199e-07
3047.96	-1.94111e-07
3056.64	-1.58834e-07
3065.32	-2.03824e-07
3074	-1.37559e-07
3082.67	-1.51182e-07
3091.35	-1.95723e-07
3100.03	-1.34025e-07
3108.71	-1.66088e-07
3117.39	-1.66314e-07
3126.06	-1.52748e-07
3134.74	-1.51035e-07
3143.42	-1.38646e-07
3152.1	-1.04435e-07
3160.78	-2.11602e-07
3169.46	-1.33035e-07
3178.13	-1.2402e-07
3186.81	-1.7462e-07
3195.49	-1.38378e-07
3204.17	-1.45801e-07
3212.85	-1.63496e-07
3221.52	-1.1855e-07
3230.2	-1.08963e-07
3238.88	-1.49945e-07
3247.56	-8.44052e-08
3256.24	-1.21332e-07
3264.91	-1.95459e-07
3273.59	-1.90129e-07
3282.27	-1.20791e-07
3290.95	-2.23319e-07
3299.63	-1.51619e-07
3308.31	-1.15758e-07
3316.98	-1.17291e-07
3325.66	-1.14263e-07
3334.34	-2.303e-07
3343.02	-1.71838e-07
3351.7	-1.49238e-07
3360.37	-1.81083e-07
3369.05	-1.36567e-07
3377.73	-1.17564e-07
3386.41	-1.70096e-07
3395.09	-1.78416e-07
3403.77	-1.21377e-07
3412.44	-1.33102e-07
3421.12	-9.90642e-08
3429.8	-1.48787e-07
3438.48	-1.34984e-07
3447.16	-1.73923e-07
3455.83	-7.13623e-08
3464.51	-1.29022e-07
3473.19	-1.38674e-07
3481.87	-1.26803e-07
3490.55	-1.8113e-07
3499.22	-9.48288e-08
3507.9	-1.43537e-07
3516.58	-9.11917e-08
3525.26	-9.03114e-08
3533.94	-1.33588e-07
3542.62	-1.11819e-07
3551.29	-1.31423e-07
3559.97	-1.3993e-07
3568.65	-1.23632e-07
3577.33	-7.74077e-08
3586.01	-1.16307e-07
3594.68	-5.06744e-08
3603.36	-7.90902e-08
3612.04	-3.74633e-08
3620.72	-6.0645e-08
3629.4	1.34912e-08
3638.08	7.15342e-08
3646.75	1.01371e-08
3655.43	-1.19523e-07
3664.11	-9.6765e-08
3672.79	-1.24319e-07
3681.47	-1.11117e-07
3690.14	-9.29179e-08
3698.82	-8.94264e-08
3707.5	-4.3686e-08
3716.18	-1.37596e-07
3724.86	-6.72242e-08
3733.54	-5.73063e-08
3742.21	-7.94713e-08
3750.89	-1.40261e-07
3759.57	-1.49245e-07
3768.25	-1.0378e-07
3776.93	-1.47556e-07
3785.6	-1.43689e-07
3794.28	-7.62517e-08
3802.96	-1.12499e-07
3811.64	-1.31576e-07
3820.32	-1.07327e-07
3828.99	-1.01409e-07
3837.67	-1.14492e-07
3846.35	-5.44451e-08
3855.03	-1.2897e-07
3863.71	-1.56019e-07
3872.39	-9.24141e-08
3881.06	-1.31825e-07
3889.74	-9.09716e-08
3898.42	-1.1678e-07
3907.1	-2.54257e-07
3915.78	-1.20513e-07
3924.45	-1.62014e-07
3933.13	-1.45094e-07
3941.81	-1.18201e-07
3950.49	-1.82881e-07
3959.17	-6.29524e-08
3967.85	-1.84524e-07
