Infrared Spectrum: Sulfur Dioxide
Formula: S O2
CAS: 7446-09-5
State: gas
Melting point: -72.7 C
Boiling point: -10 C
Class: IUPAC A
Instrument: IFS66V (Bruker)
Instrument parameters: KBr Beam splitter; MCT Detector; Multipass cell
Sampling: 1 L/min Flow
Resolution: 1.9290
Temperature: 23 C
Pressure: 101.3 kPa
Origin: NIST, Anayltical Chemistry Division, 301-975-3108
cm-1	(micromol/mol)-1m-1 (base 10)
574.687	1.62576e-05
583.365	9.24167e-06
592.043	5.70477e-06
600.721	3.39439e-06
609.4	1.52513e-06
618.078	8.54999e-07
626.756	3.15272e-07
635.434	-1.44043e-08
644.112	1.27327e-11
652.79	-1.29639e-07
661.469	-1.26391e-07
670.147	-2.18821e-08
678.825	-2.49838e-07
687.503	-4.21617e-08
696.181	-2.60084e-07
704.859	-9.89905e-08
713.537	-2.88011e-07
722.216	-2.47777e-07
730.894	-3.05394e-07
739.572	-2.41327e-07
748.25	-2.94409e-07
756.928	-1.94079e-07
765.606	-2.43122e-07
774.285	-1.549e-07
782.963	-1.78958e-07
791.641	-2.01924e-07
800.319	-2.95284e-07
808.997	-1.94297e-07
817.675	-1.64791e-07
826.353	-2.52316e-07
835.032	-3.40728e-07
843.71	-2.47952e-07
852.388	-2.55589e-07
861.066	-2.19352e-07
869.744	-2.43451e-07
878.422	-2.1397e-07
887.101	-1.60583e-07
895.779	-2.01255e-07
904.457	-1.26267e-07
913.135	-1.984e-07
921.813	-2.54624e-07
930.491	-1.87156e-07
939.169	-2.35736e-07
947.848	-2.32638e-07
956.526	-2.32956e-07
965.204	-2.02315e-07
973.882	-2.22309e-07
982.56	-2.06262e-07
991.238	-2.49766e-07
999.917	-2.23041e-07
1008.59	-2.4933e-07
1017.27	-2.28219e-07
1025.95	-1.95973e-07
1034.63	-1.87823e-07
1043.31	-7.82853e-08
1051.99	9.35318e-08
1060.66	4.67642e-07
1069.34	1.35023e-06
1078.02	2.96094e-06
1086.7	5.49445e-06
1095.38	9.54683e-06
1104.05	1.46511e-05
1112.73	2.36857e-05
1121.41	3.4689e-05
1130.09	4.2499e-05
1138.77	5.37901e-05
1147.45	3.20171e-05
1156.12	4.25755e-05
1164.8	5.9819e-05
1173.48	5.23838e-05
1182.16	3.06338e-05
1190.84	2.39711e-05
1199.51	1.70542e-05
1208.19	1.03855e-05
1216.87	5.94415e-06
1225.55	3.31032e-06
1234.23	1.38119e-06
1242.9	5.04846e-07
1251.58	2.25788e-08
1260.26	-2.86604e-08
1268.94	-2.39029e-07
1277.62	-1.60877e-07
1286.3	-1.9027e-07
1294.97	1.48577e-07
1303.65	1.76186e-06
1312.33	1.1095e-05
1321.01	4.8943e-05
1329.69	0.000167385
1338.36	0.000422344
1347.04	0.000645545
1355.72	0.000535793
1364.4	0.000173644
1373.08	0.000824538
1381.76	0.000471685
1390.43	8.9647e-05
1399.11	5.02051e-06
1407.79	2.05057e-07
1416.47	-7.75659e-08
1425.15	-1.53984e-08
1433.82	-1.54578e-07
1442.5	-1.34448e-07
1451.18	-1.88685e-07
1459.86	-1.83429e-07
1468.54	-2.01737e-07
1477.22	-1.95908e-07
1485.89	-2.36411e-07
1494.57	-2.13061e-07
1503.25	-1.83235e-07
1511.93	-1.62574e-07
1520.61	-1.29849e-07
1529.28	-1.13202e-07
1537.96	-1.19198e-07
1546.64	-1.36221e-07
1555.32	-2.24196e-07
1564	-2.06768e-07
1572.67	-2.07034e-07
1581.35	-2.25457e-07
1590.03	-2.00741e-07
1598.71	-2.20858e-07
1607.39	-1.97976e-07
1616.07	-1.98087e-07
1624.74	-2.27839e-07
1633.42	-1.95229e-07
1642.1	-1.69485e-07
1650.78	-1.97919e-07
1659.46	-1.99103e-07
1668.13	-1.9176e-07
1676.81	-1.40838e-07
1685.49	-1.38704e-07
1694.17	-1.65395e-07
1702.85	-1.9068e-07
1711.53	-1.98234e-07
1720.2	-1.55208e-07
1728.88	-1.83759e-07
1737.56	-1.66627e-07
1746.24	-1.90836e-07
1754.92	-1.99502e-07
1763.59	-1.71906e-07
1772.27	-1.87811e-07
1780.95	-1.81699e-07
1789.63	-1.78461e-07
1798.31	-1.71341e-07
1806.98	-1.76834e-07
1815.66	-1.93046e-07
1824.34	-1.46423e-07
1833.02	-1.53909e-07
1841.7	-9.1933e-08
1850.38	2.42004e-08
1859.05	1.61724e-08
1867.73	4.0239e-08
1876.41	1.66187e-07
1885.09	2.41285e-09
1893.77	9.72134e-08
1902.44	-3.818e-08
1911.12	-1.24911e-07
1919.8	-1.18766e-07
1928.48	-1.32689e-07
1937.16	-1.51508e-07
1945.84	-1.99545e-07
1954.51	-2.21911e-07
1963.19	-2.01303e-07
1971.87	-1.98012e-07
1980.55	-2.1998e-07
1989.23	-2.05532e-07
1997.9	-1.9687e-07
2006.58	-1.68169e-07
2015.26	-1.68388e-07
2023.94	-1.84954e-07
2032.62	-1.62291e-07
2041.3	-4.14259e-08
2049.97	6.85657e-08
2058.65	1.05145e-08
2067.33	9.55127e-08
2076.01	5.47953e-08
2084.69	-1.51221e-07
2093.36	-1.78838e-07
2102.04	-1.32533e-07
2110.72	-8.8145e-08
2119.4	3.83164e-09
2128.08	-1.51074e-08
2136.75	-1.66456e-07
2145.43	-1.78321e-07
2154.11	-8.4327e-08
2162.79	-6.64675e-08
2171.47	-1.63256e-07
2180.15	1.4267e-08
2188.82	-1.35427e-07
2197.5	-1.60428e-07
2206.18	-1.28563e-07
2214.86	-2.07211e-07
2223.54	-2.36367e-07
2232.21	-1.24907e-07
2240.89	-1.05005e-07
2249.57	-7.94676e-08
2258.25	1.3092e-08
2266.93	2.95871e-07
2275.61	4.5152e-07
2284.28	5.0934e-07
2292.96	1.24732e-07
2301.64	8.00769e-07
2310.32	1.16269e-06
2319	1.32896e-06
2327.67	1.83242e-06
2336.35	2.3364e-06
2345.03	1.30155e-06
2353.71	1.66194e-06
2362.39	3.0191e-06
2371.06	1.48411e-06
2379.74	-4.8076e-08
2388.42	-2.54236e-07
2397.1	-2.52277e-07
2405.78	-2.68692e-07
2414.46	-2.4838e-07
2423.13	-1.8675e-07
2431.81	-1.26319e-07
2440.49	8.12893e-09
2449.17	4.37684e-07
2457.85	1.35135e-06
2466.52	3.62541e-06
2475.2	8.24686e-06
2483.88	1.25448e-05
2492.56	1.03931e-05
2501.24	2.72365e-06
2509.92	1.7964e-05
2518.59	1.0166e-05
2527.27	5.6767e-07
2535.95	-1.52538e-07
2544.63	-1.79924e-07
2553.31	-1.64605e-07
2561.98	-1.68269e-07
2570.66	-1.71839e-07
2579.34	-1.65311e-07
2588.02	-1.79951e-07
2596.7	-1.69812e-07
2605.38	-1.9011e-07
2614.05	-2.17419e-07
2622.73	-2.46555e-07
2631.41	-2.9944e-07
2640.09	-4.32046e-07
2648.77	-6.50172e-07
2657.44	-8.95717e-07
2666.12	-1.00001e-06
2674.8	-1.15429e-06
2683.48	-1.18261e-06
2692.16	-1.24249e-06
2700.83	-1.19152e-06
2709.51	-1.16835e-06
2718.19	-1.2878e-06
2726.87	-7.20252e-07
2735.55	-1.11367e-06
2744.23	-1.31739e-06
2752.9	-1.31601e-06
2761.58	-1.34004e-06
2770.26	-1.12957e-06
2778.94	-8.55447e-07
2787.62	-3.93396e-07
2796.29	-2.57573e-07
2804.97	-1.51317e-07
2813.65	-1.90406e-07
2822.33	-1.48624e-07
2831.01	-2.00932e-07
2839.69	-1.33764e-07
2848.36	-1.42166e-07
2857.04	-1.84443e-07
2865.72	-1.28165e-07
2874.4	-1.70635e-07
2883.08	-1.72812e-07
2891.75	-1.51041e-07
2900.43	-1.56582e-07
2909.11	-1.93871e-07
2917.79	-1.63227e-07
2926.47	-1.74038e-07
2935.14	-1.73909e-07
2943.82	-1.40289e-07
2952.5	-1.86395e-07
2961.18	-1.15308e-07
2969.86	-1.74591e-07
2978.54	-1.04442e-07
2987.21	-1.27287e-07
2995.89	-2.29992e-07
3004.57	-2.14886e-07
3013.25	-1.74496e-07
3021.93	-1.46918e-07
3030.6	-1.10916e-07
3039.28	-1.68388e-07
3047.96	-1.89467e-07
3056.64	-1.69654e-07
3065.32	-2.09483e-07
3074	-1.3614e-07
3082.67	-1.4784e-07
3091.35	-2.09792e-07
3100.03	-1.34337e-07
3108.71	-1.7079e-07
3117.39	-1.63206e-07
3126.06	-1.60189e-07
3134.74	-1.48912e-07
3143.42	-1.47443e-07
3152.1	-9.61475e-08
3160.78	-2.21877e-07
3169.46	-1.19322e-07
3178.13	-1.21407e-07
3186.81	-1.73709e-07
3195.49	-1.47622e-07
3204.17	-1.45038e-07
3212.85	-1.79419e-07
3221.52	-1.09774e-07
3230.2	-1.07388e-07
3238.88	-1.57719e-07
3247.56	-6.34526e-08
3256.24	-1.09873e-07
3264.91	-2.13896e-07
3273.59	-1.92949e-07
3282.27	-1.15621e-07
3290.95	-2.3048e-07
3299.63	-1.67847e-07
3308.31	-1.02527e-07
3316.98	-1.11739e-07
3325.66	-1.10333e-07
3334.34	-2.4316e-07
3343.02	-1.77918e-07
3351.7	-1.65168e-07
3360.37	-1.89853e-07
3369.05	-1.46721e-07
3377.73	-1.18019e-07
3386.41	-1.7131e-07
3395.09	-1.90338e-07
3403.77	-1.30948e-07
3412.44	-1.40684e-07
3421.12	-9.5761e-08
3429.8	-1.47291e-07
3438.48	-1.4488e-07
3447.16	-1.80528e-07
3455.83	-5.77411e-08
3464.51	-1.2186e-07
3473.19	-1.3881e-07
3481.87	-1.21641e-07
3490.55	-1.86725e-07
3499.22	-9.92879e-08
3507.9	-1.46804e-07
3516.58	-7.8399e-08
3525.26	-8.20033e-08
3533.94	-1.26569e-07
3542.62	-1.07274e-07
3551.29	-1.3108e-07
3559.97	-1.4869e-07
3568.65	-1.16073e-07
3577.33	-6.23758e-08
3586.01	-1.22418e-07
3594.68	-5.24406e-08
3603.36	-7.65e-08
3612.04	-3.65475e-08
3620.72	-6.96989e-08
3629.4	1.32948e-08
3638.08	7.9162e-08
3646.75	3.22684e-09
3655.43	-1.11089e-07
3664.11	-1.08881e-07
3672.79	-1.20557e-07
3681.47	-1.06741e-07
3690.14	-8.45225e-08
3698.82	-8.52965e-08
3707.5	-3.5989e-08
3716.18	-1.39419e-07
3724.86	-6.9145e-08
3733.54	-5.62013e-08
3742.21	-7.71285e-08
3750.89	-1.43598e-07
3759.57	-1.38316e-07
3768.25	-1.01371e-07
3776.93	-1.5035e-07
3785.6	-1.54505e-07
3794.28	-5.80903e-08
3802.96	-1.21647e-07
3811.64	-1.33468e-07
3820.32	-1.05431e-07
3828.99	-1.01175e-07
3837.67	-1.24993e-07
3846.35	-4.89173e-08
3855.03	-1.38727e-07
3863.71	-1.53294e-07
3872.39	-9.77955e-08
3881.06	-1.34121e-07
3889.74	-8.67862e-08
3898.42	-1.28894e-07
3907.1	-2.66826e-07
3915.78	-1.21416e-07
3924.45	-1.67382e-07
3933.13	-1.51217e-07
3941.81	-1.19962e-07
3950.49	-1.97448e-07
3959.17	-5.73191e-08
3967.85	-1.80104e-07
