Infrared Spectrum: Sulfur Dioxide
Formula: S O2
CAS: 7446-09-5
State: gas
Melting point: -72.7 C
Boiling point: -10 C
Class: IUPAC A
Instrument: IFS66V (Bruker)
Instrument parameters: KBr Beam splitter; MCT Detector; Multipass cell
Sampling: 1 L/min Flow
Resolution: 0.2410
Temperature: 23 C
Pressure: 101.3 kPa
Origin: NIST, Anayltical Chemistry Division, 301-975-3108
cm-1	(micromol/mol)-1m-1 (base 10)
575.048	1.12788e-05
583.606	7.35108e-06
592.163	8.75846e-06
600.721	3.30081e-06
609.279	1.42908e-06
617.836	1.1406e-06
626.394	3.41041e-08
634.951	3.76274e-07
643.509	-2.7828e-07
652.067	-8.01443e-09
660.624	-2.47472e-08
669.182	7.48328e-08
677.74	-3.21261e-07
686.297	2.12153e-07
694.855	4.25316e-07
703.412	2.696e-07
711.97	-1.57102e-07
720.528	-1.92041e-07
729.085	-3.02653e-07
737.643	-3.86079e-07
746.201	-4.02937e-07
754.758	-1.30383e-07
763.316	-6.31173e-07
771.873	-4.55231e-07
780.431	-1.64954e-07
788.989	-8.98685e-08
797.546	-2.58626e-07
806.104	-2.02027e-07
814.662	-5.31651e-07
823.219	-4.51595e-07
831.777	-4.5052e-07
840.334	-3.99794e-08
848.892	-2.45157e-07
857.45	-9.09363e-08
866.007	-8.72255e-08
874.565	-3.42434e-07
883.123	-1.13368e-07
891.68	-2.44391e-07
900.238	-8.11774e-08
908.795	-3.53837e-07
917.353	-3.16215e-07
925.911	-2.03875e-07
934.468	-3.58374e-07
943.026	-2.8327e-07
951.584	-1.9685e-07
960.141	-8.3091e-08
968.699	8.07027e-08
977.256	-7.76322e-08
985.814	1.77605e-08
994.372	-2.45382e-07
1002.93	-1.93881e-07
1011.49	-3.56733e-07
1020.04	-3.07089e-07
1028.6	-1.28707e-07
1037.16	-6.5444e-07
1045.72	1.54571e-07
1054.28	1.36454e-07
1062.83	2.7253e-07
1071.39	1.78043e-06
1079.95	2.8658e-06
1088.51	6.89397e-06
1097.06	1.00601e-05
1105.62	1.59694e-05
1114.18	2.00299e-05
1122.74	3.82365e-05
1131.29	4.44438e-05
1139.85	6.93427e-05
1148.41	1.77182e-05
1156.97	3.93121e-05
1165.52	6.4457e-05
1174.08	4.44951e-05
1182.64	3.97996e-05
1191.2	2.30322e-05
1199.75	1.53259e-05
1208.31	7.35694e-06
1216.87	7.87066e-06
1225.43	2.97014e-06
1233.99	1.46333e-06
1242.54	4.89169e-07
1251.1	-2.39376e-07
1259.66	-1.44267e-07
1268.22	-2.21448e-07
1276.77	-1.43739e-07
1285.33	-1.45129e-07
1293.89	-1.333e-07
1302.45	1.52029e-06
1311	6.54123e-06
1319.56	5.12727e-05
1328.12	0.000135087
1336.68	0.00043616
1345.23	0.000615439
1353.79	0.000495766
1362.35	0.000141704
1370.91	0.000705203
1379.46	0.000535364
1388.02	0.000123577
1396.58	1.10239e-05
1405.14	2.50563e-07
1413.7	1.58144e-07
1422.25	-6.37916e-08
1430.81	-1.94862e-07
1439.37	-2.17446e-07
1447.93	-2.08093e-07
1456.48	-2.03295e-07
1465.04	-1.40865e-07
1473.6	-3.4382e-07
1482.16	-8.2769e-08
1490.71	-2.00979e-07
1499.27	-1.40996e-07
1507.83	-1.40152e-07
1516.39	-1.57862e-07
1524.94	-2.75648e-08
1533.5	-2.27372e-07
1542.06	-4.8183e-08
1550.62	-1.53082e-07
1559.18	-1.01157e-07
1567.73	-2.88903e-07
1576.29	-3.39955e-07
1584.85	-4.26278e-08
1593.41	-4.5082e-07
1601.96	-9.30899e-08
1610.52	-2.45046e-07
1619.08	-1.48536e-07
1627.64	-1.34996e-07
1636.19	-1.76792e-07
1644.75	-2.14822e-07
1653.31	-9.19604e-08
1661.87	-2.01892e-07
1670.42	-9.4034e-08
1678.98	-2.15369e-07
1687.54	-6.9938e-08
1696.1	-2.60569e-07
1704.65	-2.14336e-07
1713.21	-3.23926e-07
1721.77	-2.68983e-07
1730.33	-1.25935e-07
1738.89	-9.20786e-08
1747.44	-3.21668e-08
1756	-2.39696e-07
1764.56	-2.56209e-07
1773.12	-1.33626e-07
1781.67	-2.84743e-07
1790.23	-1.41668e-07
1798.79	-3.14944e-07
1807.35	-1.05866e-07
1815.9	-3.21943e-07
1824.46	-1.14467e-07
1833.02	-2.31447e-07
1841.58	-2.03526e-07
1850.13	6.59684e-07
1858.69	-4.18729e-09
1867.25	9.13874e-08
1875.81	4.25938e-07
1884.36	4.76111e-07
1892.92	-6.7084e-08
1901.48	-2.48351e-07
1910.04	-1.99955e-07
1918.6	-5.40819e-08
1927.15	-1.40647e-07
1935.71	-2.90191e-07
1944.27	-1.40667e-07
1952.83	-1.8536e-07
1961.38	-1.23549e-07
1969.94	-3.14844e-07
1978.5	-2.06462e-07
1987.06	-1.57065e-07
1995.61	-4.95072e-08
2004.17	-2.81962e-07
2012.73	5.51569e-08
2021.29	-2.39472e-07
2029.84	-1.47561e-07
2038.4	-1.3357e-07
2046.96	9.95328e-08
2055.52	1.22699e-07
2064.08	7.06856e-09
2072.63	1.65454e-07
2081.19	-1.30425e-07
2089.75	-2.01174e-07
2098.31	-1.78575e-07
2106.86	-6.39535e-08
2115.42	-1.11311e-07
2123.98	-4.32117e-08
2132.54	-2.49746e-07
2141.09	-1.38486e-07
2149.65	-1.10756e-07
2158.21	7.27838e-07
2166.77	-1.91007e-07
2175.32	-9.4536e-08
2183.88	-2.3188e-07
2192.44	-9.14365e-08
2201	-2.75983e-07
2209.55	1.45404e-07
2218.11	-2.14119e-07
2226.67	-1.06187e-07
2235.23	-2.59452e-07
2243.79	2.80268e-08
2252.34	6.34424e-08
2260.9	-8.45644e-09
2269.46	4.08012e-07
2278.02	9.74955e-08
2286.57	1.81227e-07
2295.13	9.04742e-08
2303.69	1.06691e-06
2312.25	7.43961e-07
2320.8	1.32282e-06
2329.36	5.79007e-07
2337.92	1.79331e-06
2346.48	9.16584e-09
2355.03	5.34384e-07
2363.59	7.03651e-07
2372.15	-2.48353e-07
2380.71	2.54883e-07
2389.26	-2.73727e-07
2397.82	-1.93383e-07
2406.38	-9.70153e-08
2414.94	-1.96022e-07
2423.5	-2.99355e-07
2432.05	-6.0341e-08
2440.61	9.59166e-08
2449.17	4.692e-07
2457.73	1.11022e-06
2466.28	3.28192e-06
2474.84	5.60025e-06
2483.4	1.36314e-05
2491.96	8.98551e-06
2500.51	2.58466e-06
2509.07	2.0681e-05
2517.63	9.65435e-06
2526.19	9.58801e-07
2534.74	-2.96272e-07
2543.3	-1.70162e-07
2551.86	-4.3892e-08
2560.42	-2.11165e-07
2568.98	-3.27324e-07
2577.53	-2.60005e-07
2586.09	4.69424e-08
2594.65	-3.06698e-07
2603.21	-2.35294e-07
2611.76	-2.97763e-07
2620.32	-1.12604e-07
2628.88	-1.95117e-07
2637.44	-4.45263e-07
2645.99	-5.6971e-07
2654.55	-6.79593e-07
2663.11	-9.3883e-07
2671.67	-1.04489e-06
2680.22	-1.06697e-06
2688.78	-1.37448e-06
2697.34	-1.07573e-06
2705.9	-1.09864e-06
2714.45	-1.1464e-06
2723.01	-1.05854e-06
2731.57	-1.01273e-06
2740.13	-1.3875e-06
2748.69	-1.3767e-06
2757.24	-1.54185e-06
2765.8	-1.18044e-06
2774.36	-1.1923e-06
2782.92	-9.90737e-07
2791.47	-3.67072e-07
2800.03	-1.37282e-07
2808.59	-1.91593e-07
2817.15	-2.49257e-07
2825.7	-3.43423e-07
2834.26	-1.36614e-07
2842.82	4.68969e-08
2851.38	-4.69917e-07
2859.93	-2.1134e-07
2868.49	-2.53315e-07
2877.05	-4.6424e-08
2885.61	-1.40371e-07
2894.16	-3.24242e-07
2902.72	-1.89903e-07
2911.28	-5.31193e-07
2919.84	-3.38983e-07
2928.4	-3.45108e-07
2936.95	-2.57477e-07
2945.51	8.84024e-10
2954.07	-9.08835e-08
2962.63	-2.92732e-07
2971.18	-2.59405e-08
2979.74	1.30852e-07
2988.3	-1.86e-07
2996.86	-1.87653e-07
3005.41	5.13953e-08
3013.97	-2.18252e-07
3022.53	-3.71083e-07
3031.09	1.69784e-08
3039.64	-6.45702e-08
3048.2	-1.05008e-07
3056.76	-3.20324e-07
3065.32	-4.88125e-07
3073.88	-2.27867e-07
3082.43	-2.5612e-07
3090.99	-2.67717e-08
3099.55	-1.13948e-07
3108.11	-6.1165e-08
3116.66	-3.10225e-07
3125.22	4.3359e-08
3133.78	-2.45468e-07
3142.34	4.566e-08
3150.89	-3.32171e-07
3159.45	-9.43123e-08
3168.01	-6.18508e-08
3176.57	-2.07245e-07
3185.12	-1.91626e-07
3193.68	-2.75605e-07
3202.24	-1.45155e-09
3210.8	6.4652e-08
3219.35	-1.70857e-08
3227.91	-2.5455e-07
3236.47	-1.03655e-07
3245.03	-1.81816e-07
3253.59	-1.13613e-07
3262.14	1.02438e-07
3270.7	-2.36238e-07
3279.26	-2.30288e-07
3287.82	-4.76636e-07
3296.37	-4.81102e-08
3304.93	1.34484e-07
3313.49	-1.75239e-07
3322.05	-1.5053e-07
3330.6	-2.3202e-07
3339.16	-2.56754e-07
3347.72	-3.26307e-08
3356.28	1.59919e-07
3364.83	-3.04552e-08
3373.39	-3.67885e-07
3381.95	8.15612e-08
3390.51	6.02519e-08
3399.06	-4.97331e-07
3407.62	2.08815e-07
3416.18	3.02074e-07
3424.74	9.37848e-08
3433.3	-1.0577e-07
3441.85	1.23267e-07
3450.41	-7.5635e-08
3458.97	-2.12533e-07
3467.53	-3.52898e-07
3476.08	-3.35454e-07
3484.64	-1.4761e-07
3493.2	-8.86644e-08
3501.76	-1.35994e-07
3510.31	-1.73978e-07
3518.87	-3.80485e-07
3527.43	-1.36844e-07
3535.99	-9.17675e-08
3544.54	-1.97041e-07
3553.1	1.61071e-08
3561.66	-3.75492e-07
3570.22	-1.73251e-07
3578.78	-1.90749e-07
3587.33	-7.24827e-08
3595.89	3.99139e-08
3604.45	1.24369e-07
3613.01	-5.92424e-08
3621.56	-3.62026e-07
3630.12	-3.28784e-07
3638.68	3.45757e-07
3647.24	-3.17794e-07
3655.79	8.54375e-08
3664.35	-1.06358e-07
3672.91	1.69616e-07
3681.47	-6.78716e-08
3690.02	-1.73287e-07
3698.58	1.01172e-08
3707.14	-1.53915e-07
3715.7	-2.42592e-07
3724.25	-1.94083e-07
3732.81	-1.21082e-07
3741.37	2.50819e-08
3749.93	-3.47662e-08
3758.49	1.94449e-09
3767.04	1.92575e-08
3775.6	-3.24433e-07
3784.16	-1.67832e-07
3792.72	-4.0144e-07
3801.27	-1.113e-07
3809.83	-2.39822e-07
3818.39	-3.80902e-07
3826.95	-4.11981e-08
3835.5	1.04915e-07
3844.06	1.98196e-08
3852.62	-2.43027e-07
3861.18	6.93814e-08
3869.73	2.24677e-07
3878.29	-3.01132e-08
3886.85	3.45188e-08
3895.41	-2.31882e-07
3903.96	6.02028e-08
3912.52	4.21112e-08
3921.08	-2.03617e-08
3929.64	-3.25206e-07
3938.2	8.37022e-08
3946.75	-3.32242e-07
3955.31	-5.93824e-08
3963.87	-5.69523e-08
3972.43	-2.50237e-07
