Infrared Spectrum: Sulfur Dioxide
Formula: S O2
CAS: 7446-09-5
State: gas
Melting point: -72.7 C
Boiling point: -10 C
Class: IUPAC A
Instrument: IFS66V (Bruker)
Instrument parameters: KBr Beam splitter; MCT Detector; Multipass cell
Sampling: 1 L/min Flow
Resolution: 0.4820
Temperature: 23 C
Pressure: 101.3 kPa
Origin: NIST, Anayltical Chemistry Division, 301-975-3108
cm-1	(micromol/mol)-1m-1 (base 10)
574.928	1.92067e-05
583.606	9.33738e-06
592.284	6.30917e-06
600.962	4.04095e-06
609.641	2.08663e-06
618.319	1.24267e-06
626.997	3.64756e-07
635.675	-2.45641e-07
644.353	1.89632e-07
653.031	-3.08941e-07
661.71	4.15455e-09
670.388	-1.52492e-07
679.066	-1.6072e-07
687.744	-2.16437e-07
696.422	-3.3984e-07
705.1	-3.36966e-08
713.778	-2.32808e-07
722.457	-1.97376e-07
731.135	-2.93669e-07
739.813	-3.04534e-07
748.491	-3.6703e-07
757.169	-1.70713e-07
765.847	-2.68963e-07
774.526	-5.78981e-08
783.204	-1.24509e-07
791.882	-1.96495e-07
800.56	-2.91462e-07
809.238	-1.8668e-07
817.916	-1.64871e-07
826.594	-3.17863e-07
835.273	-4.54203e-07
843.951	-2.50041e-07
852.629	-2.91422e-07
861.307	-2.94908e-07
869.985	-2.57084e-07
878.663	-1.99011e-07
887.342	-8.57358e-08
896.02	-1.74968e-07
904.698	-8.19105e-08
913.376	-2.31425e-07
922.054	-2.85995e-07
930.732	-1.29197e-07
939.41	-2.04877e-07
948.089	-2.50253e-07
956.767	-2.26407e-07
965.445	-2.24771e-07
974.123	-1.34674e-07
982.801	-2.05974e-07
991.479	-3.0166e-07
1000.16	-2.90276e-07
1008.84	-2.32706e-07
1017.51	-6.70676e-08
1026.19	-2.05596e-07
1034.87	-2.21152e-07
1043.55	-2.01197e-08
1052.23	8.50701e-08
1060.9	5.42802e-07
1069.58	1.35104e-06
1078.26	2.97537e-06
1086.94	5.42721e-06
1095.62	1.00499e-05
1104.3	1.38598e-05
1112.97	2.31917e-05
1121.65	3.70521e-05
1130.33	3.04822e-05
1139.01	4.99413e-05
1147.69	2.44927e-05
1156.36	4.06796e-05
1165.04	5.64716e-05
1173.72	5.66557e-05
1182.4	3.3469e-05
1191.08	2.13858e-05
1199.76	1.73815e-05
1208.43	1.03333e-05
1217.11	5.39897e-06
1225.79	3.26341e-06
1234.47	1.46863e-06
1243.15	5.30227e-07
1251.82	1.90496e-07
1260.5	-3.33819e-08
1269.18	-5.32324e-08
1277.86	-1.00673e-07
1286.54	-3.9872e-09
1295.21	3.1926e-07
1303.89	2.22354e-06
1312.57	1.10356e-05
1321.25	5.60663e-05
1329.93	0.000159812
1338.61	0.000410463
1347.28	0.000592957
1355.96	0.000521065
1364.64	0.00017849
1373.32	0.000725239
1382	0.000478081
1390.67	8.86804e-05
1399.35	5.53853e-06
1408.03	6.17134e-07
1416.71	2.66579e-07
1425.39	1.93409e-07
1434.07	6.53359e-08
1442.74	-7.99915e-08
1451.42	-1.01856e-07
1460.1	-1.50617e-07
1468.78	-1.62449e-07
1477.46	-1.58742e-07
1486.13	-1.9667e-07
1494.81	-2.23225e-07
1503.49	-1.43668e-07
1512.17	-1.40807e-07
1520.85	-8.51919e-08
1529.52	-7.43253e-08
1538.2	-1.00848e-07
1546.88	-1.71381e-07
1555.56	-1.76579e-07
1564.24	-1.96624e-07
1572.92	-2.16801e-07
1581.59	-2.04439e-07
1590.27	-2.16517e-07
1598.95	-2.27985e-07
1607.63	-2.26712e-07
1616.31	-2.15291e-07
1624.98	-2.38625e-07
1633.66	-1.75799e-07
1642.34	-1.8769e-07
1651.02	-1.42837e-07
1659.7	-1.8483e-07
1668.38	-2.08257e-07
1677.05	-6.49067e-08
1685.73	-1.3626e-07
1694.41	-2.17996e-07
1703.09	-2.07278e-07
1711.77	-2.40827e-07
1720.44	-1.51737e-07
1729.12	-1.72896e-07
1737.8	-1.54211e-07
1746.48	-1.51221e-07
1755.16	-1.44231e-07
1763.84	-1.72683e-07
1772.51	-1.85771e-07
1781.19	-1.75362e-07
1789.87	-1.84774e-07
1798.55	-1.16351e-07
1807.23	-2.00488e-07
1815.9	-2.33517e-07
1824.58	-1.5806e-07
1833.26	-1.79903e-07
1841.94	-3.35147e-08
1850.62	-1.05519e-08
1859.29	5.99918e-08
1867.97	9.76974e-09
1876.65	1.5171e-07
1885.33	-4.10034e-08
1894.01	3.88711e-07
1902.69	-1.21153e-07
1911.36	-1.56034e-07
1920.04	-1.75446e-07
1928.72	-1.11714e-07
1937.4	-1.63677e-07
1946.08	-1.64145e-07
1954.75	-2.19644e-07
1963.43	-1.96666e-07
1972.11	-1.63954e-07
1980.79	-2.40049e-07
1989.47	-1.76925e-07
1998.15	-1.64567e-07
2006.82	-1.61867e-07
2015.5	-1.4299e-07
2024.18	-2.13646e-07
2032.86	-1.75208e-07
2041.54	-1.37006e-08
2050.21	6.59962e-08
2058.89	-7.02126e-09
2067.57	1.22699e-07
2076.25	9.06489e-08
2084.93	-1.45118e-07
2093.6	-1.87084e-07
2102.28	-1.90716e-07
2110.96	-1.27927e-07
2119.64	4.77962e-07
2128.32	-1.18272e-07
2137	-1.59119e-07
2145.67	-1.86696e-07
2154.35	6.30659e-08
2163.03	-1.26479e-07
2171.71	-2.0282e-07
2180.39	-1.76257e-07
2189.06	-1.5065e-07
2197.74	-2.44162e-07
2206.42	5.21502e-09
2215.1	-2.47565e-07
2223.78	-2.95522e-07
2232.46	-1.248e-07
2241.13	-9.50544e-08
2249.81	-7.97568e-08
2258.49	4.46778e-08
2267.17	2.81031e-07
2275.85	3.99055e-07
2284.52	3.99608e-07
2293.2	1.52925e-07
2301.88	7.1582e-07
2310.56	1.27279e-06
2319.24	2.76594e-06
2327.92	7.20991e-07
2336.59	8.39114e-07
2345.27	4.01807e-07
2353.95	6.31093e-07
2362.63	4.82031e-06
2371.31	2.5504e-06
2379.98	-2.73957e-08
2388.66	-3.025e-07
2397.34	-2.53549e-07
2406.02	-2.82742e-07
2414.7	-2.34623e-07
2423.37	-1.63412e-07
2432.05	-8.5503e-08
2440.73	2.46817e-08
2449.41	4.30613e-07
2458.09	1.65009e-06
2466.77	3.4997e-06
2475.44	7.86448e-06
2484.12	1.50142e-05
2492.8	1.03588e-05
2501.48	2.82477e-06
2510.16	2.00657e-05
2518.83	9.52902e-06
2527.51	4.81235e-07
2536.19	-1.38412e-07
2544.87	-1.71652e-07
2553.55	-1.46848e-07
2562.23	-1.82749e-07
2570.9	-2.10054e-07
2579.58	-1.42408e-07
2588.26	-1.14216e-07
2596.94	-1.49051e-07
2605.62	-1.8027e-07
2614.29	-2.57024e-07
2622.97	-2.38488e-07
2631.65	-2.83715e-07
2640.33	-4.78472e-07
2649.01	-6.45561e-07
2657.68	-9.50181e-07
2666.36	-9.09368e-07
2675.04	-1.16026e-06
2683.72	-1.14837e-06
2692.4	-1.18503e-06
2701.08	-1.17864e-06
2709.75	-1.16667e-06
2718.43	-1.27105e-06
2727.11	-7.25784e-07
2735.79	-1.11066e-06
2744.47	-1.30442e-06
2753.14	-1.33818e-06
2761.82	-1.38811e-06
2770.5	-1.21029e-06
2779.18	-9.51307e-07
2787.86	-3.71272e-07
2796.54	-3.28608e-07
2805.21	-1.64212e-07
2813.89	-2.22941e-07
2822.57	-1.59619e-07
2831.25	-1.84021e-07
2839.93	-1.8222e-07
2848.6	-1.1415e-07
2857.28	-2.18581e-07
2865.96	-9.60003e-08
2874.64	-1.97932e-07
2883.32	-1.80277e-07
2892	-2.81742e-08
2900.67	-1.00904e-07
2909.35	-2.39827e-07
2918.03	-1.87366e-07
2926.71	-1.3039e-07
2935.39	-2.62339e-07
2944.06	-5.54552e-08
2952.74	-1.17652e-07
2961.42	-5.65485e-08
2970.1	-2.12593e-07
2978.78	-1.1138e-07
2987.45	-8.74038e-08
2996.13	-2.79044e-07
3004.81	-2.43558e-07
3013.49	-1.09521e-07
3022.17	-1.17237e-07
3030.85	-9.6637e-08
3039.52	-2.13428e-07
3048.2	-1.48396e-07
3056.88	-1.9854e-07
3065.56	-1.8598e-07
3074.24	-1.45442e-07
3082.91	-1.28678e-07
3091.59	-1.62158e-07
3100.27	-1.6461e-07
3108.95	-1.28797e-07
3117.63	-1.95793e-07
3126.31	-1.46628e-07
3134.98	-1.71985e-07
3143.66	-2.25606e-07
3152.34	-9.67843e-08
3161.02	-2.93125e-07
3169.7	-9.80703e-08
3178.37	-1.52305e-07
3187.05	-6.31641e-08
3195.73	-3.23051e-07
3204.41	-1.80517e-07
3213.09	-2.07988e-07
3221.77	-9.99966e-08
3230.44	-9.79248e-08
3239.12	-2.35019e-07
3247.8	2.41124e-08
3256.48	-1.34313e-07
3265.16	-2.98345e-07
3273.83	-1.88923e-07
3282.51	-8.92955e-08
3291.19	-1.84867e-07
3299.87	-1.55998e-07
3308.55	-1.50393e-07
3317.22	-1.90265e-08
3325.9	-1.30335e-07
3334.58	-2.13414e-07
3343.26	-1.43639e-07
3351.94	-1.53762e-07
3360.62	-2.5668e-07
3369.29	-2.06651e-07
3377.97	-1.17301e-07
3386.65	-1.82174e-07
3395.33	-2.7159e-07
3404.01	-1.60101e-07
3412.68	-2.09556e-07
3421.36	-5.5699e-08
3430.04	-7.67082e-08
3438.72	-2.13335e-07
3447.4	-1.98898e-07
3456.08	-1.00666e-07
3464.75	-3.79148e-08
3473.43	-1.73422e-07
3482.11	-1.737e-07
3490.79	-2.49215e-07
3499.47	-1.47065e-08
3508.14	-1.93279e-07
3516.82	4.26005e-09
3525.5	-3.62632e-08
3534.18	-1.73714e-07
3542.86	-6.33569e-08
3551.53	-1.46064e-07
3560.21	-1.11023e-07
3568.89	-1.93388e-07
3577.57	5.92987e-09
3586.25	-2.53639e-07
3594.93	-1.31372e-07
3603.6	-1.93539e-08
3612.28	-6.44883e-08
3620.96	-7.51439e-08
3629.64	8.26144e-08
3638.32	7.32412e-08
3646.99	-5.37199e-08
3655.67	-4.83539e-08
3664.35	-1.36902e-07
3673.03	-1.40451e-07
3681.71	3.37221e-08
3690.39	-6.55469e-08
3699.06	-8.69272e-08
3707.74	-3.69908e-08
3716.42	-9.9249e-08
3725.1	-6.01482e-08
3733.78	-1.37502e-07
3742.45	-1.39081e-07
3751.13	-1.35108e-07
3759.81	-1.46301e-07
3768.49	-9.25624e-08
3777.17	-1.7913e-07
3785.85	-1.16615e-07
3794.52	-4.51744e-08
3803.2	-9.38321e-08
3811.88	-1.2655e-07
3820.56	-9.90235e-08
3829.24	-1.38248e-07
3837.91	-1.26634e-07
3846.59	5.49332e-09
3855.27	-1.71595e-07
3863.95	-9.19822e-08
3872.63	-1.26392e-07
3881.3	-1.10796e-07
3889.98	-4.12399e-08
3898.66	-1.86529e-07
3907.34	-3.07406e-07
3916.02	-1.42201e-07
3924.7	-1.33935e-07
3933.37	-2.28557e-07
3942.05	-8.66817e-08
3950.73	-2.18703e-07
3959.41	-9.747e-08
3968.09	-2.42845e-07
