Infrared Spectrum: Bromomethane
Formula: C H3 Br
CAS: 74-83-9
State: gas
Melting point: -93.6 C
Boiling point: 3.56 C
Class: IUPAC A
Instrument: IFS66V (Bruker)
Instrument parameters: KBr Beam splitter; MCT Detector; Multipass cell
Sampling: 1 L/min Flow
Resolution: 0.2410
Temperature: 23 C
Pressure: 101.3 kPa
Origin: NIST, Anayltical Chemistry Division, 301-975-3108
cm-1	(micromol/mol)-1m-1 (base 10)
575.048	9.44674e-06
583.606	1.52585e-05
592.163	3.70617e-05
600.721	3.14063e-05
609.279	5.09811e-05
617.836	4.76903e-05
626.394	4.43809e-05
634.951	1.04495e-05
643.509	1.77654e-07
652.067	1.72975e-07
660.624	5.89752e-08
669.182	8.02989e-08
677.74	1.53958e-07
686.297	6.64239e-09
694.855	-1.49311e-07
703.412	2.7339e-09
711.97	-5.04279e-08
720.528	1.76123e-07
729.085	-1.25963e-08
737.643	1.35826e-07
746.201	9.98641e-08
754.758	-8.84128e-08
763.316	-4.81524e-09
771.873	4.28533e-08
780.431	6.13344e-08
788.989	-3.07723e-09
797.546	-1.17382e-08
806.104	1.07976e-07
814.662	-3.86711e-08
823.219	4.85922e-08
831.777	8.54547e-09
840.334	7.51772e-08
848.892	1.15908e-07
857.45	3.02722e-07
866.007	5.37966e-07
874.565	6.44858e-07
883.123	1.86326e-06
891.68	4.25562e-06
900.238	2.70446e-06
908.795	4.93299e-06
917.353	4.51408e-06
925.911	6.35663e-06
934.468	2.94722e-05
943.026	6.43431e-06
951.584	7.36049e-06
960.141	6.78632e-06
968.699	7.90668e-06
977.256	7.31877e-06
985.814	9.89089e-06
994.372	1.08415e-05
1002.93	2.83158e-05
1011.49	4.02407e-06
1020.04	2.69599e-06
1028.6	1.70368e-06
1037.16	1.30778e-06
1045.72	8.32622e-07
1054.28	3.82796e-07
1062.83	3.15981e-07
1071.39	2.92704e-07
1079.95	1.3737e-07
1088.51	1.07675e-07
1097.06	7.25192e-08
1105.62	-3.11565e-08
1114.18	7.44546e-08
1122.74	7.32654e-08
1131.29	2.70866e-08
1139.85	3.64997e-08
1148.41	3.33465e-08
1156.97	6.60683e-08
1165.52	3.68976e-08
1174.08	6.37395e-08
1182.64	1.75692e-07
1191.2	9.55059e-08
1199.75	2.00483e-07
1208.31	1.85363e-07
1216.87	1.48709e-07
1225.43	4.15943e-07
1233.99	1.098e-07
1242.54	2.05811e-07
1251.1	3.16618e-07
1259.66	1.77934e-06
1268.22	6.70565e-06
1276.77	1.82417e-05
1285.33	3.72009e-05
1293.89	7.60167e-05
1302.45	2.05093e-05
1311	4.40881e-05
1319.56	7.81332e-05
1328.12	2.82919e-05
1336.68	3.79246e-06
1345.23	2.131e-06
1353.79	3.04703e-06
1362.35	2.4217e-06
1370.91	2.85473e-06
1379.46	3.95511e-06
1388.02	4.79013e-06
1396.58	4.0722e-06
1405.14	4.57306e-06
1413.7	0.000107319
1422.25	6.04582e-06
1430.81	6.24427e-06
1439.37	1.10041e-05
1447.93	6.04722e-06
1456.48	7.45587e-06
1465.04	6.00657e-06
1473.6	9.88245e-06
1482.16	9.50056e-06
1490.71	6.35878e-06
1499.27	7.45084e-06
1507.83	7.72608e-06
1516.39	8.85427e-06
1524.94	6.39218e-06
1533.5	3.69271e-06
1542.06	3.6322e-06
1550.62	2.23609e-06
1559.18	1.16333e-06
1567.73	1.168e-06
1576.29	1.18718e-06
1584.85	1.07736e-06
1593.41	3.53722e-07
1601.96	5.28318e-07
1610.52	4.61743e-07
1619.08	2.71816e-07
1627.64	1.73237e-07
1636.19	8.84233e-08
1644.75	7.92503e-08
1653.31	2.81528e-07
1661.87	2.37151e-08
1670.42	-5.60149e-09
1678.98	3.08573e-08
1687.54	4.62466e-08
1696.1	1.12648e-07
1704.65	6.53748e-08
1713.21	1.57599e-08
1721.77	6.10689e-08
1730.33	6.20829e-08
1738.89	-3.46471e-08
1747.44	-1.37377e-08
1756	4.58846e-08
1764.56	1.88281e-08
1773.12	2.04883e-08
1781.67	9.22486e-09
1790.23	3.25726e-08
1798.79	1.61292e-08
1807.35	2.86527e-08
1815.9	4.91256e-09
1824.46	-5.32596e-08
1833.02	2.46869e-08
1841.58	3.87961e-08
1850.13	4.99946e-08
1858.69	4.08952e-08
1867.25	1.24481e-08
1875.81	9.10112e-08
1884.36	1.51946e-07
1892.92	5.33321e-07
1901.48	3.8294e-07
1910.04	2.30439e-07
1918.6	4.02825e-07
1927.15	4.04239e-07
1935.71	4.66991e-08
1944.27	-4.82697e-08
1952.83	-1.68754e-09
1961.38	2.40862e-08
1969.94	1.31906e-08
1978.5	4.23863e-09
1987.06	1.0409e-09
1995.61	3.57244e-08
2004.17	-3.12165e-08
2012.73	-7.4973e-09
2021.29	-3.96765e-08
2029.84	3.58972e-09
2038.4	1.53811e-08
2046.96	1.92028e-08
2055.52	6.54303e-08
2064.08	3.48763e-08
2072.63	-1.0504e-08
2081.19	8.11574e-09
2089.75	2.51489e-08
2098.31	-6.23812e-09
2106.86	6.3459e-09
2115.42	1.00464e-07
2123.98	-8.71782e-09
2132.54	6.24313e-09
2141.09	4.80587e-08
2149.65	-6.93842e-09
2158.21	2.17211e-07
2166.77	5.16712e-08
2175.32	1.01613e-07
2183.88	1.40536e-07
2192.44	2.86545e-07
2201	3.96717e-07
2209.55	5.70936e-07
2218.11	3.90055e-07
2226.67	6.40477e-07
2235.23	1.3419e-06
2243.79	1.31083e-06
2252.34	7.10073e-07
2260.9	6.23769e-07
2269.46	6.62559e-07
2278.02	6.77076e-07
2286.57	6.5227e-07
2295.13	7.80207e-07
2303.69	6.3133e-07
2312.25	4.07157e-07
2320.8	5.08711e-07
2329.36	3.83833e-07
2337.92	4.95406e-07
2346.48	3.53011e-07
2355.03	1.92568e-06
2363.59	6.51712e-07
2372.15	5.673e-07
2380.71	5.71776e-07
2389.26	5.48474e-07
2397.82	5.43806e-07
2406.38	5.6411e-07
2414.94	3.6377e-07
2423.5	5.78798e-06
2432.05	3.28326e-07
2440.61	3.2182e-07
2449.17	2.61606e-07
2457.73	1.85682e-07
2466.28	1.76372e-07
2474.84	2.00744e-07
2483.4	1.03837e-07
2491.96	1.6067e-07
2500.51	1.09505e-07
2509.07	8.91727e-08
2517.63	1.99769e-07
2526.19	2.03223e-08
2534.74	-5.72086e-08
2543.3	-7.77419e-08
2551.86	6.69377e-10
2560.42	1.52326e-07
2568.98	3.93786e-07
2577.53	4.56076e-07
2586.09	6.9514e-07
2594.65	2.31444e-08
2603.21	9.60502e-07
2611.76	1.17298e-06
2620.32	-7.75968e-09
2628.88	-2.96172e-07
2637.44	-3.45186e-07
2645.99	-2.86829e-07
2654.55	-1.58579e-07
2663.11	-1.94047e-08
2671.67	6.5383e-08
2680.22	3.35284e-08
2688.78	4.78941e-08
2697.34	5.2678e-08
2705.9	1.71255e-08
2714.45	1.18144e-07
2723.01	8.19851e-08
2731.57	2.12987e-08
2740.13	2.00187e-07
2748.69	3.53351e-08
2757.24	8.55921e-08
2765.8	6.12853e-09
2774.36	1.59347e-07
2782.92	1.14374e-07
2791.47	9.21044e-08
2800.03	1.78906e-07
2808.59	1.45104e-07
2817.15	1.76814e-07
2825.7	3.80781e-07
2834.26	2.28873e-06
2842.82	7.52272e-06
2851.38	9.4803e-06
2859.93	7.79297e-06
2868.49	1.04413e-05
2877.05	9.15408e-06
2885.61	4.92646e-06
2894.16	1.87505e-06
2902.72	3.93044e-07
2911.28	2.48362e-07
2919.84	2.2352e-07
2928.4	1.03544e-06
2936.95	5.21393e-06
2945.51	2.00511e-05
2954.07	5.17874e-05
2962.63	5.35673e-05
2971.18	2.58618e-05
2979.74	5.90412e-05
2988.3	6.29414e-05
2996.86	3.43416e-05
3005.41	1.06424e-05
3013.97	4.35483e-06
3022.53	3.87053e-06
3031.09	3.54843e-06
3039.64	3.53788e-06
3048.2	3.94842e-06
3056.76	4.06048e-06
3065.32	2.80375e-06
3073.88	5.3129e-06
3082.43	3.62542e-06
3090.99	4.74113e-06
3099.55	3.72258e-06
3108.11	2.52022e-06
3116.66	2.32383e-06
3125.22	2.84408e-06
3133.78	1.68663e-06
3142.34	9.73789e-07
3150.89	6.52026e-07
3159.45	7.89547e-07
3168.01	2.46968e-07
3176.57	4.64798e-07
3185.12	2.5406e-07
3193.68	1.74028e-07
3202.24	1.13251e-07
3210.8	1.01071e-07
3219.35	1.41342e-07
3227.91	3.91231e-08
3236.47	2.64736e-08
3245.03	6.12776e-08
3253.59	7.72749e-08
3262.14	4.61488e-08
3270.7	-7.46124e-08
3279.26	4.20303e-08
3287.82	1.66894e-08
3296.37	7.82044e-08
3304.93	2.00404e-09
3313.49	5.75537e-08
3322.05	1.2276e-07
3330.6	1.1256e-07
3339.16	9.7328e-08
3347.72	-1.46117e-07
3356.28	2.31604e-08
3364.83	1.04179e-07
3373.39	8.62437e-08
3381.95	9.53103e-08
3390.51	8.83878e-09
3399.06	-5.67561e-09
3407.62	8.69108e-08
3416.18	-2.8052e-08
3424.74	1.46835e-07
3433.3	7.06061e-08
3441.85	4.51975e-08
3450.41	1.27759e-07
3458.97	8.42961e-08
3467.53	6.05941e-08
3476.08	-3.98639e-08
3484.64	-3.19832e-08
3493.2	3.16285e-08
3501.76	-7.25065e-08
3510.31	3.9627e-08
3518.87	1.38834e-07
3527.43	3.10346e-08
3535.99	1.04754e-07
3544.54	9.22863e-08
3553.1	3.49356e-07
3561.66	4.19333e-07
3570.22	5.47472e-07
3578.78	4.41925e-07
3587.33	4.50029e-07
3595.89	7.20253e-07
3604.45	4.16814e-07
3613.01	2.72e-07
3621.56	2.5776e-08
3630.12	6.23453e-08
3638.68	2.77792e-08
3647.24	9.58915e-08
3655.79	2.12279e-07
3664.35	3.06352e-07
3672.91	3.88125e-07
3681.47	3.28674e-07
3690.02	2.80585e-07
3698.58	3.6794e-07
3707.14	1.75527e-07
3715.7	2.11031e-07
3724.25	2.00887e-07
3732.81	1.07791e-07
3741.37	1.28927e-07
3749.93	1.42992e-07
3758.49	-1.66353e-08
3767.04	1.75433e-07
3775.6	7.05129e-08
3784.16	7.41513e-08
3792.72	6.9261e-08
3801.27	2.22654e-07
3809.83	1.56206e-07
3818.39	1.20652e-07
3826.95	2.80852e-07
3835.5	1.67791e-07
3844.06	6.86198e-08
3852.62	1.19315e-07
3861.18	2.34322e-07
3869.73	3.02049e-07
3878.29	2.71361e-07
3886.85	6.59848e-07
3895.41	1.3321e-07
3903.96	2.80974e-07
3912.52	2.19309e-07
3921.08	3.27892e-07
3929.64	3.95459e-07
3938.2	3.14476e-07
3946.75	2.38119e-07
3955.31	8.02184e-08
3963.87	3.28697e-07
3972.43	6.06386e-07
