Infrared Spectrum: Ethene
Formula: C H2: C H2
CAS: 74-85-1
State: gas
Melting point: -169.15 C
Boiling point: -103.71 C
Class: IUPAC A
Instrument: IFS66V (Bruker)
Instrument parameters: KBr Beam splitter; MCT Detector; Multipass cell
Sampling: 1 L/min Flow
Resolution: 1.9290
Temperature: 23 C
Pressure: 101.3 kPa
Origin: NIST, Anayltical Chemistry Division, 301-975-3108
cm-1	(micromol/mol)-1m-1 (base 10)
574.687	-2.72878e-07
583.365	-3.31272e-07
592.043	-3.61129e-07
600.721	-3.22528e-07
609.4	-2.70901e-07
618.078	-1.88692e-07
626.756	-2.37195e-07
635.434	-2.11734e-07
644.112	-1.67854e-07
652.79	-1.68651e-07
661.469	-1.54447e-07
670.147	-4.73757e-08
678.825	-5.51518e-08
687.503	2.79247e-08
696.181	2.73592e-07
704.859	1.98572e-07
713.537	3.66702e-07
722.216	6.13822e-07
730.894	6.50362e-07
739.572	1.25618e-06
748.25	1.02675e-06
756.928	1.51182e-06
765.606	9.55617e-07
774.285	6.78284e-07
782.963	2.80867e-07
791.641	2.38614e-07
800.319	3.10476e-07
808.997	4.48832e-07
817.675	7.65114e-07
826.353	1.61413e-06
835.032	4.08961e-06
843.71	8.28017e-06
852.388	1.31227e-05
861.066	2.02285e-05
869.744	2.93254e-05
878.422	4.24334e-05
887.101	5.57986e-05
895.779	8.36185e-05
904.457	5.68282e-05
913.135	5.43827e-05
921.813	0.000134305
930.491	8.45484e-05
939.169	9.53729e-05
947.848	0.000361633
956.526	0.000104341
965.204	8.09078e-05
973.882	6.05276e-05
982.56	5.49573e-05
991.238	5.75335e-05
999.917	6.74469e-05
1008.59	7.19975e-05
1017.27	5.55523e-05
1025.95	4.85348e-05
1034.63	3.48466e-05
1043.31	2.91878e-05
1051.99	2.00893e-05
1060.66	1.58928e-05
1069.34	1.80678e-05
1078.02	8.10002e-06
1086.7	5.57083e-06
1095.38	5.10061e-06
1104.05	2.37003e-06
1112.73	1.64702e-06
1121.41	1.37465e-06
1130.09	5.27154e-07
1138.77	1.9401e-07
1147.45	1.37785e-07
1156.12	-4.7916e-08
1164.8	-1.43812e-07
1173.48	-1.50929e-07
1182.16	-2.04753e-07
1190.84	-2.32819e-07
1199.51	-2.34441e-07
1208.19	-2.4244e-07
1216.87	-2.47944e-07
1225.55	-2.48656e-07
1234.23	-2.45918e-07
1242.9	-2.36659e-07
1251.58	-2.46029e-07
1260.26	-2.5579e-07
1268.94	-2.43402e-07
1277.62	-2.3275e-07
1286.3	-2.45882e-07
1294.97	-2.40731e-07
1303.65	-2.30298e-07
1312.33	-2.39321e-07
1321.01	-2.19134e-07
1329.69	-2.29518e-07
1338.36	-2.13001e-07
1347.04	-2.11149e-07
1355.72	-2.14688e-07
1364.4	-1.3148e-07
1373.08	-1.54957e-08
1381.76	7.17182e-07
1390.43	3.06464e-06
1399.11	9.08767e-06
1407.79	1.84071e-05
1416.47	2.87755e-05
1425.15	2.77527e-05
1433.82	1.05876e-05
1442.5	2.89014e-05
1451.18	1.3528e-05
1459.86	1.98067e-05
1468.54	2.26533e-05
1477.22	1.54987e-05
1485.89	8.39136e-06
1494.57	3.51239e-06
1503.25	1.07854e-06
1511.93	1.12218e-07
1520.61	-2.06775e-07
1529.28	-2.36699e-07
1537.96	-2.70946e-07
1546.64	-2.58082e-07
1555.32	-2.49661e-07
1564	-2.53396e-07
1572.67	-2.35904e-07
1581.35	-2.47237e-07
1590.03	-2.26049e-07
1598.71	-2.48328e-07
1607.39	-2.37248e-07
1616.07	-2.77498e-07
1624.74	-2.34803e-07
1633.42	-2.47525e-07
1642.1	-2.43606e-07
1650.78	-2.66813e-07
1659.46	-2.4688e-07
1668.13	-2.61836e-07
1676.81	-2.54414e-07
1685.49	-2.70803e-07
1694.17	-2.35304e-07
1702.85	-2.13077e-07
1711.53	-1.74102e-07
1720.2	-1.3045e-07
1728.88	-8.61141e-08
1737.56	-3.54188e-08
1746.24	1.17277e-08
1754.92	2.04269e-08
1763.59	-1.08919e-07
1772.27	-1.03743e-07
1780.95	1.20497e-08
1789.63	-9.67932e-08
1798.31	-2.1034e-07
1806.98	-2.02645e-07
1815.66	-1.93314e-07
1824.34	1.80477e-07
1833.02	9.1052e-07
1841.7	2.60203e-06
1850.38	5.43926e-06
1859.05	8.62797e-06
1867.73	1.04684e-05
1876.41	7.16748e-06
1885.09	2.63575e-06
1893.77	2.86301e-06
1902.44	9.30444e-06
1911.12	1.39149e-05
1919.8	1.14206e-05
1928.48	6.54832e-06
1937.16	2.40911e-06
1945.84	6.5823e-07
1954.51	-8.42579e-08
1963.19	-1.09119e-07
1971.87	-2.3177e-07
1980.55	-4.46536e-08
1989.23	1.95025e-07
1997.9	6.77235e-08
2006.58	2.94388e-07
2015.26	6.45052e-07
2023.94	8.61547e-07
2032.62	7.58496e-07
2041.3	2.3672e-07
2049.97	-5.37766e-08
2058.65	7.90567e-07
2067.33	1.76515e-06
2076.01	1.63768e-06
2084.69	8.41869e-07
2093.36	1.15397e-07
2102.04	-6.42402e-08
2110.72	-7.93767e-08
2119.4	-4.80487e-08
2128.08	-1.35713e-08
2136.75	5.72245e-09
2145.43	1.29788e-07
2154.11	2.22263e-07
2162.79	1.71563e-07
2171.47	9.00194e-08
2180.15	4.59101e-07
2188.82	7.46984e-07
2197.5	4.88008e-07
2206.18	4.95363e-07
2214.86	3.62738e-07
2223.54	1.82041e-07
2232.21	1.23988e-07
2240.89	7.14124e-09
2249.57	1.04489e-07
2258.25	-6.09533e-08
2266.93	-1.23316e-07
2275.61	-1.23285e-07
2284.28	-1.42245e-07
2292.96	-1.22683e-07
2301.64	-1.20159e-07
2310.32	-9.983e-08
2319	-8.77394e-08
2327.67	-5.14393e-08
2336.35	-3.27886e-08
2345.03	-5.49399e-08
2353.71	-4.08802e-08
2362.39	5.58621e-08
2371.06	-4.03172e-09
2379.74	-9.1149e-08
2388.42	-1.0449e-07
2397.1	-1.21318e-07
2405.78	-1.27839e-07
2414.46	-1.3293e-07
2423.13	-1.26636e-07
2431.81	-1.56107e-07
2440.49	-1.78715e-07
2449.17	-9.37947e-08
2457.85	-8.79549e-08
2466.52	-1.04316e-07
2475.2	-1.36593e-07
2483.88	-1.82574e-07
2492.56	-1.91862e-07
2501.24	-2.19227e-07
2509.92	-2.05676e-07
2518.59	-2.21831e-07
2527.27	-2.22934e-07
2535.95	-2.24171e-07
2544.63	-2.11511e-07
2553.31	-2.36298e-07
2561.98	-2.22969e-07
2570.66	-1.62865e-07
2579.34	-2.29315e-07
2588.02	-2.2608e-07
2596.7	-2.22357e-07
2605.38	-2.1776e-07
2614.05	-2.1971e-07
2622.73	-2.07301e-07
2631.41	-2.11968e-07
2640.09	-2.1458e-07
2648.77	-2.11836e-07
2657.44	-2.19577e-07
2666.12	-2.28651e-07
2674.8	-2.27499e-07
2683.48	-2.38499e-07
2692.16	-2.35417e-07
2700.83	-2.51101e-07
2709.51	-2.51719e-07
2718.19	-2.55322e-07
2726.87	-2.39179e-07
2735.55	-2.47389e-07
2744.23	-2.44873e-07
2752.9	-2.55489e-07
2761.58	-2.60065e-07
2770.26	-2.64436e-07
2778.94	-2.75957e-07
2787.62	-2.87004e-07
2796.29	-3.06543e-07
2804.97	-3.48575e-07
2813.65	-3.41724e-07
2822.33	-4.11704e-07
2831.01	-4.32257e-07
2839.69	-5.06614e-07
2848.36	-4.54355e-07
2857.04	-3.79154e-07
2865.72	-3.266e-07
2874.4	-2.67129e-07
2883.08	-2.93185e-07
2891.75	-4.92613e-07
2900.43	-3.45347e-07
2909.11	-2.95175e-07
2917.79	3.4804e-08
2926.47	9.24949e-07
2935.14	3.6195e-06
2943.82	9.71058e-06
2952.5	1.81719e-05
2961.18	2.93559e-05
2969.86	2.87179e-05
2978.54	1.60563e-05
2987.21	8.57976e-05
2995.89	1.24948e-05
3004.57	3.4416e-05
3013.25	4.25151e-05
3021.93	3.19137e-05
3030.6	2.28361e-05
3039.28	1.69684e-05
3047.96	1.69151e-05
3056.64	1.92808e-05
3065.32	2.35316e-05
3074	3.334e-05
3082.67	3.4876e-05
3091.35	3.42042e-05
3100.03	3.68484e-05
3108.71	2.56847e-05
3117.39	3.48983e-05
3126.06	5.03825e-05
3134.74	3.58512e-05
3143.42	2.71269e-05
3152.1	2.44511e-05
3160.78	2.1736e-05
3169.46	2.73123e-05
3178.13	1.48684e-05
3186.81	1.13515e-05
3195.49	8.28931e-06
3204.17	6.31081e-06
3212.85	4.41691e-06
3221.52	2.4675e-06
3230.2	1.56862e-06
3238.88	8.19073e-07
3247.56	4.1733e-07
3256.24	1.4174e-07
3264.91	-2.69652e-08
3273.59	-8.67298e-08
3282.27	-1.59128e-07
3290.95	-1.60686e-07
3299.63	-1.63355e-07
3308.31	-1.9415e-07
3316.98	-2.10218e-07
3325.66	-1.88179e-07
3334.34	-2.08855e-07
3343.02	-1.85949e-07
3351.7	-1.62278e-07
3360.37	-1.9328e-07
3369.05	-1.64824e-07
3377.73	-2.00234e-07
3386.41	-1.76974e-07
3395.09	-2.0443e-07
3403.77	-2.36789e-07
3412.44	-2.47837e-07
3421.12	-2.35698e-07
3429.8	-2.34798e-07
3438.48	-2.45034e-07
3447.16	-2.252e-07
3455.83	-2.35393e-07
3464.51	-2.20339e-07
3473.19	-2.12133e-07
3481.87	-1.74294e-07
3490.55	-2.10496e-07
3499.22	-2.18553e-07
3507.9	-2.44346e-07
3516.58	-2.0284e-07
3525.26	-1.47823e-07
3533.94	-1.64341e-07
3542.62	-2.16478e-07
3551.29	-2.23202e-07
3559.97	-2.36131e-07
3568.65	-2.36904e-07
3577.33	-2.28279e-07
3586.01	-2.20475e-07
3594.68	-2.39564e-07
3603.36	-2.20213e-07
3612.04	-2.33229e-07
3620.72	-2.26022e-07
3629.4	-2.55249e-07
3638.08	-2.23819e-07
3646.75	-2.21404e-07
3655.43	-2.56376e-07
3664.11	-2.18355e-07
3672.79	-2.20537e-07
3681.47	-2.37323e-07
3690.14	-2.66914e-07
3698.82	-2.50866e-07
3707.5	-2.90979e-07
3716.18	-2.99685e-07
3724.86	-2.62896e-07
3733.54	-2.65811e-07
3742.21	-2.60561e-07
3750.89	-2.86636e-07
3759.57	-2.60785e-07
3768.25	-1.63277e-07
3776.93	-4.87755e-07
3785.6	-1.97961e-07
3794.28	-1.83977e-07
3802.96	-1.83098e-07
3811.64	-1.5325e-07
3820.32	-2.35291e-07
3828.99	-1.65567e-07
3837.67	-2.195e-07
3846.35	-1.80364e-07
3855.03	-1.81262e-07
3863.71	-1.01159e-07
3872.39	-1.02286e-07
3881.06	-1.25281e-07
3889.74	-1.05274e-07
3898.42	-1.22596e-07
3907.1	-1.27816e-07
3915.78	-1.48532e-07
3924.45	-1.03975e-07
3933.13	-1.54764e-07
3941.81	-1.50117e-07
3950.49	-1.9188e-07
3959.17	-1.04858e-07
3967.85	-1.10491e-07
