Infrared Spectrum: Ethene
Formula: C H2: C H2
CAS: 74-85-1
State: gas
Melting point: -169.15 C
Boiling point: -103.71 C
Class: IUPAC A
Instrument: IFS66V (Bruker)
Instrument parameters: KBr Beam splitter; MCT Detector; Multipass cell
Sampling: 1 L/min Flow
Resolution: 0.2410
Temperature: 23 C
Pressure: 101.3 kPa
Origin: NIST, Anayltical Chemistry Division, 301-975-3108
cm-1	(micromol/mol)-1m-1 (base 10)
575.048	1.42101e-07
583.606	-9.06689e-08
592.163	-3.87208e-07
600.721	-2.37424e-07
609.279	-5.9196e-07
617.836	-8.35476e-08
626.394	-4.44902e-07
634.951	-1.98698e-07
643.509	-1.89536e-07
652.067	-3.16335e-07
660.624	-1.93139e-07
669.182	5.23084e-08
677.74	2.4541e-07
686.297	1.00681e-08
694.855	-7.96768e-08
703.412	5.23606e-07
711.97	7.57267e-07
720.528	6.77936e-07
729.085	1.60974e-06
737.643	9.23605e-07
746.201	3.8243e-07
754.758	2.02613e-06
763.316	2.11773e-07
771.873	8.09119e-08
780.431	1.05519e-07
788.989	2.98573e-07
797.546	4.88236e-07
806.104	5.99614e-07
814.662	5.65364e-07
823.219	1.17703e-06
831.777	1.93707e-06
840.334	1.04917e-05
848.892	9.76316e-06
857.45	2.44641e-05
866.007	3.86794e-05
874.565	3.91928e-05
883.123	5.17054e-05
891.68	5.0954e-05
900.238	4.02196e-05
908.795	0.000254583
917.353	4.05481e-05
925.911	6.08006e-05
934.468	7.47073e-05
943.026	8.24097e-05
951.584	0.000277381
960.141	5.5408e-05
968.699	5.34627e-05
977.256	0.000113354
985.814	7.76291e-05
994.372	5.3973e-05
1002.93	4.14941e-05
1011.49	9.8827e-05
1020.04	0.000116698
1028.6	3.11137e-05
1037.16	5.60649e-05
1045.72	2.76771e-05
1054.28	5.65326e-06
1062.83	1.13196e-05
1071.39	5.27662e-06
1079.95	4.16177e-06
1088.51	1.70787e-06
1097.06	5.85048e-06
1105.62	4.65978e-06
1114.18	9.25392e-07
1122.74	4.20204e-07
1131.29	7.24734e-07
1139.85	4.46681e-07
1148.41	1.24182e-08
1156.97	-6.69512e-08
1165.52	-1.91921e-08
1174.08	-2.47239e-07
1182.64	-2.19016e-07
1191.2	-2.21563e-07
1199.75	-2.31423e-07
1208.31	-2.10682e-07
1216.87	-2.59652e-07
1225.43	-2.40575e-07
1233.99	-2.53848e-07
1242.54	-2.28475e-07
1251.1	-2.14889e-07
1259.66	-2.38052e-07
1268.22	-2.57115e-07
1276.77	-2.30985e-07
1285.33	-1.99748e-07
1293.89	-2.36646e-07
1302.45	-2.25088e-07
1311	-2.14551e-07
1319.56	-2.26132e-07
1328.12	-1.88426e-07
1336.68	-2.18401e-07
1345.23	-1.71721e-07
1353.79	-2.14449e-07
1362.35	-2.12835e-07
1370.91	-6.61345e-08
1379.46	9.58026e-07
1388.02	4.11138e-06
1396.58	1.02732e-05
1405.14	1.77567e-05
1413.7	2.01164e-05
1422.25	3.12211e-05
1430.81	1.10134e-05
1439.37	3.68775e-06
1447.93	1.77595e-05
1456.48	1.70556e-05
1465.04	2.77601e-05
1473.6	1.94132e-05
1482.16	1.43292e-05
1490.71	9.16771e-06
1499.27	6.21145e-07
1507.83	4.2459e-07
1516.39	-5.78963e-08
1524.94	-1.87384e-07
1533.5	-2.69769e-07
1542.06	-3.97049e-07
1550.62	-2.57204e-07
1559.18	-2.64161e-07
1567.73	-2.31116e-07
1576.29	-3.81893e-07
1584.85	-2.75455e-07
1593.41	-2.65016e-07
1601.96	-2.60762e-07
1610.52	-2.13523e-07
1619.08	-2.62404e-07
1627.64	-2.59732e-07
1636.19	-2.57713e-07
1644.75	-2.57415e-07
1653.31	-4.93875e-07
1661.87	-2.57993e-07
1670.42	-2.5151e-07
1678.98	-2.24899e-07
1687.54	-2.62624e-07
1696.1	-2.89287e-07
1704.65	-1.78358e-07
1713.21	-2.26085e-07
1721.77	-5.1308e-08
1730.33	1.29184e-07
1738.89	-5.97753e-08
1747.44	7.33595e-09
1756	-7.5886e-08
1764.56	-1.92041e-07
1773.12	-6.8199e-08
1781.67	-3.4677e-08
1790.23	-1.27574e-07
1798.79	-1.81667e-07
1807.35	-1.80954e-07
1815.9	-9.95892e-08
1824.46	1.5845e-07
1833.02	9.5471e-07
1841.58	2.82368e-06
1850.13	6.97113e-06
1858.69	9.70004e-06
1867.25	5.48797e-06
1875.81	6.97231e-06
1884.36	1.21533e-06
1892.92	1.98737e-06
1901.48	1.45419e-05
1910.04	1.23432e-05
1918.6	1.69775e-05
1927.15	3.66073e-06
1935.71	1.60255e-06
1944.27	8.3346e-07
1952.83	2.44018e-07
1961.38	-3.42063e-07
1969.94	-1.11425e-07
1978.5	8.70946e-08
1987.06	-6.3084e-08
1995.61	2.75364e-07
2004.17	3.5272e-07
2012.73	2.11338e-07
2021.29	1.6831e-07
2029.84	1.13409e-06
2038.4	1.31581e-06
2046.96	5.83041e-06
2055.52	-1.16366e-07
2064.08	8.08093e-07
2072.63	2.99063e-06
2081.19	1.32268e-06
2089.75	2.91983e-07
2098.31	-5.39382e-08
2106.86	-2.80985e-07
2115.42	-1.37977e-07
2123.98	1.9181e-07
2132.54	5.65956e-07
2141.09	3.56984e-07
2149.65	1.51179e-07
2158.21	5.62923e-07
2166.77	1.48005e-07
2175.32	1.2693e-07
2183.88	2.83694e-07
2192.44	4.5725e-07
2201	8.26821e-07
2209.55	2.28049e-07
2218.11	2.59869e-07
2226.67	1.01284e-07
2235.23	2.54021e-08
2243.79	1.03727e-07
2252.34	4.98208e-07
2260.9	-5.28505e-08
2269.46	-1.3582e-07
2278.02	-1.65627e-07
2286.57	-1.51659e-07
2295.13	-1.72321e-07
2303.69	-9.18003e-08
2312.25	-9.60003e-08
2320.8	-1.48096e-07
2329.36	-1.04138e-07
2337.92	1.81498e-08
2346.48	-9.18894e-08
2355.03	-1.39785e-07
2363.59	-1.31858e-07
2372.15	-5.48077e-08
2380.71	-8.93829e-08
2389.26	-1.11003e-07
2397.82	-1.53717e-07
2406.38	-1.68739e-07
2414.94	-1.02156e-07
2423.5	-1.14834e-07
2432.05	-1.43845e-07
2440.61	-2.13556e-07
2449.17	-1.10747e-07
2457.73	-8.52774e-08
2466.28	-7.52221e-08
2474.84	-1.21579e-07
2483.4	-1.97598e-07
2491.96	-1.80952e-07
2500.51	-2.32146e-07
2509.07	-2.33073e-07
2517.63	-2.48473e-07
2526.19	-2.15316e-07
2534.74	-1.94524e-07
2543.3	-1.44292e-07
2551.86	-2.4072e-07
2560.42	-2.28762e-07
2568.98	-6.69366e-08
2577.53	-2.06856e-07
2586.09	-2.26176e-07
2594.65	-2.44444e-07
2603.21	-2.01787e-07
2611.76	-2.61853e-07
2620.32	-1.88443e-07
2628.88	-2.11144e-07
2637.44	-2.20377e-07
2645.99	-1.8126e-07
2654.55	-1.91617e-07
2663.11	-1.94565e-07
2671.67	-1.96319e-07
2680.22	-2.57875e-07
2688.78	-2.66486e-07
2697.34	-2.67874e-07
2705.9	-2.62195e-07
2714.45	-2.33388e-07
2723.01	-2.52594e-07
2731.57	-2.42708e-07
2740.13	-2.30583e-07
2748.69	-3.0218e-07
2757.24	-2.80792e-07
2765.8	-2.86275e-07
2774.36	-2.35469e-07
2782.92	-3.14391e-07
2791.47	-3.66444e-07
2800.03	-4.25037e-07
2808.59	-3.7007e-07
2817.15	-2.67778e-07
2825.7	-3.86979e-07
2834.26	-4.04141e-07
2842.82	-4.0218e-07
2851.38	-4.23979e-07
2859.93	-5.31229e-07
2868.49	-2.31458e-07
2877.05	-2.77467e-07
2885.61	-7.33666e-07
2894.16	-5.44377e-07
2902.72	-3.37066e-07
2911.28	-2.90629e-07
2919.84	1.17961e-08
2928.4	1.03289e-06
2936.95	4.34964e-06
2945.51	1.95166e-05
2954.07	1.85335e-05
2962.63	5.42537e-05
2971.18	2.10326e-05
2979.74	1.43637e-05
2988.3	0.000315876
2996.86	6.88173e-06
3005.41	3.41662e-05
3013.97	6.18816e-05
3022.53	3.3466e-05
3031.09	1.78286e-05
3039.64	1.38643e-05
3048.2	2.4334e-05
3056.76	2.42071e-05
3065.32	1.9831e-05
3073.88	5.09051e-05
3082.43	2.51539e-05
3090.99	3.12677e-05
3099.55	4.64884e-05
3108.11	1.50049e-05
3116.66	4.27426e-05
3125.22	6.58668e-05
3133.78	4.62698e-05
3142.34	2.22318e-05
3150.89	3.69529e-05
3159.45	1.48377e-05
3168.01	3.08141e-05
3176.57	1.37165e-05
3185.12	3.53716e-06
3193.68	1.3867e-05
3202.24	8.64902e-06
3210.8	3.96246e-06
3219.35	2.85813e-06
3227.91	3.50796e-06
3236.47	9.76927e-07
3245.03	2.28337e-07
3253.59	1.76194e-07
3262.14	-3.21159e-08
3270.7	-1.39787e-07
3279.26	-1.55537e-07
3287.82	-1.99806e-07
3296.37	-1.568e-07
3304.93	-1.9916e-07
3313.49	-1.26341e-07
3322.05	-2.15822e-07
3330.6	-2.59388e-07
3339.16	-1.48569e-07
3347.72	-1.98134e-07
3356.28	-2.2418e-07
3364.83	-2.34216e-07
3373.39	-1.69056e-07
3381.95	-1.46903e-07
3390.51	-2.04279e-07
3399.06	-1.8957e-07
3407.62	-2.23274e-07
3416.18	-2.01816e-07
3424.74	-2.75652e-07
3433.3	-1.9408e-07
3441.85	-3.00452e-07
3450.41	-2.85294e-07
3458.97	-2.16249e-07
3467.53	-1.88519e-07
3476.08	-1.81589e-07
3484.64	-2.10009e-07
3493.2	-1.36802e-07
3501.76	-2.32826e-07
3510.31	-2.53018e-07
3518.87	-2.02742e-07
3527.43	-2.07382e-07
3535.99	-1.60858e-07
3544.54	-2.11691e-07
3553.1	-1.87553e-07
3561.66	-2.36897e-07
3570.22	-2.28096e-07
3578.78	-1.6976e-07
3587.33	-3.11877e-07
3595.89	-2.55685e-07
3604.45	-2.04026e-07
3613.01	-2.41235e-07
3621.56	-2.32302e-07
3630.12	-1.88295e-07
3638.68	-2.06522e-07
3647.24	-2.41266e-07
3655.79	-2.38905e-07
3664.35	-2.15058e-07
3672.91	-2.58193e-07
3681.47	-2.42174e-07
3690.02	-2.61029e-07
3698.58	-2.59536e-07
3707.14	-3.41632e-07
3715.7	-2.41721e-07
3724.25	-2.7704e-07
3732.81	-3.67327e-07
3741.37	-1.3352e-07
3749.93	-2.28797e-07
3758.49	-2.74906e-07
3767.04	-2.08199e-07
3775.6	-4.3826e-07
3784.16	-1.96801e-07
3792.72	-1.11571e-07
3801.27	-2.82851e-07
3809.83	-3.65368e-07
3818.39	-2.12457e-09
3826.95	-2.75987e-07
3835.5	-1.80376e-07
3844.06	-1.44689e-07
3852.62	-2.01572e-07
3861.18	-4.0696e-08
3869.73	-1.50686e-07
3878.29	-1.09395e-07
3886.85	-1.29249e-07
3895.41	-2.05748e-07
3903.96	-1.82544e-07
3912.52	-1.47032e-07
3921.08	6.75715e-08
3929.64	-4.15419e-08
3938.2	-1.3575e-07
3946.75	-8.35148e-08
3955.31	-1.48169e-07
3963.87	-2.03406e-07
3972.43	-1.10168e-07
