Infrared Spectrum: Bromomethane
Formula: C H3 Br
CAS: 74-83-9
State: gas
Melting point: -93.6 C
Boiling point: 3.56 C
Class: IUPAC A
Instrument: IFS66V (Bruker)
Instrument parameters: KBr Beam splitter; MCT Detector; Multipass cell
Sampling: 1 L/min Flow
Resolution: 0.1250
Temperature: 23 C
Pressure: 101.3 kPa
Origin: NIST, Anayltical Chemistry Division, 301-975-3108
cm-1	(micromol/mol)-1m-1 (base 10)
574.988	1.02389e-05
583.546	1.75494e-05
592.103	3.74088e-05
600.661	3.33268e-05
609.219	4.93446e-05
617.776	5.57454e-05
626.334	4.30659e-05
634.891	9.43842e-06
643.449	6.17914e-08
652.007	1.0438e-07
660.564	-5.47798e-08
669.122	1.71459e-07
677.68	1.35995e-07
686.237	1.16292e-07
694.795	-1.87348e-07
703.352	6.64552e-08
711.91	8.85597e-08
720.468	1.2466e-07
729.025	6.16491e-09
737.583	1.98947e-07
746.141	1.44131e-07
754.698	-5.61699e-08
763.256	-9.7785e-08
771.813	8.68822e-08
780.371	8.85024e-08
788.929	-5.40204e-08
797.486	4.48237e-09
806.044	2.94312e-08
814.602	8.50045e-09
823.159	2.71275e-08
831.717	1.97675e-09
840.274	1.29158e-07
848.832	8.03462e-08
857.39	4.34006e-07
865.947	5.36453e-07
874.505	5.88331e-07
883.063	2.17224e-06
891.62	4.34561e-06
900.178	3.06425e-06
908.735	5.10252e-06
917.293	4.74358e-06
925.851	5.57026e-06
934.408	2.78963e-05
942.966	7.19894e-06
951.524	6.93487e-06
960.081	7.51582e-06
968.639	8.32028e-06
977.196	7.05619e-06
985.754	1.02495e-05
994.312	1.02269e-05
1002.87	2.74259e-05
1011.43	4.8887e-06
1019.98	2.363e-06
1028.54	1.87425e-06
1037.1	1.26637e-06
1045.66	8.95862e-07
1054.22	3.91473e-07
1062.77	3.79262e-07
1071.33	3.82636e-07
1079.89	9.13136e-08
1088.45	1.89069e-07
1097	7.15351e-08
1105.56	-6.39883e-08
1114.12	1.00708e-07
1122.68	1.50147e-07
1131.23	-1.03153e-08
1139.79	6.6629e-08
1148.35	-1.34885e-08
1156.91	7.75177e-08
1165.46	2.93048e-08
1174.02	4.96726e-08
1182.58	1.73859e-07
1191.14	7.87455e-08
1199.69	1.94287e-07
1208.25	2.3317e-07
1216.81	1.0414e-07
1225.37	4.21329e-07
1233.93	1.18557e-07
1242.48	2.18824e-07
1251.04	3.55665e-07
1259.6	1.5122e-06
1268.16	5.06693e-06
1276.71	1.95569e-05
1285.27	4.0994e-05
1293.83	7.92451e-05
1302.39	2.12059e-05
1310.94	4.59867e-05
1319.5	8.39513e-05
1328.06	2.88432e-05
1336.62	3.82824e-06
1345.17	2.35789e-06
1353.73	3.35492e-06
1362.29	2.48733e-06
1370.85	2.28947e-06
1379.4	4.45607e-06
1387.96	4.41731e-06
1396.52	3.74077e-06
1405.08	4.05887e-06
1413.64	9.71693e-05
1422.19	5.9578e-06
1430.75	6.60655e-06
1439.31	1.11326e-05
1447.87	6.3511e-06
1456.42	6.96559e-06
1464.98	5.53338e-06
1473.54	7.88395e-06
1482.1	6.2928e-06
1490.65	5.02103e-06
1499.21	5.93655e-06
1507.77	8.4139e-06
1516.33	1.13038e-05
1524.88	5.16279e-06
1533.44	4.24224e-06
1542	3.65474e-06
1550.56	1.9211e-06
1559.11	1.30537e-06
1567.67	1.30913e-06
1576.23	1.1652e-06
1584.79	1.17748e-06
1593.35	3.28594e-07
1601.9	6.15615e-07
1610.46	4.56815e-07
1619.02	2.7509e-07
1627.58	1.20448e-07
1636.13	5.93609e-08
1644.69	8.37404e-08
1653.25	3.0221e-07
1661.81	2.92148e-08
1670.36	-6.97071e-09
1678.92	1.9085e-08
1687.48	3.34561e-08
1696.04	1.86004e-07
1704.59	7.16243e-08
1713.15	4.4906e-08
1721.71	4.87891e-08
1730.27	7.47315e-08
1738.83	-7.94363e-08
1747.38	4.13222e-09
1755.94	8.56457e-08
1764.5	1.09051e-08
1773.06	3.22688e-08
1781.61	6.23539e-09
1790.17	4.47719e-08
1798.73	1.04959e-08
1807.29	5.13697e-08
1815.84	1.39046e-08
1824.4	-4.36855e-08
1832.96	2.5043e-08
1841.52	3.35052e-08
1850.07	4.30039e-08
1858.63	5.91326e-08
1867.19	1.21538e-08
1875.75	7.30235e-08
1884.3	1.66999e-07
1892.86	5.04203e-07
1901.42	3.57211e-07
1909.98	2.38454e-07
1918.54	3.92643e-07
1927.09	4.18499e-07
1935.65	6.36263e-08
1944.21	-7.30726e-08
1952.77	-1.01566e-08
1961.32	3.16899e-08
1969.88	8.96929e-09
1978.44	-1.09533e-08
1987	-4.99805e-09
1995.55	1.22111e-08
2004.11	-2.1416e-08
2012.67	-4.51921e-09
2021.23	-2.2566e-08
2029.78	-1.79804e-08
2038.34	8.35812e-10
2046.9	1.21866e-08
2055.46	9.6755e-08
2064.01	-2.75791e-08
2072.57	-7.12759e-09
2081.13	1.16559e-08
2089.69	4.22317e-08
2098.25	2.41844e-08
2106.8	-2.87559e-08
2115.36	7.06025e-08
2123.92	5.0317e-09
2132.48	2.44668e-08
2141.03	5.6692e-08
2149.59	-1.21461e-08
2158.15	1.08885e-07
2166.71	4.39106e-08
2175.26	9.37215e-08
2183.82	1.23739e-07
2192.38	3.30055e-07
2200.94	3.4002e-07
2209.49	6.39366e-07
2218.05	4.17907e-07
2226.61	5.76254e-07
2235.17	1.31732e-06
2243.72	1.23829e-06
2252.28	7.60378e-07
2260.84	6.26589e-07
2269.4	6.56905e-07
2277.96	6.47412e-07
2286.51	7.76425e-07
2295.07	7.85993e-07
2303.63	6.48301e-07
2312.19	4.0748e-07
2320.74	4.83622e-07
2329.3	3.99045e-07
2337.86	5.27681e-07
2346.42	2.9265e-07
2354.97	1.87469e-06
2363.53	5.85546e-07
2372.09	5.10871e-07
2380.65	6.15767e-07
2389.2	4.71897e-07
2397.76	6.13752e-07
2406.32	5.20144e-07
2414.88	3.74327e-07
2423.44	6.66066e-06
2431.99	3.38558e-07
2440.55	2.75225e-07
2449.11	2.8331e-07
2457.67	1.93477e-07
2466.22	1.55744e-07
2474.78	2.30048e-07
2483.34	9.13132e-08
2491.9	1.05345e-07
2500.45	1.01218e-07
2509.01	9.82848e-08
2517.57	2.0496e-07
2526.13	4.05237e-08
2534.68	-5.28399e-08
2543.24	-7.03219e-08
2551.8	1.47645e-08
2560.36	1.27683e-07
2568.91	3.16024e-07
2577.47	4.42113e-07
2586.03	7.21789e-07
2594.59	-1.13399e-08
2603.15	8.85418e-07
2611.7	1.17765e-06
2620.26	-4.50374e-09
2628.82	-2.70262e-07
2637.38	-3.46978e-07
2645.93	-2.94672e-07
2654.49	-1.09679e-07
2663.05	-4.78132e-08
2671.61	8.52424e-08
2680.16	2.88633e-08
2688.72	1.18086e-07
2697.28	3.85028e-09
2705.84	3.51e-08
2714.39	9.85272e-08
2722.95	7.45255e-08
2731.51	-5.12069e-08
2740.07	2.21638e-07
2748.62	-1.68881e-08
2757.18	1.01341e-07
2765.74	4.31944e-08
2774.3	1.44073e-07
2782.86	1.11394e-07
2791.41	9.58265e-08
2799.97	1.84549e-07
2808.53	1.55346e-07
2817.09	2.05123e-07
2825.64	3.61396e-07
2834.2	2.37097e-06
2842.76	7.47052e-06
2851.32	7.95183e-06
2859.87	7.30417e-06
2868.43	9.32682e-06
2876.99	9.3369e-06
2885.55	5.83632e-06
2894.1	1.83207e-06
2902.66	3.94184e-07
2911.22	2.8383e-07
2919.78	1.91766e-07
2928.34	1.05954e-06
2936.89	5.22203e-06
2945.45	2.19876e-05
2954.01	5.97736e-05
2962.57	5.27089e-05
2971.12	2.32811e-05
2979.68	6.08356e-05
2988.24	6.81737e-05
2996.8	3.54127e-05
3005.35	1.09675e-05
3013.91	4.56043e-06
3022.47	3.55948e-06
3031.03	3.46189e-06
3039.58	3.44096e-06
3048.14	3.98136e-06
3056.7	4.42894e-06
3065.26	2.94164e-06
3073.81	4.91459e-06
3082.37	3.9347e-06
3090.93	4.86749e-06
3099.49	3.64007e-06
3108.05	2.49346e-06
3116.6	2.41225e-06
3125.16	2.68879e-06
3133.72	1.85853e-06
3142.28	1.19416e-06
3150.83	6.26549e-07
3159.39	6.14373e-07
3167.95	2.92076e-07
3176.51	5.01446e-07
3185.06	2.90037e-07
3193.62	1.46849e-07
3202.18	8.01115e-08
3210.74	7.77537e-08
3219.29	2.04648e-07
3227.85	1.01005e-07
3236.41	2.47879e-09
3244.97	3.50759e-08
3253.52	5.96419e-08
3262.08	1.32183e-07
3270.64	-6.77381e-08
3279.2	4.38888e-08
3287.76	2.67669e-08
3296.31	1.01574e-07
3304.87	1.91323e-08
3313.43	5.49817e-08
3321.99	8.53843e-08
3330.54	1.13727e-07
3339.1	4.88159e-08
3347.66	-9.36755e-08
3356.22	1.51759e-07
3364.77	1.0934e-07
3373.33	3.99043e-08
3381.89	1.11474e-07
3390.45	1.41915e-08
3399	-1.10551e-07
3407.56	1.41358e-07
3416.12	-7.94358e-08
3424.68	2.49566e-07
3433.23	1.18273e-07
3441.79	9.41234e-08
3450.35	2.15188e-07
3458.91	8.10824e-08
3467.47	2.27575e-08
3476.02	-5.90785e-08
3484.58	-1.0735e-07
3493.14	2.06488e-08
3501.7	-7.62067e-08
3510.25	-5.69034e-08
3518.81	7.72767e-08
3527.37	6.21357e-09
3535.93	6.8387e-08
3544.48	1.55155e-07
3553.04	1.92382e-07
3561.6	4.70961e-07
3570.16	5.49824e-07
3578.71	4.29442e-07
3587.27	5.65299e-07
3595.83	6.96602e-07
3604.39	3.93408e-07
3612.95	3.20826e-07
3621.5	-3.15981e-08
3630.06	1.33631e-07
3638.62	4.42203e-08
3647.18	1.65903e-07
3655.73	2.76318e-07
3664.29	2.72882e-07
3672.85	4.10787e-07
3681.41	3.36851e-07
3689.96	2.92728e-07
3698.52	3.45235e-07
3707.08	1.16152e-07
3715.64	2.62046e-07
3724.19	2.38617e-07
3732.75	7.48688e-08
3741.31	7.93139e-08
3749.87	1.55624e-07
3758.42	2.86782e-08
3766.98	1.92534e-07
3775.54	9.49343e-08
3784.1	7.45483e-08
3792.66	1.31473e-07
3801.21	1.79082e-07
3809.77	2.45808e-07
3818.33	1.34292e-07
3826.89	2.79058e-07
3835.44	1.22092e-07
3844	1.32601e-07
3852.56	1.19705e-07
3861.12	2.63613e-07
3869.67	3.47552e-07
3878.23	2.68308e-07
3886.79	7.62487e-07
3895.35	1.29461e-07
3903.9	2.05551e-07
3912.46	1.06985e-07
3921.02	2.9222e-07
3929.58	4.72662e-07
3938.13	3.44742e-07
3946.69	2.36223e-07
3955.25	5.33533e-08
3963.81	3.34123e-07
3972.37	6.42401e-07
