Infrared Spectrum: Bromomethane
Formula: C H3 Br
CAS: 74-83-9
State: gas
Melting point: -93.6 C
Boiling point: 3.56 C
Class: IUPAC A
Instrument: IFS66V (Bruker)
Instrument parameters: KBr Beam splitter; MCT Detector; Multipass cell
Sampling: 1 L/min Flow
Resolution: 0.4820
Temperature: 23 C
Pressure: 101.3 kPa
Origin: NIST, Anayltical Chemistry Division, 301-975-3108
cm-1	(micromol/mol)-1m-1 (base 10)
574.928	7.91777e-06
583.606	1.64651e-05
592.284	3.45622e-05
600.962	3.7596e-05
609.641	6.10194e-05
618.319	4.74373e-05
626.997	4.16717e-05
635.675	8.3042e-06
644.353	1.6934e-07
653.031	1.5091e-07
661.71	8.92079e-08
670.388	-2.79787e-08
679.066	4.68266e-08
687.744	7.30417e-09
696.422	1.00492e-07
705.1	2.90186e-08
713.778	6.62491e-08
722.457	4.28842e-08
731.135	1.84273e-08
739.813	6.5657e-09
748.491	5.29803e-08
757.169	4.34583e-08
765.847	-1.02448e-09
774.526	5.38786e-08
783.204	1.08446e-07
791.882	1.29904e-07
800.56	8.32301e-08
809.238	1.01983e-07
817.916	-8.29953e-08
826.594	1.09024e-07
835.273	-8.17564e-09
843.951	9.94107e-08
852.629	2.40306e-07
861.307	4.07421e-07
869.985	8.10244e-07
878.663	1.84059e-06
887.342	1.79722e-06
896.02	1.98076e-06
904.698	4.1171e-06
913.376	2.12953e-05
922.054	5.19757e-06
930.732	8.74224e-06
939.41	6.3722e-06
948.089	1.02368e-05
956.767	4.82648e-05
965.445	8.58492e-06
974.123	6.70785e-06
982.801	6.9418e-06
991.479	6.85136e-06
1000.16	6.0883e-06
1008.84	5.74432e-06
1017.51	5.09149e-06
1026.19	7.75027e-06
1034.87	2.56492e-06
1043.55	1.21125e-06
1052.23	7.26685e-07
1060.9	5.80376e-07
1069.58	2.82696e-07
1078.26	1.16055e-07
1086.94	1.16887e-07
1095.62	7.77501e-08
1104.3	5.30063e-08
1112.97	6.02177e-08
1121.65	3.40156e-08
1130.33	6.37931e-08
1139.01	1.81442e-08
1147.69	-1.96519e-08
1156.36	7.72094e-08
1165.04	7.5953e-08
1173.72	6.61256e-08
1182.4	1.6066e-07
1191.08	1.31398e-07
1199.76	2.0391e-07
1208.43	2.21885e-07
1217.11	1.37285e-07
1225.79	4.10548e-07
1234.47	1.5889e-07
1243.15	1.07342e-07
1251.82	3.94056e-07
1260.5	1.7494e-06
1269.18	8.10324e-06
1277.86	1.90708e-05
1286.54	5.194e-05
1295.21	6.26854e-05
1303.89	1.312e-05
1312.57	5.24658e-05
1321.25	6.74245e-05
1329.93	2.0754e-05
1338.61	9.57451e-06
1347.28	1.25571e-06
1355.96	2.61139e-06
1364.64	9.56574e-06
1373.32	2.33724e-06
1382	3.00225e-06
1390.67	6.32875e-06
1399.35	6.24478e-06
1408.03	6.11056e-06
1416.71	4.59128e-06
1425.39	8.51727e-06
1434.07	7.4731e-06
1442.74	7.32364e-06
1451.42	7.0869e-06
1460.1	8.02288e-06
1468.78	8.10447e-06
1477.46	6.45495e-06
1486.13	0.000102319
1494.81	7.60974e-06
1503.49	6.07416e-06
1512.17	4.00988e-06
1520.85	4.15e-05
1529.52	4.87672e-06
1538.2	4.43537e-06
1546.88	1.86547e-06
1555.56	1.49747e-06
1564.24	2.14626e-06
1572.92	1.26769e-06
1581.59	6.60979e-07
1590.27	4.68359e-07
1598.95	5.17549e-07
1607.63	7.92702e-07
1616.31	3.27569e-07
1624.98	2.44563e-07
1633.66	2.05841e-07
1642.34	1.35443e-07
1651.02	9.30375e-08
1659.7	3.38885e-08
1668.38	3.42188e-08
1677.05	3.37432e-08
1685.73	5.21223e-08
1694.41	4.56537e-08
1703.09	2.03705e-08
1711.77	7.52107e-10
1720.44	1.6798e-08
1729.12	2.99053e-08
1737.8	2.66445e-08
1746.48	2.78477e-08
1755.16	3.9828e-08
1763.84	4.61179e-08
1772.51	6.30985e-08
1781.19	-1.69085e-08
1789.87	3.07898e-08
1798.55	5.22223e-09
1807.23	1.46088e-08
1815.9	3.45587e-09
1824.58	-4.82174e-08
1833.26	-5.72424e-09
1841.94	3.55655e-08
1850.62	4.2464e-08
1859.29	2.47586e-08
1867.97	-1.58822e-08
1876.65	1.35549e-07
1885.33	2.25916e-07
1894.01	3.98324e-07
1902.69	3.36013e-07
1911.36	4.35096e-07
1920.04	5.55352e-07
1928.72	3.28042e-07
1937.4	4.61036e-08
1946.08	-1.17643e-08
1954.75	-2.90346e-08
1963.43	-6.88787e-09
1972.11	-1.98822e-08
1980.79	-4.41874e-09
1989.47	-5.69844e-08
1998.15	-1.53322e-08
2006.82	4.15946e-08
2015.5	1.22547e-10
2024.18	1.90444e-08
2032.86	2.08867e-08
2041.54	-4.90984e-09
2050.21	1.50451e-08
2058.89	7.6543e-09
2067.57	-1.04661e-08
2076.25	9.51706e-09
2084.93	-6.71394e-10
2093.6	-1.76636e-09
2102.28	-1.79801e-08
2110.96	2.30682e-08
2119.64	1.89146e-07
2128.32	7.72319e-09
2137	2.85678e-09
2145.67	1.60487e-08
2154.35	1.12416e-07
2163.03	5.36626e-08
2171.71	1.15521e-07
2180.39	1.68565e-07
2189.06	2.69729e-07
2197.74	2.48934e-07
2206.42	4.54642e-07
2215.1	9.9902e-07
2223.78	5.16658e-07
2232.46	7.52955e-07
2241.13	7.14798e-07
2249.81	9.85277e-07
2258.49	2.14066e-06
2267.17	1.16849e-06
2275.85	4.77364e-07
2284.52	4.37773e-07
2293.2	4.80121e-07
2301.88	3.64972e-07
2310.56	2.91499e-07
2319.24	6.16242e-07
2327.92	3.92708e-07
2336.59	2.928e-07
2345.27	1.14154e-06
2353.95	6.4291e-07
2362.63	9.61197e-07
2371.31	7.7914e-07
2379.98	5.62975e-07
2388.66	5.1406e-07
2397.34	6.01048e-07
2406.02	5.1177e-07
2414.7	3.692e-07
2423.37	4.61261e-06
2432.05	3.70299e-07
2440.73	3.70061e-07
2449.41	2.46332e-07
2458.09	2.03705e-07
2466.77	1.9853e-07
2475.44	1.64217e-07
2484.12	1.36543e-07
2492.8	1.18431e-07
2501.48	1.19961e-07
2510.16	6.60483e-08
2518.83	1.70448e-07
2527.51	2.27519e-08
2536.19	-2.6047e-08
2544.87	-5.62955e-08
2553.55	3.23856e-08
2562.23	2.88429e-09
2570.9	4.28589e-07
2579.58	8.06052e-07
2588.26	8.24432e-07
2596.94	1.06393e-06
2605.62	1.51354e-06
2614.29	1.29454e-06
2622.97	-2.35412e-07
2631.65	-3.5164e-07
2640.33	-2.67716e-07
2649.01	-2.42399e-07
2657.68	-1.89286e-07
2666.36	2.05872e-08
2675.04	2.10783e-08
2683.72	4.25391e-10
2692.4	4.47015e-08
2701.08	6.33075e-08
2709.75	9.32053e-08
2718.43	4.66609e-08
2727.11	2.19291e-08
2735.79	6.22562e-08
2744.47	8.52557e-08
2753.14	-2.07356e-07
2761.82	5.57944e-08
2770.5	5.56386e-08
2779.18	2.94038e-08
2787.86	1.78375e-07
2796.54	4.18074e-08
2805.21	8.45888e-08
2813.89	1.3354e-07
2822.57	4.34876e-07
2831.25	1.32035e-06
2839.93	5.98649e-06
2848.6	1.21419e-05
2857.28	4.91918e-06
2865.96	6.95431e-06
2874.64	1.06998e-05
2883.32	6.4321e-06
2892	2.48177e-06
2900.67	6.32142e-07
2909.35	9.03206e-08
2918.03	7.67847e-08
2926.71	7.06426e-07
2935.39	4.10229e-06
2944.06	1.78575e-05
2952.74	4.73431e-05
2961.42	6.00242e-05
2970.1	2.49922e-05
2978.78	5.95831e-05
2987.45	6.83617e-05
2996.13	3.17856e-05
3004.81	1.05206e-05
3013.49	4.25341e-06
3022.17	3.84567e-06
3030.85	3.52567e-06
3039.52	3.34022e-06
3048.2	3.94873e-06
3056.88	3.3981e-06
3065.56	4.29585e-06
3074.24	3.96474e-06
3082.91	3.74766e-06
3091.59	4.43219e-06
3100.27	3.93163e-06
3108.95	3.40972e-06
3117.63	3.63234e-06
3126.31	2.05879e-06
3134.98	1.41566e-06
3143.66	8.5107e-07
3152.34	1.00447e-06
3161.02	5.07156e-07
3169.7	3.45009e-07
3178.37	3.20836e-07
3187.05	5.03077e-07
3195.73	1.40324e-07
3204.41	1.26508e-07
3213.09	1.36981e-07
3221.77	1.71779e-07
3230.44	9.1069e-09
3239.12	1.01193e-08
3247.8	4.04808e-08
3256.48	-4.24913e-09
3265.16	-2.66186e-08
3273.83	6.88237e-08
3282.51	-6.64778e-09
3291.19	6.89442e-08
3299.87	5.00322e-08
3308.55	-2.2502e-08
3317.22	-4.27846e-09
3325.9	6.89267e-08
3334.58	1.44549e-08
3343.26	8.01881e-08
3351.94	2.06422e-08
3360.62	4.4538e-08
3369.29	3.7478e-09
3377.97	7.11785e-08
3386.65	1.39695e-08
3395.33	-1.39379e-08
3404.01	-4.93912e-08
3412.68	1.96503e-08
3421.36	-2.64788e-08
3430.04	8.06889e-08
3438.72	9.17511e-09
3447.4	3.6921e-09
3456.08	2.14539e-08
3464.75	7.61758e-08
3473.43	8.31367e-08
3482.11	8.16986e-08
3490.79	7.61049e-08
3499.47	7.95726e-08
3508.14	3.70238e-08
3516.82	-1.96971e-08
3525.5	3.79948e-08
3534.18	1.38392e-08
3542.86	1.23342e-07
3551.53	1.92588e-07
3560.21	3.95844e-07
3568.89	5.88386e-07
3577.57	4.82469e-07
3586.25	4.26096e-07
3594.93	6.35978e-07
3603.6	4.96942e-07
3612.28	1.50631e-07
3620.96	1.06654e-07
3629.64	2.43388e-07
3638.32	8.37155e-08
3646.99	1.73844e-07
3655.67	2.31526e-07
3664.35	2.9308e-07
3673.03	3.4978e-07
3681.71	3.05445e-07
3690.39	2.67488e-07
3699.06	3.42737e-07
3707.74	1.43054e-07
3716.42	1.2259e-07
3725.1	2.15547e-07
3733.78	1.23743e-07
3742.45	1.03308e-07
3751.13	3.92273e-08
3759.81	1.35763e-07
3768.49	8.78301e-08
3777.17	4.32307e-08
3785.85	1.22038e-07
3794.52	1.31525e-07
3803.2	1.0188e-07
3811.88	8.05571e-08
3820.56	2.83645e-07
3829.24	1.36509e-07
3837.91	3.72345e-07
3846.59	2.05594e-07
3855.27	2.34312e-07
3863.95	3.20154e-07
3872.63	2.26567e-07
3881.3	3.79249e-07
3889.98	4.96142e-07
3898.66	2.83183e-07
3907.34	2.83417e-07
3916.02	1.64872e-07
3924.7	1.92841e-07
3933.37	1.5835e-07
3942.05	4.18498e-07
3950.73	3.32294e-07
3959.41	1.99983e-07
3968.09	3.84416e-07
