Infrared Spectrum: Bromomethane
Formula: C H3 Br
CAS: 74-83-9
State: gas
Melting point: -93.6 C
Boiling point: 3.56 C
Class: IUPAC A
Instrument: IFS66V (Bruker)
Instrument parameters: KBr Beam splitter; MCT Detector; Multipass cell
Sampling: 1 L/min Flow
Resolution: 0.9640
Temperature: 23 C
Pressure: 101.3 kPa
Origin: NIST, Anayltical Chemistry Division, 301-975-3108
cm-1	(micromol/mol)-1m-1 (base 10)
575.169	6.60912e-06
583.847	1.85499e-05
592.525	3.54673e-05
601.203	3.70101e-05
609.882	5.01718e-05
618.56	4.65939e-05
627.238	4.05374e-05
635.916	7.65146e-06
644.594	1.82193e-07
653.272	6.316e-08
661.951	8.54238e-08
670.629	-2.03042e-08
679.307	3.34346e-08
687.985	7.64497e-08
696.663	6.66718e-08
705.341	2.39418e-08
714.019	4.75672e-08
722.698	2.73041e-08
731.376	4.62275e-08
740.054	4.96489e-08
748.732	4.00242e-08
757.41	6.00502e-08
766.088	5.24272e-08
774.767	5.74159e-08
783.445	4.78449e-08
792.123	7.79124e-08
800.801	8.42444e-08
809.479	2.89787e-08
818.157	-3.99194e-08
826.835	5.9487e-08
835.514	3.16253e-08
844.192	1.09028e-07
852.87	1.99399e-07
861.548	3.78017e-07
870.226	7.95643e-07
878.904	1.69454e-06
887.583	1.63046e-06
896.261	2.22386e-06
904.939	4.60955e-06
913.617	1.45379e-05
922.295	5.13528e-06
930.973	7.23799e-06
939.651	6.38961e-06
948.33	1.21082e-05
957.008	5.39454e-05
965.686	8.11387e-06
974.364	6.78567e-06
983.042	7.13155e-06
991.72	7.11308e-06
1000.4	6.17974e-06
1009.08	5.91524e-06
1017.75	5.86859e-06
1026.43	7.34375e-06
1035.11	2.30563e-06
1043.79	1.21129e-06
1052.47	6.735e-07
1061.15	5.35794e-07
1069.82	2.68903e-07
1078.5	1.34671e-07
1087.18	1.43116e-07
1095.86	6.3519e-08
1104.54	4.30834e-08
1113.21	4.10586e-08
1121.89	4.04371e-08
1130.57	3.28309e-08
1139.25	1.73728e-08
1147.93	2.21738e-08
1156.61	7.74777e-08
1165.28	5.98285e-08
1173.96	7.69877e-08
1182.64	1.34748e-07
1191.32	1.41012e-07
1200	2.28646e-07
1208.67	2.18381e-07
1217.35	1.44584e-07
1226.03	4.00537e-07
1234.71	1.36762e-07
1243.39	1.34012e-07
1252.07	3.3813e-07
1260.74	1.66067e-06
1269.42	6.76164e-06
1278.1	2.16078e-05
1286.78	4.76168e-05
1295.46	5.9495e-05
1304.13	1.31535e-05
1312.81	5.4562e-05
1321.49	6.70625e-05
1330.17	1.9687e-05
1338.85	8.89862e-06
1347.52	1.20626e-06
1356.2	2.50778e-06
1364.88	8.36644e-06
1373.56	2.62002e-06
1382.24	3.18452e-06
1390.92	5.7178e-06
1399.59	5.89383e-06
1408.27	6.00691e-06
1416.95	4.9477e-06
1425.63	2.6865e-05
1434.31	7.57691e-06
1442.98	7.03148e-06
1451.66	7.24173e-06
1460.34	7.72812e-06
1469.02	7.48359e-06
1477.7	6.77339e-06
1486.38	5.77618e-05
1495.05	6.88139e-06
1503.73	6.43003e-06
1512.41	4.4122e-06
1521.09	2.29322e-05
1529.77	4.62597e-06
1538.44	4.22479e-06
1547.12	1.95379e-06
1555.8	1.50689e-06
1564.48	2.62117e-06
1573.16	1.34151e-06
1581.83	6.2759e-07
1590.51	5.01903e-07
1599.19	5.75813e-07
1607.87	5.98013e-07
1616.55	3.86081e-07
1625.23	2.36072e-07
1633.9	1.92979e-07
1642.58	1.28634e-07
1651.26	7.80648e-08
1659.94	3.53824e-08
1668.62	5.63983e-08
1677.29	4.72655e-08
1685.97	5.92808e-08
1694.65	3.9811e-08
1703.33	1.10524e-08
1712.01	2.51982e-08
1720.69	2.24122e-08
1729.36	3.3658e-08
1738.04	3.17095e-08
1746.72	4.26113e-08
1755.4	3.65764e-08
1764.08	4.10159e-08
1772.75	7.90924e-08
1781.43	-3.85054e-10
1790.11	3.70583e-08
1798.79	2.05541e-08
1807.47	1.26847e-08
1816.15	4.51345e-09
1824.82	-1.61134e-08
1833.5	5.0106e-09
1842.18	2.32498e-08
1850.86	3.68899e-08
1859.54	1.90404e-08
1868.21	-2.36565e-08
1876.89	1.56905e-07
1885.57	2.6211e-07
1894.25	3.87497e-07
1902.93	3.53214e-07
1911.6	4.24044e-07
1920.28	5.64774e-07
1928.96	3.34933e-07
1937.64	3.95764e-08
1946.32	7.71121e-09
1955	-8.30692e-09
1963.67	1.72266e-08
1972.35	-3.29768e-08
1981.03	5.35848e-09
1989.71	-3.42221e-08
1998.39	3.79256e-09
2007.06	4.31305e-08
2015.74	1.71733e-08
2024.42	6.70634e-09
2033.1	3.44844e-08
2041.78	1.0717e-08
2050.46	6.97339e-09
2059.13	2.89767e-08
2067.81	7.49589e-09
2076.49	6.44838e-09
2085.17	1.08758e-08
2093.85	1.28192e-08
2102.52	1.36046e-08
2111.2	7.98047e-08
2119.88	9.39061e-08
2128.56	7.69279e-09
2137.24	1.94957e-08
2145.91	2.66926e-08
2154.59	1.08079e-07
2163.27	5.54549e-08
2171.95	1.04696e-07
2180.63	1.93351e-07
2189.31	2.62585e-07
2197.98	2.77016e-07
2206.66	4.86453e-07
2215.34	1.01737e-06
2224.02	5.70266e-07
2232.7	7.82101e-07
2241.37	7.5434e-07
2250.05	1.08935e-06
2258.73	2.31938e-06
2267.41	8.74487e-07
2276.09	5.08112e-07
2284.77	4.74816e-07
2293.44	4.89754e-07
2302.12	4.20533e-07
2310.8	3.50777e-07
2319.48	4.88448e-07
2328.16	5.12772e-07
2336.83	3.17722e-07
2345.51	8.27566e-07
2354.19	1.00766e-06
2362.87	8.75865e-07
2371.55	6.82389e-07
2380.23	5.55723e-07
2388.9	4.89001e-07
2397.58	5.57112e-07
2406.26	5.5514e-07
2414.94	3.67784e-07
2423.62	2.73344e-06
2432.29	5.91515e-07
2440.97	3.34197e-07
2449.65	2.4229e-07
2458.33	2.312e-07
2467.01	2.04611e-07
2475.68	1.47056e-07
2484.36	1.37973e-07
2493.04	1.42982e-07
2501.72	1.20953e-07
2510.4	1.08463e-07
2519.08	1.62846e-07
2527.75	3.27009e-08
2536.43	-2.49401e-08
2545.11	-6.06503e-09
2553.79	2.12526e-08
2562.47	8.38081e-08
2571.14	3.52011e-07
2579.82	7.35432e-07
2588.5	7.64049e-07
2597.18	1.03647e-06
2605.86	1.54936e-06
2614.54	1.28489e-06
2623.21	-2.18932e-07
2631.89	-3.46024e-07
2640.57	-2.95005e-07
2649.25	-2.34936e-07
2657.93	-1.57956e-07
2666.6	5.90881e-08
2675.28	6.92928e-09
2683.96	1.86229e-09
2692.64	5.4297e-08
2701.32	3.30246e-08
2709.99	8.33705e-08
2718.67	6.56048e-08
2727.35	4.34842e-08
2736.03	7.30792e-08
2744.71	8.83778e-08
2753.39	-1.5481e-07
2762.06	7.82088e-08
2770.74	6.04189e-08
2779.42	4.49677e-08
2788.1	1.26893e-07
2796.78	7.74896e-08
2805.45	8.28001e-08
2814.13	1.74669e-07
2822.81	4.14564e-07
2831.49	1.43466e-06
2840.17	6.14546e-06
2848.85	1.15722e-05
2857.52	5.70093e-06
2866.2	6.92216e-06
2874.88	9.85782e-06
2883.56	5.90465e-06
2892.24	2.15339e-06
2900.91	6.49084e-07
2909.59	1.21812e-07
2918.27	1.66419e-07
2926.95	8.36258e-07
2935.63	4.19191e-06
2944.31	1.83675e-05
2952.98	4.87538e-05
2961.66	6.01511e-05
2970.34	4.42897e-05
2979.02	6.02232e-05
2987.7	6.47861e-05
2996.37	3.37439e-05
3005.05	1.08002e-05
3013.73	4.2105e-06
3022.41	3.75418e-06
3031.09	3.5962e-06
3039.76	3.35801e-06
3048.44	4.07478e-06
3057.12	3.44441e-06
3065.8	4.15066e-06
3074.48	4.49832e-06
3083.16	3.73652e-06
3091.83	4.20592e-06
3100.51	3.93124e-06
3109.19	3.20226e-06
3117.87	3.25189e-06
3126.55	2.35705e-06
3135.22	1.38067e-06
3143.9	8.76835e-07
3152.58	9.24244e-07
3161.26	4.8277e-07
3169.94	2.74954e-07
3178.62	3.32372e-07
3187.29	3.49408e-07
3195.97	1.52597e-07
3204.65	1.19745e-07
3213.33	1.09741e-07
3222.01	1.05476e-07
3230.68	-6.28991e-09
3239.36	1.00199e-08
3248.04	3.62483e-08
3256.72	-1.62771e-08
3265.4	-2.75335e-08
3274.07	2.24937e-08
3282.75	2.33564e-08
3291.43	6.05005e-08
3300.11	6.18272e-08
3308.79	-1.27522e-09
3317.47	3.65264e-08
3326.14	5.99763e-08
3334.82	4.42101e-08
3343.5	4.18039e-08
3352.18	2.86086e-08
3360.86	1.51302e-08
3369.53	3.44788e-08
3378.21	5.49448e-08
3386.89	3.48161e-08
3395.57	-2.82402e-08
3404.25	-1.19257e-10
3412.93	2.87883e-08
3421.6	2.64154e-08
3430.28	5.87629e-08
3438.96	2.08874e-08
3447.64	5.03171e-08
3456.32	5.12866e-08
3464.99	5.34701e-08
3473.67	8.25165e-08
3482.35	8.55218e-08
3491.03	5.93247e-08
3499.71	7.10913e-08
3508.39	7.15657e-08
3517.06	1.05129e-08
3525.74	4.51718e-08
3534.42	3.53972e-08
3543.1	1.10524e-07
3551.78	1.96439e-07
3560.45	4.29967e-07
3569.13	5.66546e-07
3577.81	4.5354e-07
3586.49	4.93826e-07
3595.17	6.89643e-07
3603.84	4.61332e-07
3612.52	1.45508e-07
3621.2	9.38587e-08
3629.88	1.55553e-07
3638.56	5.8926e-08
3647.24	1.54976e-07
3655.91	1.869e-07
3664.59	2.52016e-07
3673.27	3.62273e-07
3681.95	2.9731e-07
3690.63	2.72675e-07
3699.3	3.13988e-07
3707.98	1.34966e-07
3716.66	1.53734e-07
3725.34	1.69241e-07
3734.02	1.22258e-07
3742.7	6.37396e-08
3751.37	6.9479e-08
3760.05	6.74371e-08
3768.73	5.69849e-08
3777.41	2.42432e-08
3786.09	9.09345e-08
3794.76	1.0309e-07
3803.44	9.85346e-08
3812.12	1.06997e-07
3820.8	2.37277e-07
3829.48	1.31445e-07
3838.16	2.60832e-07
3846.83	1.96354e-07
3855.51	2.41627e-07
3864.19	2.8773e-07
3872.87	1.78691e-07
3881.55	3.77454e-07
3890.22	5.14978e-07
3898.9	2.6236e-07
3907.58	2.04697e-07
3916.26	1.72926e-07
3924.94	2.0574e-07
3933.61	1.67888e-07
3942.29	3.72736e-07
3950.97	2.95833e-07
3959.65	1.69565e-07
3968.33	3.74144e-07
