Infrared Spectrum: Ethene
Formula: C H2: C H2
CAS: 74-85-1
State: gas
Melting point: -169.15 C
Boiling point: -103.71 C
Class: IUPAC A
Instrument: IFS66V (Bruker)
Instrument parameters: KBr Beam splitter; MCT Detector; Multipass cell
Sampling: 1 L/min Flow
Resolution: 1.9290
Temperature: 23 C
Pressure: 101.3 kPa
Origin: NIST, Anayltical Chemistry Division, 301-975-3108
cm-1	(micromol/mol)-1m-1 (base 10)
574.687	-2.49744e-07
583.365	-3.52341e-07
592.043	-3.35522e-07
600.721	-3.45826e-07
609.4	-2.5112e-07
618.078	-2.19558e-07
626.756	-2.18982e-07
635.434	-2.49363e-07
644.112	-1.46373e-07
652.79	-1.89882e-07
661.469	-1.27586e-07
670.147	-8.46835e-08
678.825	-4.72793e-08
687.503	2.51562e-09
696.181	3.17687e-07
704.859	1.45771e-07
713.537	4.32586e-07
722.216	6.52286e-07
730.894	6.52175e-07
739.572	1.32288e-06
748.25	1.07793e-06
756.928	1.50807e-06
765.606	9.67412e-07
774.285	6.362e-07
782.963	2.73919e-07
791.641	2.12899e-07
800.319	3.22577e-07
808.997	4.25833e-07
817.675	7.83832e-07
826.353	1.59572e-06
835.032	4.12557e-06
843.71	8.51569e-06
852.388	1.27462e-05
861.066	2.07587e-05
869.744	2.87131e-05
878.422	4.34915e-05
887.101	5.67563e-05
895.779	8.44536e-05
904.457	5.55999e-05
913.135	5.30602e-05
921.813	0.000141435
930.491	8.50435e-05
939.169	9.71707e-05
947.848	0.00032376
956.526	0.000102851
965.204	8.31469e-05
973.882	6.12255e-05
982.56	5.50817e-05
991.238	5.80985e-05
999.917	6.77535e-05
1008.59	6.90733e-05
1017.27	5.61219e-05
1025.95	4.79249e-05
1034.63	3.40351e-05
1043.31	2.96833e-05
1051.99	2.04594e-05
1060.66	1.52223e-05
1069.34	1.87588e-05
1078.02	7.95112e-06
1086.7	5.75302e-06
1095.38	5.06143e-06
1104.05	2.36353e-06
1112.73	1.5949e-06
1121.41	1.42226e-06
1130.09	4.40202e-07
1138.77	2.466e-07
1147.45	8.45243e-08
1156.12	-2.32645e-09
1164.8	-1.82142e-07
1173.48	-1.09252e-07
1182.16	-2.40395e-07
1190.84	-2.00439e-07
1199.51	-2.6457e-07
1208.19	-2.10926e-07
1216.87	-2.77897e-07
1225.55	-2.22299e-07
1234.23	-2.73021e-07
1242.9	-2.13219e-07
1251.58	-2.70807e-07
1260.26	-2.36221e-07
1268.94	-2.62499e-07
1277.62	-2.13401e-07
1286.3	-2.6204e-07
1294.97	-2.2776e-07
1303.65	-2.44981e-07
1312.33	-2.27017e-07
1321.01	-2.29377e-07
1329.69	-2.20394e-07
1338.36	-2.23799e-07
1347.04	-2.06423e-07
1355.72	-2.21028e-07
1364.4	-1.30579e-07
1373.08	-2.20603e-08
1381.76	7.03778e-07
1390.43	3.0587e-06
1399.11	9.15953e-06
1407.79	1.8063e-05
1416.47	2.9094e-05
1425.15	2.78468e-05
1433.82	1.03483e-05
1442.5	2.81536e-05
1451.18	1.35047e-05
1459.86	2.0073e-05
1468.54	2.33432e-05
1477.22	1.49941e-05
1485.89	8.3986e-06
1494.57	3.42663e-06
1503.25	1.1349e-06
1511.93	6.07542e-08
1520.61	-1.71842e-07
1529.28	-2.72947e-07
1537.96	-2.37466e-07
1546.64	-2.86508e-07
1555.32	-2.19902e-07
1564	-2.79573e-07
1572.67	-2.07443e-07
1581.35	-2.73025e-07
1590.03	-1.98683e-07
1598.71	-2.72377e-07
1607.39	-2.14002e-07
1616.07	-3.03569e-07
1624.74	-2.11544e-07
1633.42	-2.63753e-07
1642.1	-2.23477e-07
1650.78	-2.83449e-07
1659.46	-2.2676e-07
1668.13	-2.80515e-07
1676.81	-2.33249e-07
1685.49	-2.90749e-07
1694.17	-2.10496e-07
1702.85	-2.30132e-07
1711.53	-1.49695e-07
1720.2	-1.5109e-07
1728.88	-7.06084e-08
1737.56	-4.6991e-08
1746.24	4.57823e-08
1754.92	7.40135e-09
1763.59	-9.86777e-08
1772.27	-1.3691e-07
1780.95	3.20655e-08
1789.63	-1.14902e-07
1798.31	-1.85395e-07
1806.98	-2.25986e-07
1815.66	-1.57506e-07
1824.34	1.62743e-07
1833.02	9.49987e-07
1841.7	2.60002e-06
1850.38	5.5713e-06
1859.05	8.39437e-06
1867.73	1.0466e-05
1876.41	7.24903e-06
1885.09	2.28806e-06
1893.77	2.79709e-06
1902.44	9.22029e-06
1911.12	1.40035e-05
1919.8	1.13812e-05
1928.48	6.62082e-06
1937.16	2.37083e-06
1945.84	6.68227e-07
1954.51	-8.90617e-08
1963.19	-9.17893e-08
1971.87	-2.57986e-07
1980.55	-4.70547e-08
1989.23	2.26065e-07
1997.9	5.51163e-08
2006.58	3.2078e-07
2015.26	6.72021e-07
2023.94	8.80233e-07
2032.62	8.18985e-07
2041.3	2.13397e-07
2049.97	-7.865e-08
2058.65	7.64207e-07
2067.33	1.76796e-06
2076.01	1.63711e-06
2084.69	8.75704e-07
2093.36	1.13645e-07
2102.04	-6.60446e-08
2110.72	-7.86973e-08
2119.4	-3.82182e-08
2128.08	-1.93074e-08
2136.75	-1.22089e-08
2145.43	1.29099e-07
2154.11	2.23698e-07
2162.79	1.81331e-07
2171.47	8.76557e-08
2180.15	4.87613e-07
2188.82	7.89641e-07
2197.5	4.93256e-07
2206.18	5.28757e-07
2214.86	3.70652e-07
2223.54	1.82145e-07
2232.21	1.17472e-07
2240.89	6.94388e-09
2249.57	9.18975e-08
2258.25	-5.82213e-08
2266.93	-1.26618e-07
2275.61	-1.17996e-07
2284.28	-1.4679e-07
2292.96	-1.22058e-07
2301.64	-1.2362e-07
2310.32	-9.78073e-08
2319	-9.17956e-08
2327.67	-5.09409e-08
2336.35	-3.59035e-08
2345.03	-5.07735e-08
2353.71	-4.27856e-08
2362.39	6.2906e-08
2371.06	-9.01477e-09
2379.74	-8.76939e-08
2388.42	-1.08405e-07
2397.1	-1.17402e-07
2405.78	-1.33569e-07
2414.46	-1.3095e-07
2423.13	-1.33619e-07
2431.81	-1.54644e-07
2440.49	-1.86404e-07
2449.17	-8.36085e-08
2457.85	-9.37556e-08
2466.52	-1.00586e-07
2475.2	-1.38966e-07
2483.88	-1.79148e-07
2492.56	-1.96554e-07
2501.24	-2.15694e-07
2509.92	-2.12038e-07
2518.59	-2.14744e-07
2527.27	-2.32537e-07
2535.95	-2.17528e-07
2544.63	-2.20201e-07
2553.31	-2.30506e-07
2561.98	-2.33308e-07
2570.66	-1.59216e-07
2579.34	-2.41456e-07
2588.02	-2.17859e-07
2596.7	-2.28502e-07
2605.38	-2.10815e-07
2614.05	-2.29664e-07
2622.73	-1.99354e-07
2631.41	-2.22628e-07
2640.09	-2.03702e-07
2648.77	-2.17891e-07
2657.44	-2.0928e-07
2666.12	-2.40734e-07
2674.8	-2.15001e-07
2683.48	-2.49831e-07
2692.16	-2.21977e-07
2700.83	-2.64739e-07
2709.51	-2.39978e-07
2718.19	-2.68951e-07
2726.87	-2.25066e-07
2735.55	-2.59787e-07
2744.23	-2.27254e-07
2752.9	-2.71497e-07
2761.58	-2.45575e-07
2770.26	-2.798e-07
2778.94	-2.62952e-07
2787.62	-3.01031e-07
2796.29	-2.86479e-07
2804.97	-3.69525e-07
2813.65	-3.11845e-07
2822.33	-4.36278e-07
2831.01	-4.06978e-07
2839.69	-5.44494e-07
2848.36	-4.18934e-07
2857.04	-4.1234e-07
2865.72	-2.8233e-07
2874.4	-3.12552e-07
2883.08	-2.37289e-07
2891.75	-5.48694e-07
2900.43	-2.79347e-07
2909.11	-3.71944e-07
2917.79	1.5161e-07
2926.47	7.97917e-07
2935.14	3.74383e-06
2943.82	9.59116e-06
2952.5	1.7864e-05
2961.18	2.99955e-05
2969.86	2.90736e-05
2978.54	1.57968e-05
2987.21	8.4557e-05
2995.89	1.21534e-05
3004.57	3.43772e-05
3013.25	4.37018e-05
3021.93	3.0755e-05
3030.6	2.30502e-05
3039.28	1.68768e-05
3047.96	1.67711e-05
3056.64	1.98101e-05
3065.32	2.32514e-05
3074	3.29847e-05
3082.67	3.42472e-05
3091.35	3.35641e-05
3100.03	3.79236e-05
3108.71	2.60844e-05
3117.39	3.36527e-05
3126.06	4.83766e-05
3134.74	3.59597e-05
3143.42	2.70407e-05
3152.1	2.39316e-05
3160.78	2.11747e-05
3169.46	2.94401e-05
3178.13	1.46409e-05
3186.81	1.15809e-05
3195.49	8.45575e-06
3204.17	6.39165e-06
3212.85	4.47781e-06
3221.52	2.34818e-06
3230.2	1.54387e-06
3238.88	7.64697e-07
3247.56	4.21066e-07
3256.24	1.19698e-07
3264.91	-2.35446e-08
3273.59	-9.90706e-08
3282.27	-1.51799e-07
3290.95	-1.69806e-07
3299.63	-1.53575e-07
3308.31	-2.02563e-07
3316.98	-2.03245e-07
3325.66	-1.97202e-07
3334.34	-2.0816e-07
3343.02	-1.90874e-07
3351.7	-1.52752e-07
3360.37	-2.00524e-07
3369.05	-1.50454e-07
3377.73	-2.00238e-07
3386.41	-1.67243e-07
3395.09	-2.07526e-07
3403.77	-2.30996e-07
3412.44	-2.54861e-07
3421.12	-2.3498e-07
3429.8	-2.44556e-07
3438.48	-2.40888e-07
3447.16	-2.3282e-07
3455.83	-2.29545e-07
3464.51	-2.27373e-07
3473.19	-2.06275e-07
3481.87	-1.81218e-07
3490.55	-2.02131e-07
3499.22	-2.2539e-07
3507.9	-2.4345e-07
3516.58	-2.10136e-07
3525.26	-1.33372e-07
3533.94	-1.69272e-07
3542.62	-2.10532e-07
3551.29	-2.26384e-07
3559.97	-2.28819e-07
3568.65	-2.46756e-07
3577.33	-2.24339e-07
3586.01	-2.25584e-07
3594.68	-2.28932e-07
3603.36	-2.25119e-07
3612.04	-2.31202e-07
3620.72	-2.33351e-07
3629.4	-2.57826e-07
3638.08	-2.28808e-07
3646.75	-2.18557e-07
3655.43	-2.64312e-07
3664.11	-2.12724e-07
3672.79	-2.27809e-07
3681.47	-2.37375e-07
3690.14	-2.68854e-07
3698.82	-2.3701e-07
3707.5	-3.07312e-07
3716.18	-3.17189e-07
3724.86	-2.71947e-07
3733.54	-2.31732e-07
3742.21	-2.64301e-07
3750.89	-2.76928e-07
3759.57	-2.80435e-07
3768.25	-1.47724e-07
3776.93	-5.67134e-07
3785.6	-1.88046e-07
3794.28	-1.88136e-07
3802.96	-1.77272e-07
3811.64	-1.40446e-07
3820.32	-2.51955e-07
3828.99	-1.68052e-07
3837.67	-2.07174e-07
3846.35	-2.17247e-07
3855.03	-1.71755e-07
3863.71	-9.83684e-08
3872.39	-9.41557e-08
3881.06	-1.37226e-07
3889.74	-9.68478e-08
3898.42	-1.2328e-07
3907.1	-1.11443e-07
3915.78	-1.57948e-07
3924.45	-9.37647e-08
3933.13	-1.66951e-07
3941.81	-1.42425e-07
3950.49	-2.02131e-07
3959.17	-8.92955e-08
3967.85	-1.21372e-07
