Infrared Spectrum: Bromomethane
Formula: C H3 Br
CAS: 74-83-9
State: gas
Melting point: -93.6 C
Boiling point: 3.56 C
Class: IUPAC A
Instrument: IFS66V (Bruker)
Instrument parameters: KBr Beam splitter; MCT Detector; Multipass cell
Sampling: 1 L/min Flow
Resolution: 0.9640
Temperature: 23 C
Pressure: 101.3 kPa
Origin: NIST, Anayltical Chemistry Division, 301-975-3108
cm-1	(micromol/mol)-1m-1 (base 10)
575.169	6.60823e-06
583.847	1.85512e-05
592.525	3.54654e-05
601.203	3.70155e-05
609.882	5.00882e-05
618.56	4.65901e-05
627.238	4.0537e-05
635.916	7.65538e-06
644.594	1.82157e-07
653.272	6.43322e-08
661.951	8.60916e-08
670.629	-1.90763e-08
679.307	3.3635e-08
687.985	7.6113e-08
696.663	6.67903e-08
705.341	2.33704e-08
714.019	4.80712e-08
722.698	2.73403e-08
731.376	4.61866e-08
740.054	4.99689e-08
748.732	3.97213e-08
757.41	6.02393e-08
766.088	5.16271e-08
774.767	5.77368e-08
783.445	4.8451e-08
792.123	7.74502e-08
800.801	8.3963e-08
809.479	2.94017e-08
818.157	-3.86194e-08
826.835	5.93458e-08
835.514	3.22191e-08
844.192	1.09667e-07
852.87	1.99087e-07
861.548	3.78563e-07
870.226	7.96495e-07
878.904	1.69029e-06
887.583	1.63029e-06
896.261	2.22467e-06
904.939	4.62133e-06
913.617	1.44721e-05
922.295	5.13005e-06
930.973	7.23947e-06
939.651	6.38962e-06
948.33	1.21729e-05
957.008	5.35303e-05
965.686	8.25103e-06
974.364	6.79254e-06
983.042	7.13231e-06
991.72	7.1084e-06
1000.4	6.18854e-06
1009.08	5.9265e-06
1017.75	5.87062e-06
1026.43	7.30662e-06
1035.11	2.3112e-06
1043.79	1.21485e-06
1052.47	6.73869e-07
1061.15	5.36593e-07
1069.82	2.69552e-07
1078.5	1.35443e-07
1087.18	1.42673e-07
1095.86	6.42818e-08
1104.54	4.33447e-08
1113.21	4.14363e-08
1121.89	4.10672e-08
1130.57	3.31068e-08
1139.25	1.781e-08
1147.93	2.26717e-08
1156.61	7.73963e-08
1165.28	6.01178e-08
1173.96	7.7432e-08
1182.64	1.35155e-07
1191.32	1.4161e-07
1200	2.29285e-07
1208.67	2.18405e-07
1217.35	1.4531e-07
1226.03	4.00063e-07
1234.71	1.36792e-07
1243.39	1.34821e-07
1252.07	3.38783e-07
1260.74	1.66158e-06
1269.42	6.76259e-06
1278.1	2.16085e-05
1286.78	4.7617e-05
1295.46	5.9489e-05
1304.13	1.31961e-05
1312.81	5.45609e-05
1321.49	6.70587e-05
1330.17	1.96901e-05
1338.85	8.8527e-06
1347.52	1.20525e-06
1356.2	2.50861e-06
1364.88	8.38391e-06
1373.56	2.63489e-06
1382.24	3.18375e-06
1390.92	5.73429e-06
1399.59	5.8728e-06
1408.27	5.99608e-06
1416.95	4.98761e-06
1425.63	2.67559e-05
1434.31	7.62325e-06
1442.98	7.05275e-06
1451.66	7.10244e-06
1460.34	7.72673e-06
1469.02	7.46703e-06
1477.7	6.73908e-06
1486.38	5.71585e-05
1495.05	6.87447e-06
1503.73	6.43378e-06
1512.41	4.43422e-06
1521.09	2.2702e-05
1529.77	4.6502e-06
1538.44	4.21699e-06
1547.12	1.96008e-06
1555.8	1.48307e-06
1564.48	2.61511e-06
1573.16	1.34077e-06
1581.83	6.28645e-07
1590.51	5.028e-07
1599.19	5.76938e-07
1607.87	5.96872e-07
1616.55	3.87427e-07
1625.23	2.36354e-07
1633.9	1.93417e-07
1642.58	1.29135e-07
1651.26	7.96417e-08
1659.94	3.60088e-08
1668.62	5.67485e-08
1677.29	4.71496e-08
1685.97	6.0284e-08
1694.65	4.06907e-08
1703.33	1.14749e-08
1712.01	2.53088e-08
1720.69	2.30296e-08
1729.36	3.35469e-08
1738.04	3.14454e-08
1746.72	4.26872e-08
1755.4	3.68718e-08
1764.08	4.11756e-08
1772.75	7.88248e-08
1781.43	-1.03795e-10
1790.11	3.72818e-08
1798.79	2.06495e-08
1807.47	1.3143e-08
1816.15	4.83143e-09
1824.82	-1.58677e-08
1833.5	5.36962e-09
1842.18	2.33904e-08
1850.86	3.69914e-08
1859.54	1.93721e-08
1868.21	-2.29915e-08
1876.89	1.56936e-07
1885.57	2.61766e-07
1894.25	3.88128e-07
1902.93	3.53617e-07
1911.6	4.23339e-07
1920.28	5.64896e-07
1928.96	3.35599e-07
1937.64	3.94934e-08
1946.32	8.0808e-09
1955	-8.08353e-09
1963.67	1.76945e-08
1972.35	-3.24528e-08
1981.03	5.68657e-09
1989.71	-3.36226e-08
1998.39	3.95934e-09
2007.06	4.31139e-08
2015.74	1.72465e-08
2024.42	7.19109e-09
2033.1	3.40909e-08
2041.78	1.08838e-08
2050.46	7.00817e-09
2059.13	2.92118e-08
2067.81	7.87708e-09
2076.49	6.98089e-09
2085.17	1.14208e-08
2093.85	1.3996e-08
2102.52	1.41021e-08
2111.2	7.92728e-08
2119.88	9.34488e-08
2128.56	8.46551e-09
2137.24	1.95089e-08
2145.91	2.69755e-08
2154.59	1.07484e-07
2163.27	5.68671e-08
2171.95	1.05713e-07
2180.63	1.93937e-07
2189.31	2.62715e-07
2197.98	2.78007e-07
2206.66	4.86827e-07
2215.34	1.01408e-06
2224.02	5.70839e-07
2232.7	7.8229e-07
2241.37	7.5493e-07
2250.05	1.0894e-06
2258.73	2.30905e-06
2267.41	8.75872e-07
2276.09	5.10485e-07
2284.77	4.75626e-07
2293.44	4.90649e-07
2302.12	4.20636e-07
2310.8	3.51043e-07
2319.48	4.87141e-07
2328.16	5.14267e-07
2336.83	3.21458e-07
2345.51	8.26735e-07
2354.19	1.00861e-06
2362.87	8.78961e-07
2371.55	6.8394e-07
2380.23	5.5491e-07
2388.9	4.90198e-07
2397.58	5.55667e-07
2406.26	5.5544e-07
2414.94	3.79973e-07
2423.62	2.71117e-06
2432.29	5.95812e-07
2440.97	3.32293e-07
2449.65	2.42813e-07
2458.33	2.32266e-07
2467.01	2.05587e-07
2475.68	1.48591e-07
2484.36	1.38898e-07
2493.04	1.43853e-07
2501.72	1.21859e-07
2510.4	1.0912e-07
2519.08	1.63339e-07
2527.75	3.31713e-08
2536.43	-2.35673e-08
2545.11	-5.23808e-09
2553.79	2.1846e-08
2562.47	8.53732e-08
2571.14	3.52719e-07
2579.82	7.35673e-07
2588.5	7.64827e-07
2597.18	1.03322e-06
2605.86	1.54905e-06
2614.54	1.28525e-06
2623.21	-2.17401e-07
2631.89	-3.44819e-07
2640.57	-2.93243e-07
2649.25	-2.34432e-07
2657.93	-1.56786e-07
2666.6	5.95806e-08
2675.28	7.52556e-09
2683.96	3.17048e-09
2692.64	5.50946e-08
2701.32	3.41891e-08
2709.99	8.41035e-08
2718.67	6.64022e-08
2727.35	4.43295e-08
2736.03	7.41002e-08
2744.71	8.93238e-08
2753.39	-1.52476e-07
2762.06	7.94656e-08
2770.74	6.1469e-08
2779.42	4.56378e-08
2788.1	1.28378e-07
2796.78	7.91563e-08
2805.45	8.43489e-08
2814.13	1.75186e-07
2822.81	4.1588e-07
2831.49	1.4366e-06
2840.17	6.14736e-06
2848.85	1.15675e-05
2857.52	5.70258e-06
2866.2	6.9227e-06
2874.88	9.85759e-06
2883.56	5.90675e-06
2892.24	2.15527e-06
2900.91	6.46024e-07
2909.59	1.24939e-07
2918.27	1.69812e-07
2926.95	8.39985e-07
2935.63	4.19687e-06
2944.31	1.83746e-05
2952.98	4.87614e-05
2961.66	6.01596e-05
2970.34	4.41985e-05
2979.02	6.02357e-05
2987.7	6.47521e-05
2996.37	3.36968e-05
3005.05	1.09097e-05
3013.73	4.21844e-06
3022.41	3.75232e-06
3031.09	3.58944e-06
3039.76	3.35535e-06
3048.44	4.09095e-06
3057.12	3.41647e-06
3065.8	4.16645e-06
3074.48	4.52843e-06
3083.16	3.76459e-06
3091.83	4.20223e-06
3100.51	3.92967e-06
3109.19	3.19797e-06
3117.87	3.22474e-06
3126.55	2.3431e-06
3135.22	1.38072e-06
3143.9	8.77277e-07
3152.58	9.1942e-07
3161.26	4.80128e-07
3169.94	2.74114e-07
3178.62	3.28285e-07
3187.29	3.45416e-07
3195.97	1.50428e-07
3204.65	1.16959e-07
3213.33	1.08203e-07
3222.01	1.04087e-07
3230.68	-7.22997e-09
3239.36	8.72574e-09
3248.04	3.45616e-08
3256.72	-1.75593e-08
3265.4	-2.81012e-08
3274.07	2.11143e-08
3282.75	2.24073e-08
3291.43	5.87429e-08
3300.11	6.01225e-08
3308.79	-2.32477e-09
3317.47	3.48967e-08
3326.14	5.86366e-08
3334.82	4.33222e-08
3343.5	4.09248e-08
3352.18	2.7625e-08
3360.86	1.42753e-08
3369.53	3.34146e-08
3378.21	5.38284e-08
3386.89	3.36109e-08
3395.57	-2.79953e-08
3404.25	-3.70616e-10
3412.93	2.8128e-08
3421.6	2.53965e-08
3430.28	5.75695e-08
3438.96	2.09793e-08
3447.64	5.00752e-08
3456.32	5.07549e-08
3464.99	5.33279e-08
3473.67	8.21265e-08
3482.35	8.39942e-08
3491.03	5.92865e-08
3499.71	6.95666e-08
3508.39	7.06023e-08
3517.06	9.97811e-09
3525.74	4.43799e-08
3534.42	3.51551e-08
3543.1	1.10016e-07
3551.78	1.96271e-07
3560.45	4.2924e-07
3569.13	5.66613e-07
3577.81	4.52601e-07
3586.49	4.93603e-07
3595.17	6.8912e-07
3603.84	4.60568e-07
3612.52	1.44863e-07
3621.2	9.35458e-08
3629.88	1.54885e-07
3638.56	5.91948e-08
3647.24	1.54603e-07
3655.91	1.85472e-07
3664.59	2.51691e-07
3673.27	3.61073e-07
3681.95	2.96435e-07
3690.63	2.71887e-07
3699.3	3.12986e-07
3707.98	1.34649e-07
3716.66	1.53394e-07
3725.34	1.68645e-07
3734.02	1.21206e-07
3742.7	6.32965e-08
3751.37	6.99527e-08
3760.05	6.72389e-08
3768.73	5.70921e-08
3777.41	2.40236e-08
3786.09	9.04545e-08
3794.76	1.02184e-07
3803.44	9.81718e-08
3812.12	1.06606e-07
3820.8	2.36072e-07
3829.48	1.3107e-07
3838.16	2.59585e-07
3846.83	1.95988e-07
3855.51	2.4188e-07
3864.19	2.87466e-07
3872.87	1.79389e-07
3881.55	3.77512e-07
3890.22	5.15671e-07
3898.9	2.61502e-07
3907.58	2.044e-07
3916.26	1.74361e-07
3924.94	2.04725e-07
3933.61	1.67444e-07
3942.29	3.70196e-07
3950.97	2.94834e-07
3959.65	1.70102e-07
3968.33	3.74616e-07
