Infrared Spectrum: Bromomethane
Formula: C H3 Br
CAS: 74-83-9
State: gas
Melting point: -93.6 C
Boiling point: 3.56 C
Class: IUPAC A
Instrument: IFS66V (Bruker)
Instrument parameters: KBr Beam splitter; MCT Detector; Multipass cell
Sampling: 1 L/min Flow
Resolution: 0.4820
Temperature: 23 C
Pressure: 101.3 kPa
Origin: NIST, Anayltical Chemistry Division, 301-975-3108
cm-1	(micromol/mol)-1m-1 (base 10)
574.928	9.34046e-06
583.606	1.42922e-05
592.284	3.37637e-05
600.962	3.94809e-05
609.641	6.81253e-05
618.319	5.92654e-05
626.997	4.27458e-05
635.675	8.56551e-06
644.353	1.86784e-07
653.031	2.33864e-07
661.71	1.09978e-07
670.388	-9.97158e-08
679.066	6.92101e-08
687.744	-9.26615e-08
696.422	1.81263e-07
705.1	6.16682e-08
713.778	1.12916e-07
722.457	1.41935e-07
731.135	5.30682e-09
739.813	-1.09206e-07
748.491	1.84202e-08
757.169	4.79792e-08
765.847	-4.24436e-08
774.526	7.15188e-08
783.204	1.74289e-07
791.882	1.34396e-07
800.56	4.59997e-08
809.238	1.86714e-07
817.916	-1.17833e-07
826.594	1.71698e-07
835.273	1.02525e-07
843.951	7.66569e-08
852.629	2.51084e-07
861.307	4.82645e-07
869.985	9.70471e-07
878.663	1.66667e-06
887.342	1.92035e-06
896.02	1.67945e-06
904.698	4.20762e-06
913.376	2.33983e-05
922.054	5.76754e-06
930.732	1.10299e-05
939.41	7.22473e-06
948.089	1.03872e-05
956.767	4.71326e-05
965.445	9.92567e-06
974.123	7.41186e-06
982.801	6.7032e-06
991.479	6.03662e-06
1000.16	5.25972e-06
1008.84	6.72668e-06
1017.51	4.52907e-06
1026.19	7.60448e-06
1034.87	2.34956e-06
1043.55	1.12186e-06
1052.23	8.55707e-07
1060.9	7.8224e-07
1069.58	3.90629e-07
1078.26	1.80137e-07
1086.94	9.10535e-08
1095.62	9.5856e-08
1104.3	5.47252e-08
1112.97	6.62124e-08
1121.65	6.22648e-08
1130.33	6.79559e-08
1139.01	2.77664e-08
1147.69	-4.8549e-08
1156.36	8.40842e-08
1165.04	8.87848e-08
1173.72	8.59786e-08
1182.4	2.04748e-07
1191.08	1.19547e-07
1199.76	1.65071e-07
1208.43	2.25266e-07
1217.11	1.70999e-07
1225.79	4.10102e-07
1234.47	1.78085e-07
1243.15	1.08963e-07
1251.82	4.63695e-07
1260.5	1.87829e-06
1269.18	1.01499e-05
1277.86	1.60345e-05
1286.54	6.1653e-05
1295.21	7.00195e-05
1303.89	1.34623e-05
1312.57	5.09679e-05
1321.25	5.88843e-05
1329.93	2.19215e-05
1338.61	1.05351e-05
1347.28	1.81209e-06
1355.96	3.14936e-06
1364.64	9.20108e-06
1373.32	2.97244e-06
1382	2.76775e-06
1390.67	6.76231e-06
1399.35	6.93349e-06
1408.03	6.50962e-06
1416.71	4.43728e-06
1425.39	1.10509e-05
1434.07	7.67542e-06
1442.74	1.04566e-05
1451.42	-2.40368e-06
1460.1	7.31931e-06
1468.78	8.94544e-06
1477.46	4.06809e-06
1486.13	0.000113647
1494.81	9.46666e-06
1503.49	4.59326e-06
1512.17	4.42118e-06
1520.85	3.43811e-05
1529.52	6.29859e-06
1538.2	4.6739e-06
1546.88	1.56863e-06
1555.56	3.06978e-07
1564.24	1.92656e-06
1572.92	9.20449e-07
1581.59	7.73493e-07
1590.27	2.41736e-07
1598.95	2.70316e-07
1607.63	8.35151e-07
1616.31	2.17946e-07
1624.98	2.06046e-07
1633.66	1.79923e-07
1642.34	1.12397e-07
1651.02	5.91689e-08
1659.7	-3.9365e-08
1668.38	-2.12782e-08
1677.05	3.96215e-09
1685.73	-8.72237e-09
1694.41	2.44805e-08
1703.09	-6.65376e-09
1711.77	-4.08534e-08
1720.44	-1.79477e-08
1729.12	1.54252e-08
1737.8	-2.6786e-08
1746.48	-7.43227e-09
1755.16	1.65766e-08
1763.84	2.91602e-08
1772.51	-2.87396e-09
1781.19	-5.1738e-08
1789.87	7.67237e-09
1798.55	-2.04483e-08
1807.23	-7.37452e-09
1815.9	-5.43824e-09
1824.58	-9.21994e-08
1833.26	-3.12452e-08
1841.94	2.4108e-08
1850.62	2.13964e-08
1859.29	6.5046e-09
1867.97	-3.26562e-08
1876.65	8.60618e-08
1885.33	1.91186e-07
1894.01	3.83539e-07
1902.69	3.01381e-07
1911.36	4.30734e-07
1920.04	5.66196e-07
1928.72	2.97777e-07
1937.4	1.30406e-08
1946.08	-5.12351e-08
1954.75	-4.4951e-08
1963.43	-3.91936e-08
1972.11	-1.63729e-08
1980.79	-3.07859e-08
1989.47	-7.37493e-08
1998.15	-4.70583e-08
2006.82	2.73981e-09
2015.5	-1.49373e-08
2024.18	6.65467e-09
2032.86	1.41924e-09
2041.54	-2.74763e-08
2050.21	3.20114e-08
2058.89	-1.61656e-08
2067.57	-2.67378e-08
2076.25	-2.33323e-08
2084.93	-3.67262e-08
2093.6	-2.75336e-08
2102.28	-3.98457e-08
2110.96	4.55017e-08
2119.64	2.75432e-07
2128.32	-8.36403e-09
2137	-9.84239e-09
2145.67	-6.14354e-09
2154.35	9.37933e-08
2163.03	5.44551e-08
2171.71	1.3642e-07
2180.39	1.40325e-07
2189.06	2.72048e-07
2197.74	2.16085e-07
2206.42	4.64263e-07
2215.1	9.65479e-07
2223.78	4.04172e-07
2232.46	6.97551e-07
2241.13	6.7254e-07
2249.81	9.15288e-07
2258.49	2.15177e-06
2267.17	1.23366e-06
2275.85	4.37333e-07
2284.52	3.60737e-07
2293.2	5.20243e-07
2301.88	3.05652e-07
2310.56	2.67466e-07
2319.24	7.25416e-07
2327.92	3.72694e-07
2336.59	3.38121e-07
2345.27	1.22009e-06
2353.95	6.02894e-07
2362.63	1.10362e-06
2371.31	9.05865e-07
2379.98	5.64282e-07
2388.66	5.8645e-07
2397.34	6.24253e-07
2406.02	4.82903e-07
2414.7	2.9621e-07
2423.37	6.09474e-06
2432.05	3.37196e-07
2440.73	3.9608e-07
2449.41	1.92565e-07
2458.09	1.7928e-07
2466.77	1.76501e-07
2475.44	2.06276e-07
2484.12	1.16083e-07
2492.8	8.43033e-08
2501.48	1.33938e-07
2510.16	4.3454e-08
2518.83	1.53704e-07
2527.51	1.90113e-08
2536.19	-3.68194e-08
2544.87	-7.60444e-08
2553.55	2.5138e-08
2562.23	-5.31405e-08
2570.9	4.81278e-07
2579.58	8.76556e-07
2588.26	8.13268e-07
2596.94	1.13329e-06
2605.62	1.48101e-06
2614.29	1.26866e-06
2622.97	-2.36933e-07
2631.65	-3.59963e-07
2640.33	-2.49557e-07
2649.01	-2.36915e-07
2657.68	-2.29733e-07
2666.36	-3.02507e-08
2675.04	1.70859e-08
2683.72	9.32626e-09
2692.4	4.3495e-08
2701.08	1.1799e-07
2709.75	1.39993e-07
2718.43	3.34075e-08
2727.11	-5.66606e-10
2735.79	1.55048e-08
2744.47	5.93954e-08
2753.14	-2.10458e-07
2761.82	7.58934e-08
2770.5	7.84508e-08
2779.18	-1.98717e-08
2787.86	1.75549e-07
2796.54	3.29468e-08
2805.21	9.97286e-08
2813.89	9.39393e-08
2822.57	4.75832e-07
2831.25	1.33424e-06
2839.93	6.34732e-06
2848.6	1.4871e-05
2857.28	3.6088e-06
2865.96	8.14825e-06
2874.64	1.25063e-05
2883.32	7.1898e-06
2892	2.94124e-06
2900.67	7.11743e-07
2909.35	1.07705e-07
2918.03	1.31617e-07
2926.71	6.58504e-07
2935.39	4.36183e-06
2944.06	1.90961e-05
2952.74	4.61425e-05
2961.42	5.74194e-05
2970.1	2.47429e-05
2978.78	6.24309e-05
2987.45	7.20528e-05
2996.13	3.26709e-05
3004.81	1.18771e-05
3013.49	4.17938e-06
3022.17	3.66009e-06
3030.85	3.65186e-06
3039.52	3.44152e-06
3048.2	3.45696e-06
3056.88	1.92413e-06
3065.56	5.84617e-06
3074.24	2.06021e-06
3082.91	3.81578e-06
3091.59	5.29657e-06
3100.27	3.40384e-06
3108.95	3.69177e-06
3117.63	4.76522e-06
3126.31	1.82261e-06
3134.98	1.94093e-06
3143.66	7.1402e-07
3152.34	1.05924e-06
3161.02	4.91784e-07
3169.7	5.52676e-07
3178.37	3.77252e-07
3187.05	7.27594e-07
3195.73	1.37954e-07
3204.41	1.56063e-07
3213.09	1.54577e-07
3221.77	2.25812e-07
3230.44	2.68588e-08
3239.12	3.76316e-08
3247.8	3.28559e-08
3256.48	4.31889e-08
3265.16	4.51921e-09
3273.83	1.2167e-07
3282.51	-1.21479e-08
3291.19	5.855e-08
3299.87	1.57372e-08
3308.55	1.35935e-08
3317.22	-1.40296e-08
3325.9	1.05632e-07
3334.58	-1.57599e-08
3343.26	6.99904e-08
3351.94	2.01482e-08
3360.62	4.65631e-08
3369.29	-2.04228e-08
3377.97	2.74672e-08
3386.65	3.15726e-09
3395.33	-4.462e-08
3404.01	-8.4508e-08
3412.68	5.73091e-08
3421.36	-7.5877e-08
3430.04	1.4968e-07
3438.72	6.60774e-08
3447.4	2.27002e-08
3456.08	1.60141e-08
3464.75	9.1285e-08
3473.43	8.77243e-08
3482.11	1.23094e-07
3490.79	1.09636e-07
3499.47	9.44745e-08
3508.14	1.84875e-08
3516.82	-5.38867e-09
3525.5	6.73197e-08
3534.18	-4.77345e-08
3542.86	1.20921e-07
3551.53	1.94075e-07
3560.21	3.44843e-07
3568.89	6.11572e-07
3577.57	5.29674e-07
3586.25	3.94375e-07
3594.93	5.10755e-07
3603.6	6.16366e-07
3612.28	1.60742e-07
3620.96	8.19496e-08
3629.64	3.18814e-07
3638.32	1.3476e-07
3646.99	2.07485e-07
3655.67	2.81158e-07
3664.35	3.27986e-07
3673.03	3.36329e-07
3681.71	3.09844e-07
3690.39	2.43308e-07
3699.06	3.56187e-07
3707.74	1.07241e-07
3716.42	8.23179e-08
3725.1	2.32112e-07
3733.78	1.59727e-07
3742.45	1.01641e-07
3751.13	4.77609e-08
3759.81	2.06852e-07
3768.49	5.7692e-08
3777.17	5.58871e-08
3785.85	1.62066e-07
3794.52	1.72838e-07
3803.2	6.86753e-08
3811.88	6.69136e-08
3820.56	2.8744e-07
3829.24	1.32052e-07
3837.91	4.76962e-07
3846.59	2.50158e-07
3855.27	2.60909e-07
3863.95	3.25632e-07
3872.63	2.06877e-07
3881.3	4.27435e-07
3889.98	4.35035e-07
3898.66	2.42107e-07
3907.34	2.9745e-07
3916.02	1.06674e-07
3924.7	2.34556e-07
3933.37	1.87508e-07
3942.05	3.97414e-07
3950.73	3.29289e-07
3959.41	2.11452e-07
3968.09	4.61482e-07
