Infrared Spectrum: Bromomethane
Formula: C H3 Br
CAS: 74-83-9
State: gas
Melting point: -93.6 C
Boiling point: 3.56 C
Class: IUPAC A
Instrument: IFS66V (Bruker)
Instrument parameters: KBr Beam splitter; MCT Detector; Multipass cell
Sampling: 1 L/min Flow
Resolution: 0.1250
Temperature: 23 C
Pressure: 101.3 kPa
Origin: NIST, Anayltical Chemistry Division, 301-975-3108
cm-1	(micromol/mol)-1m-1 (base 10)
574.988	9.91059e-06
583.546	1.758e-05
592.103	3.70576e-05
600.661	3.36719e-05
609.219	4.88396e-05
617.776	5.4257e-05
626.334	4.30101e-05
634.891	9.58478e-06
643.449	1.03046e-07
652.007	1.03382e-07
660.564	-3.00888e-08
669.122	1.64249e-07
677.68	1.43062e-07
686.237	1.13588e-07
694.795	-1.71026e-07
703.352	6.34558e-08
711.91	8.82664e-08
720.468	1.19076e-07
729.025	9.9147e-09
737.583	1.77902e-07
746.141	1.42359e-07
754.698	-3.40805e-08
763.256	-8.73437e-08
771.813	8.84965e-08
780.371	8.33106e-08
788.929	-4.74949e-08
797.486	-6.26268e-09
806.044	2.71543e-08
814.602	1.17696e-08
823.159	4.11631e-08
831.717	-3.45966e-09
840.274	1.30525e-07
848.832	8.25126e-08
857.39	4.2911e-07
865.947	5.26341e-07
874.505	6.17435e-07
883.063	2.09074e-06
891.62	4.31918e-06
900.178	3.08236e-06
908.735	5.07029e-06
917.293	4.74976e-06
925.851	5.74846e-06
934.408	2.77608e-05
942.966	7.58405e-06
951.524	6.97701e-06
960.081	7.52835e-06
968.639	8.35497e-06
977.196	7.218e-06
985.754	1.01337e-05
994.312	1.03691e-05
1002.87	2.66038e-05
1011.43	4.92077e-06
1019.98	2.45316e-06
1028.54	1.88456e-06
1037.1	1.31555e-06
1045.66	9.16852e-07
1054.22	4.13505e-07
1062.77	3.85537e-07
1071.33	3.70882e-07
1079.89	9.46278e-08
1088.45	1.81626e-07
1097	7.16547e-08
1105.56	-5.60995e-08
1114.12	9.30052e-08
1122.68	1.41109e-07
1131.23	-6.73697e-09
1139.79	6.67981e-08
1148.35	-8.09437e-09
1156.91	7.29521e-08
1165.46	3.10546e-08
1174.02	5.79862e-08
1182.58	1.69771e-07
1191.14	8.86766e-08
1199.69	2.02133e-07
1208.25	2.35129e-07
1216.81	1.11889e-07
1225.37	4.20194e-07
1233.93	1.2707e-07
1242.48	2.18006e-07
1251.04	3.62163e-07
1259.6	1.51855e-06
1268.16	5.15624e-06
1276.71	1.94745e-05
1285.27	4.12062e-05
1293.83	7.72413e-05
1302.39	2.1789e-05
1310.94	4.53328e-05
1319.5	8.26072e-05
1328.06	2.90605e-05
1336.62	3.86658e-06
1345.17	2.31639e-06
1353.73	3.33539e-06
1362.29	2.59381e-06
1370.85	2.48864e-06
1379.4	4.4139e-06
1387.96	4.52439e-06
1396.52	3.95043e-06
1405.08	4.26858e-06
1413.64	9.29951e-05
1422.19	6.07887e-06
1430.75	6.65418e-06
1439.31	1.16153e-05
1447.87	6.57369e-06
1456.42	7.0113e-06
1464.98	5.87106e-06
1473.54	8.59528e-06
1482.1	6.66254e-06
1490.65	5.31732e-06
1499.21	6.07256e-06
1507.77	8.20543e-06
1516.33	1.08062e-05
1524.88	5.1106e-06
1533.44	4.22714e-06
1542	3.65223e-06
1550.56	1.958e-06
1559.11	1.31168e-06
1567.67	1.33259e-06
1576.23	1.27788e-06
1584.79	1.14591e-06
1593.35	3.43716e-07
1601.9	6.04318e-07
1610.46	4.51522e-07
1619.02	2.76904e-07
1627.58	1.32253e-07
1636.13	6.90623e-08
1644.69	8.45425e-08
1653.25	2.88913e-07
1661.81	3.08246e-08
1670.36	-1.18778e-09
1678.92	1.76362e-08
1687.48	2.98109e-08
1696.04	1.82373e-07
1704.59	6.87571e-08
1713.15	4.64199e-08
1721.71	4.47696e-08
1730.27	7.19203e-08
1738.83	-6.86562e-08
1747.38	9.33627e-09
1755.94	8.13457e-08
1764.5	1.35754e-08
1773.06	4.12381e-08
1781.61	7.16125e-09
1790.17	4.4434e-08
1798.73	1.12253e-08
1807.29	4.84903e-08
1815.84	1.37541e-08
1824.4	-3.91267e-08
1832.96	2.65091e-08
1841.52	3.1563e-08
1850.07	4.45554e-08
1858.63	5.98652e-08
1867.19	1.06295e-08
1875.75	7.65709e-08
1884.3	1.66792e-07
1892.86	4.97632e-07
1901.42	3.60684e-07
1909.98	2.37087e-07
1918.54	3.95629e-07
1927.09	4.19819e-07
1935.65	6.50014e-08
1944.21	-7.04329e-08
1952.77	-1.35613e-08
1961.32	3.1061e-08
1969.88	7.92566e-09
1978.44	-7.80379e-09
1987	-4.87117e-09
1995.55	1.1951e-08
2004.11	-2.21981e-08
2012.67	-4.25637e-09
2021.23	-2.0662e-08
2029.78	-1.6096e-08
2038.34	3.35052e-09
2046.9	1.05159e-08
2055.46	9.1908e-08
2064.01	-2.77391e-08
2072.57	-4.60288e-09
2081.13	1.3795e-08
2089.69	3.9853e-08
2098.25	2.57515e-08
2106.8	-2.39698e-08
2115.36	7.41322e-08
2123.92	1.46199e-08
2132.48	2.60916e-08
2141.03	5.2256e-08
2149.59	-7.32904e-09
2158.15	1.10063e-07
2166.71	4.81647e-08
2175.26	9.73685e-08
2183.82	1.31396e-07
2192.38	3.2726e-07
2200.94	3.50751e-07
2209.49	6.25253e-07
2218.05	4.31567e-07
2226.61	5.9153e-07
2235.17	1.31884e-06
2243.72	1.2433e-06
2252.28	7.74798e-07
2260.84	6.28839e-07
2269.4	6.58344e-07
2277.96	6.53038e-07
2286.51	7.65665e-07
2295.07	7.71612e-07
2303.63	6.43753e-07
2312.19	4.15766e-07
2320.74	4.90405e-07
2329.3	4.12541e-07
2337.86	5.42653e-07
2346.42	3.11305e-07
2354.97	1.82238e-06
2363.53	6.17352e-07
2372.09	5.26742e-07
2380.65	6.13797e-07
2389.2	4.74278e-07
2397.76	6.06989e-07
2406.32	5.23328e-07
2414.88	3.85399e-07
2423.44	6.24647e-06
2431.99	3.5093e-07
2440.55	2.83705e-07
2449.11	2.79209e-07
2457.67	1.95994e-07
2466.22	1.57965e-07
2474.78	2.22989e-07
2483.34	9.53844e-08
2491.9	1.09769e-07
2500.45	1.05672e-07
2509.01	9.66704e-08
2517.57	2.01241e-07
2526.13	4.21917e-08
2534.68	-4.71097e-08
2543.24	-6.35745e-08
2551.8	1.03658e-08
2560.36	1.26096e-07
2568.91	3.16715e-07
2577.47	4.59569e-07
2586.03	7.34783e-07
2594.59	8.86334e-09
2603.15	8.88062e-07
2611.7	1.1844e-06
2620.26	-1.7362e-09
2628.82	-2.64746e-07
2637.38	-3.44829e-07
2645.93	-2.91576e-07
2654.49	-1.14038e-07
2663.05	-5.09613e-08
2671.61	8.17277e-08
2680.16	3.22156e-08
2688.72	1.11445e-07
2697.28	1.13935e-08
2705.84	3.2413e-08
2714.39	1.03026e-07
2722.95	7.13392e-08
2731.51	-4.51966e-08
2740.07	2.1582e-07
2748.62	-6.63875e-09
2757.18	9.47987e-08
2765.74	5.10205e-08
2774.3	1.45815e-07
2782.86	1.03949e-07
2791.41	9.82593e-08
2799.97	1.76052e-07
2808.53	1.52473e-07
2817.09	2.05782e-07
2825.64	3.721e-07
2834.2	2.364e-06
2842.76	7.5386e-06
2851.32	8.18929e-06
2859.87	7.20126e-06
2868.43	9.26477e-06
2876.99	9.30542e-06
2885.55	5.73454e-06
2894.1	1.81136e-06
2902.66	3.99294e-07
2911.22	2.83554e-07
2919.78	2.11195e-07
2928.34	1.07157e-06
2936.89	5.25234e-06
2945.45	2.19737e-05
2954.01	5.89304e-05
2962.57	5.31704e-05
2971.12	2.50988e-05
2979.68	6.09645e-05
2988.24	6.7318e-05
2996.8	3.52215e-05
3005.35	1.11657e-05
3013.91	4.59034e-06
3022.47	3.62172e-06
3031.03	3.51807e-06
3039.58	3.46416e-06
3048.14	4.01115e-06
3056.7	4.37312e-06
3065.26	3.1056e-06
3073.81	4.87516e-06
3082.37	3.93808e-06
3090.93	4.83003e-06
3099.49	3.723e-06
3108.05	2.53143e-06
3116.6	2.40057e-06
3125.16	2.64602e-06
3133.72	1.82754e-06
3142.28	1.18309e-06
3150.83	6.75521e-07
3159.39	6.25462e-07
3167.95	3.02731e-07
3176.51	4.78392e-07
3185.06	2.90684e-07
3193.62	1.50042e-07
3202.18	8.36612e-08
3210.74	8.3583e-08
3219.29	2.01984e-07
3227.85	9.42235e-08
3236.41	6.77199e-09
3244.97	2.88141e-08
3253.52	5.95809e-08
3262.08	1.29208e-07
3270.64	-5.4577e-08
3279.2	4.14673e-08
3287.76	2.40025e-08
3296.31	9.36241e-08
3304.87	1.6156e-08
3313.43	6.42907e-08
3321.99	7.87969e-08
3330.54	1.07574e-07
3339.1	5.13506e-08
3347.66	-7.68965e-08
3356.22	1.42584e-07
3364.77	9.54722e-08
3373.33	3.32701e-08
3381.89	1.06137e-07
3390.45	1.31506e-08
3399	-9.65745e-08
3407.56	1.31712e-07
3416.12	-6.70673e-08
3424.68	2.40069e-07
3433.23	1.03025e-07
3441.79	9.12545e-08
3450.35	2.02875e-07
3458.91	9.20366e-08
3467.47	2.19794e-08
3476.02	-4.77623e-08
3484.58	-9.09525e-08
3493.14	2.89997e-08
3501.7	-6.87603e-08
3510.25	-5.20914e-08
3518.81	7.75195e-08
3527.37	4.94257e-09
3535.93	6.79059e-08
3544.48	1.52703e-07
3553.04	1.97535e-07
3561.6	4.71633e-07
3570.16	5.53631e-07
3578.71	4.3398e-07
3587.27	5.62316e-07
3595.83	6.85892e-07
3604.39	3.95198e-07
3612.95	2.98123e-07
3621.5	-2.41135e-08
3630.06	1.30928e-07
3638.62	4.75549e-08
3647.18	1.65343e-07
3655.73	2.63818e-07
3664.29	2.70093e-07
3672.85	4.0513e-07
3681.41	3.28841e-07
3689.96	2.92646e-07
3698.52	3.4379e-07
3707.08	1.20885e-07
3715.64	2.49142e-07
3724.19	2.31982e-07
3732.75	7.37652e-08
3741.31	8.27231e-08
3749.87	1.50889e-07
3758.42	3.32915e-08
3766.98	1.86601e-07
3775.54	9.55568e-08
3784.1	6.89304e-08
3792.66	1.26757e-07
3801.21	1.8018e-07
3809.77	2.28408e-07
3818.33	1.32309e-07
3826.89	2.83615e-07
3835.44	1.26467e-07
3844	1.33758e-07
3852.56	1.27256e-07
3861.12	2.65218e-07
3869.67	3.38849e-07
3878.23	2.71749e-07
3886.79	7.56922e-07
3895.35	1.35294e-07
3903.9	2.10459e-07
3912.46	1.16545e-07
3921.02	2.9753e-07
3929.58	4.58075e-07
3938.13	3.42003e-07
3946.69	2.22435e-07
3955.25	6.08592e-08
3963.81	3.46576e-07
3972.37	6.31396e-07
