Infrared Spectrum: Bromomethane
Formula: C H3 Br
CAS: 74-83-9
State: gas
Melting point: -93.6 C
Boiling point: 3.56 C
Class: IUPAC A
Instrument: IFS66V (Bruker)
Instrument parameters: KBr Beam splitter; MCT Detector; Multipass cell
Sampling: 1 L/min Flow
Resolution: 0.4820
Temperature: 23 C
Pressure: 101.3 kPa
Origin: NIST, Anayltical Chemistry Division, 301-975-3108
cm-1	(micromol/mol)-1m-1 (base 10)
574.928	7.404e-06
583.606	1.71877e-05
592.284	3.48062e-05
600.962	3.71751e-05
609.641	5.82799e-05
618.319	4.60262e-05
626.997	4.15698e-05
635.675	8.25954e-06
644.353	1.68823e-07
653.031	1.26084e-07
661.71	8.26294e-08
670.388	-1.9244e-08
679.066	3.12977e-08
687.744	3.03644e-08
696.422	8.16161e-08
705.1	3.0275e-08
713.778	6.36642e-08
722.457	3.06975e-08
731.135	2.35827e-08
739.813	3.21426e-08
748.491	5.77706e-08
757.169	4.61543e-08
765.847	1.17811e-08
774.526	4.52426e-08
783.204	9.5129e-08
791.882	1.23259e-07
800.56	8.21247e-08
809.238	9.3148e-08
817.916	-6.95185e-08
826.594	8.70109e-08
835.273	-1.36389e-08
843.951	1.06146e-07
852.629	2.34533e-07
861.307	3.8934e-07
869.985	7.7353e-07
878.663	1.84732e-06
887.342	1.76964e-06
896.02	2.06688e-06
904.698	4.12788e-06
913.376	2.01093e-05
922.054	5.06762e-06
930.732	8.19394e-06
939.41	6.19884e-06
948.089	1.02692e-05
956.767	4.88347e-05
965.445	8.78549e-06
974.123	6.61135e-06
982.801	6.9867e-06
991.479	6.96138e-06
1000.16	6.20347e-06
1008.84	5.61906e-06
1017.51	5.18247e-06
1026.19	7.70954e-06
1034.87	2.63968e-06
1043.55	1.22244e-06
1052.23	7.0554e-07
1060.9	5.49133e-07
1069.58	2.70483e-07
1078.26	1.14097e-07
1086.94	1.24673e-07
1095.62	7.33504e-08
1104.3	5.22576e-08
1112.97	5.50432e-08
1121.65	3.24077e-08
1130.33	5.88724e-08
1139.01	1.48248e-08
1147.69	-9.99156e-09
1156.36	7.38188e-08
1165.04	6.99998e-08
1173.72	6.89442e-08
1182.4	1.46986e-07
1191.08	1.37591e-07
1199.76	2.13705e-07
1208.43	2.20031e-07
1217.11	1.34846e-07
1225.79	4.09394e-07
1234.47	1.50979e-07
1243.15	1.12587e-07
1251.82	3.67459e-07
1260.5	1.69037e-06
1269.18	7.39391e-06
1277.86	2.00054e-05
1286.54	4.9263e-05
1295.21	6.09968e-05
1303.89	1.32204e-05
1312.57	5.26158e-05
1321.25	6.81145e-05
1329.93	2.0697e-05
1338.61	9.2246e-06
1347.28	1.20151e-06
1355.96	2.5275e-06
1364.64	9.70911e-06
1373.32	2.28171e-06
1382	3.07006e-06
1390.67	6.29945e-06
1399.35	6.25141e-06
1408.03	6.03285e-06
1416.71	4.72114e-06
1425.39	9.83978e-06
1434.07	7.4325e-06
1442.74	6.93651e-06
1451.42	7.71702e-06
1460.1	8.02943e-06
1468.78	7.84879e-06
1477.46	6.79627e-06
1486.13	9.39752e-05
1494.81	7.2303e-06
1503.49	6.34095e-06
1512.17	4.00451e-06
1520.85	4.02376e-05
1529.52	4.6517e-06
1538.2	4.38159e-06
1546.88	1.9169e-06
1555.56	1.58847e-06
1564.24	2.09367e-06
1572.92	1.33238e-06
1581.59	6.39925e-07
1590.27	4.94184e-07
1598.95	5.48182e-07
1607.63	7.52438e-07
1616.31	3.43706e-07
1624.98	2.41793e-07
1633.66	2.03497e-07
1642.34	1.33279e-07
1651.02	9.40622e-08
1659.7	4.30045e-08
1668.38	4.12824e-08
1677.05	3.64735e-08
1685.73	5.81264e-08
1694.41	4.57285e-08
1703.09	1.92854e-08
1711.77	6.56752e-09
1720.44	2.26792e-08
1729.12	2.98753e-08
1737.8	3.09726e-08
1746.48	3.18102e-08
1755.16	3.96045e-08
1763.84	4.73866e-08
1772.51	7.0259e-08
1781.19	-1.04326e-08
1789.87	3.05085e-08
1798.55	7.53789e-09
1807.23	1.45881e-08
1815.9	5.94978e-09
1824.58	-3.85159e-08
1833.26	-2.50323e-10
1841.94	3.34467e-08
1850.62	4.20636e-08
1859.29	2.64808e-08
1867.97	-1.69388e-08
1876.65	1.42637e-07
1885.33	2.33949e-07
1894.01	3.96279e-07
1902.69	3.42098e-07
1911.36	4.28716e-07
1920.04	5.50589e-07
1928.72	3.32587e-07
1937.4	4.72677e-08
1946.08	-4.76774e-09
1954.75	-2.52333e-08
1963.43	1.22047e-09
1972.11	-2.09346e-08
1980.79	5.12469e-10
1989.47	-5.16169e-08
1998.15	-8.88023e-09
2006.82	4.49734e-08
2015.5	3.31673e-09
2024.18	1.78671e-08
2032.86	2.26751e-08
2041.54	-1.35256e-09
2050.21	1.07744e-08
2058.89	1.32549e-08
2067.57	-7.71774e-09
2076.25	1.22054e-08
2084.93	5.53372e-09
2093.6	4.14341e-09
2102.28	-1.17284e-08
2110.96	2.74412e-08
2119.64	1.5969e-07
2128.32	1.30364e-08
2137	6.17987e-09
2145.67	1.61364e-08
2154.35	1.0958e-07
2163.03	5.36297e-08
2171.71	1.11587e-07
2180.39	1.82772e-07
2189.06	2.67205e-07
2197.74	2.59917e-07
2206.42	4.54122e-07
2215.1	1.0087e-06
2223.78	5.46069e-07
2232.46	7.58116e-07
2241.13	7.23518e-07
2249.81	1.00308e-06
2258.49	2.13585e-06
2267.17	1.14748e-06
2275.85	4.90618e-07
2284.52	4.46048e-07
2293.2	4.75821e-07
2301.88	3.74244e-07
2310.56	3.00485e-07
2319.24	5.81249e-07
2327.92	4.01477e-07
2336.59	3.04037e-07
2345.27	1.09901e-06
2353.95	6.81095e-07
2362.63	9.13263e-07
2371.31	7.393e-07
2379.98	5.62842e-07
2388.66	5.03427e-07
2397.34	5.97748e-07
2406.02	5.19349e-07
2414.7	3.79546e-07
2423.37	4.07195e-06
2432.05	3.85772e-07
2440.73	3.60043e-07
2449.41	2.50125e-07
2458.09	2.07933e-07
2466.77	2.00379e-07
2475.44	1.54121e-07
2484.12	1.37036e-07
2492.8	1.26753e-07
2501.48	1.1737e-07
2510.16	7.58214e-08
2518.83	1.67982e-07
2527.51	2.51876e-08
2536.19	-2.4895e-08
2544.87	-4.48686e-08
2553.55	2.74173e-08
2562.23	2.58424e-08
2570.9	4.03478e-07
2579.58	7.76583e-07
2588.26	8.13332e-07
2596.94	1.02169e-06
2605.62	1.51072e-06
2614.29	1.30058e-06
2622.97	-2.30177e-07
2631.65	-3.50669e-07
2640.33	-2.77588e-07
2649.01	-2.40623e-07
2657.68	-1.79749e-07
2666.36	3.2605e-08
2675.04	1.80678e-08
2683.72	-1.84162e-10
2692.4	4.50807e-08
2701.08	4.88972e-08
2709.75	8.29491e-08
2718.43	5.25374e-08
2727.11	2.55623e-08
2735.79	6.98429e-08
2744.47	8.74859e-08
2753.14	-2.07796e-07
2761.82	5.64992e-08
2770.5	5.49781e-08
2779.18	3.23513e-08
2787.86	1.78435e-07
2796.54	4.40385e-08
2805.21	8.02674e-08
2813.89	1.40953e-07
2822.57	4.21966e-07
2831.25	1.33429e-06
2839.93	5.95227e-06
2848.6	1.17787e-05
2857.28	5.22323e-06
2865.96	6.74808e-06
2874.64	1.02869e-05
2883.32	6.21375e-06
2892	2.36101e-06
2900.67	5.87811e-07
2909.35	9.51074e-08
2918.03	8.07235e-08
2926.71	7.27593e-07
2935.39	4.04456e-06
2944.06	1.77078e-05
2952.74	4.76505e-05
2961.42	6.04988e-05
2970.1	2.98136e-05
2978.78	5.92926e-05
2987.45	6.7493e-05
2996.13	3.20469e-05
3004.81	1.04215e-05
3013.49	4.26026e-06
3022.17	3.84872e-06
3030.85	3.51788e-06
3039.52	3.33426e-06
3048.2	3.99332e-06
3056.88	3.53389e-06
3065.56	4.09036e-06
3074.24	4.21583e-06
3082.91	3.68878e-06
3091.59	4.30587e-06
3100.27	4.00027e-06
3108.95	3.32899e-06
3117.63	3.4413e-06
3126.31	2.1626e-06
3134.98	1.34626e-06
3143.66	8.74392e-07
3152.34	9.91715e-07
3161.02	5.16219e-07
3169.7	3.14552e-07
3178.37	3.08153e-07
3187.05	4.52871e-07
3195.73	1.43672e-07
3204.41	1.23105e-07
3213.09	1.31694e-07
3221.77	1.62389e-07
3230.44	7.67272e-09
3239.12	7.25506e-09
3247.8	4.2193e-08
3256.48	-1.11072e-08
3265.16	-2.65988e-08
3273.83	5.46314e-08
3282.51	6.12508e-10
3291.19	6.88687e-08
3299.87	5.75046e-08
3308.55	-2.74553e-08
3317.22	3.90514e-09
3325.9	6.10475e-08
3334.58	2.39669e-08
3343.26	7.48126e-08
3351.94	2.50019e-08
3360.62	3.75328e-08
3369.29	6.84445e-09
3377.97	7.37515e-08
3386.65	1.54191e-08
3395.33	-8.43938e-09
3404.01	-3.30729e-08
3412.68	2.0341e-08
3421.36	-1.21608e-08
3430.04	6.74163e-08
3438.72	6.95903e-09
3447.4	1.21062e-08
3456.08	3.26728e-08
3464.75	7.35457e-08
3473.43	7.88519e-08
3482.11	7.71808e-08
3490.79	7.16718e-08
3499.47	7.48781e-08
3508.14	4.40837e-08
3516.82	-1.85426e-08
3525.5	2.89354e-08
3534.18	2.86289e-08
3542.86	1.247e-07
3551.53	1.96761e-07
3560.21	4.05684e-07
3568.89	5.86486e-07
3577.57	4.69528e-07
3586.25	4.34418e-07
3594.93	6.60697e-07
3603.6	4.76486e-07
3612.28	1.51237e-07
3620.96	1.09335e-07
3629.64	2.20913e-07
3638.32	7.22327e-08
3646.99	1.68927e-07
3655.67	2.18333e-07
3664.35	2.78991e-07
3673.03	3.62028e-07
3681.71	3.05304e-07
3690.39	2.71995e-07
3699.06	3.40229e-07
3707.74	1.53771e-07
3716.42	1.29964e-07
3725.1	2.06667e-07
3733.78	1.21719e-07
3742.45	9.90221e-08
3751.13	3.91011e-08
3759.81	1.16922e-07
3768.49	8.60337e-08
3777.17	4.05055e-08
3785.85	1.09569e-07
3794.52	1.23904e-07
3803.2	1.02722e-07
3811.88	8.5185e-08
3820.56	2.7603e-07
3829.24	1.37498e-07
3837.91	3.41073e-07
3846.59	1.95669e-07
3855.27	2.34063e-07
3863.95	3.179e-07
3872.63	2.25339e-07
3881.3	3.75814e-07
3889.98	5.1325e-07
3898.66	2.84445e-07
3907.34	2.76394e-07
3916.02	1.78364e-07
3924.7	1.85498e-07
3933.37	1.53147e-07
3942.05	4.10986e-07
3950.73	3.25312e-07
3959.41	1.92644e-07
3968.09	3.63626e-07
