Infrared Spectrum: Ethene
Formula: C H2: C H2
CAS: 74-85-1
State: gas
Melting point: -169.15 C
Boiling point: -103.71 C
Class: IUPAC A
Instrument: IFS66V (Bruker)
Instrument parameters: KBr Beam splitter; MCT Detector; Multipass cell
Sampling: 1 L/min Flow
Resolution: 0.2410
Temperature: 23 C
Pressure: 101.3 kPa
Origin: NIST, Anayltical Chemistry Division, 301-975-3108
cm-1	(micromol/mol)-1m-1 (base 10)
575.048	4.44041e-07
583.606	-3.31225e-07
592.163	-3.53754e-07
600.721	-1.5023e-07
609.279	-8.24809e-07
617.836	-6.73393e-08
626.394	-6.31558e-07
634.951	-1.81326e-07
643.509	-2.53802e-07
652.067	-4.05778e-07
660.624	-2.96863e-07
669.182	1.94935e-07
677.74	3.74726e-07
686.297	1.85826e-07
694.855	-1.54734e-07
703.412	9.17158e-07
711.97	4.10809e-07
720.528	9.82497e-07
729.085	2.03208e-06
737.643	8.0829e-07
746.201	3.31655e-07
754.758	2.54208e-06
763.316	1.25293e-07
771.873	1.44563e-07
780.431	-3.01173e-08
788.989	4.61542e-07
797.546	4.65973e-07
806.104	6.51439e-07
814.662	4.7406e-07
823.219	1.51492e-06
831.777	1.94361e-06
840.334	1.31152e-05
848.892	1.12574e-05
857.45	2.26443e-05
866.007	4.63413e-05
874.565	3.19573e-05
883.123	5.03116e-05
891.68	6.30737e-05
900.238	4.28166e-05
908.795	0.000241893
917.353	3.2621e-05
925.911	6.80613e-05
934.468	7.47944e-05
943.026	8.48949e-05
951.584	0.000287697
960.141	4.85311e-05
968.699	4.64675e-05
977.256	0.000130865
985.814	7.31844e-05
994.372	5.46657e-05
1002.93	3.75291e-05
1011.49	9.27579e-05
1020.04	0.000113047
1028.6	2.81852e-05
1037.16	5.31133e-05
1045.72	2.11649e-05
1054.28	5.1783e-06
1062.83	1.04052e-05
1071.39	5.5147e-06
1079.95	3.52516e-06
1088.51	1.76035e-06
1097.06	3.30031e-06
1105.62	4.58362e-06
1114.18	4.1842e-07
1122.74	5.22726e-07
1131.29	2.76175e-07
1139.85	6.36702e-07
1148.41	5.0529e-09
1156.97	-1.25344e-07
1165.52	-6.00273e-08
1174.08	-2.00654e-07
1182.64	-2.66647e-07
1191.2	-1.78354e-07
1199.75	-2.69481e-07
1208.31	-1.86335e-07
1216.87	-3.1113e-07
1225.43	-2.14416e-07
1233.99	-2.80951e-07
1242.54	-2.28854e-07
1251.1	-1.99755e-07
1259.66	-2.48178e-07
1268.22	-2.52591e-07
1276.77	-2.12418e-07
1285.33	-2.01509e-07
1293.89	-2.20083e-07
1302.45	-2.12313e-07
1311	-2.24616e-07
1319.56	-2.3028e-07
1328.12	-1.7576e-07
1336.68	-2.58586e-07
1345.23	-1.70562e-07
1353.79	-2.27381e-07
1362.35	-1.96056e-07
1370.91	-1.04467e-07
1379.46	9.42365e-07
1388.02	5.07959e-06
1396.58	1.20276e-05
1405.14	1.64939e-05
1413.7	1.85124e-05
1422.25	3.91337e-05
1430.81	9.22122e-06
1439.37	3.40165e-06
1447.93	1.89394e-05
1456.48	1.45497e-05
1465.04	3.00818e-05
1473.6	2.35578e-05
1482.16	1.48096e-05
1490.71	9.39996e-06
1499.27	4.23353e-07
1507.83	5.36139e-07
1516.39	-1.13401e-07
1524.94	-1.40761e-07
1533.5	-2.99569e-07
1542.06	-3.59014e-07
1550.62	-2.76586e-07
1559.18	-2.38967e-07
1567.73	-2.62646e-07
1576.29	-3.26733e-07
1584.85	-2.88085e-07
1593.41	-2.33696e-07
1601.96	-2.85716e-07
1610.52	-1.79929e-07
1619.08	-3.01563e-07
1627.64	-1.95648e-07
1636.19	-2.86564e-07
1644.75	-2.52591e-07
1653.31	-6.10274e-07
1661.87	-2.39655e-07
1670.42	-2.83567e-07
1678.98	-2.15725e-07
1687.54	-2.84258e-07
1696.1	-1.83094e-07
1704.65	-1.82781e-07
1713.21	-2.43955e-07
1721.77	-1.37254e-07
1730.33	2.32848e-07
1738.89	-9.94174e-08
1747.44	6.04966e-08
1756	-5.05545e-08
1764.56	-2.07293e-07
1773.12	-1.23525e-07
1781.67	-3.64944e-08
1790.23	-1.44028e-07
1798.79	-1.9519e-07
1807.35	-1.89984e-07
1815.9	-9.22655e-08
1824.46	7.38219e-08
1833.02	9.87801e-07
1841.58	2.14448e-06
1850.13	7.63041e-06
1858.69	7.20106e-06
1867.25	5.48547e-06
1875.81	6.22236e-06
1884.36	1.16539e-06
1892.92	1.79098e-06
1901.48	1.19623e-05
1910.04	1.30638e-05
1918.6	1.60046e-05
1927.15	2.89311e-06
1935.71	1.55118e-06
1944.27	7.82636e-07
1952.83	4.0902e-07
1961.38	-3.78753e-07
1969.94	-9.37025e-08
1978.5	7.16028e-08
1987.06	-4.46867e-08
1995.61	2.53129e-07
2004.17	2.93763e-07
2012.73	2.25391e-07
2021.29	8.73363e-08
2029.84	1.36253e-06
2038.4	1.59623e-06
2046.96	5.9265e-06
2055.52	-1.27894e-07
2064.08	9.71504e-07
2072.63	3.31906e-06
2081.19	1.33073e-06
2089.75	2.39611e-07
2098.31	-5.55747e-08
2106.86	-2.96612e-07
2115.42	-1.7735e-07
2123.98	1.66509e-07
2132.54	6.05515e-07
2141.09	3.35452e-07
2149.65	1.81464e-07
2158.21	6.35247e-07
2166.77	1.70347e-07
2175.32	8.26945e-08
2183.88	2.66283e-07
2192.44	3.98717e-07
2201	8.05911e-07
2209.55	1.99952e-07
2218.11	2.89954e-07
2226.67	7.00568e-08
2235.23	2.24088e-08
2243.79	7.0024e-08
2252.34	3.917e-07
2260.9	-4.34462e-08
2269.46	-1.18771e-07
2278.02	-1.81457e-07
2286.57	-1.34053e-07
2295.13	-1.71828e-07
2303.69	-7.63538e-08
2312.25	-1.1398e-07
2320.8	-1.31776e-07
2329.36	-1.31125e-07
2337.92	9.30185e-09
2346.48	-1.03976e-07
2355.03	-1.19684e-07
2363.59	-1.40263e-07
2372.15	-3.62543e-08
2380.71	-8.83294e-08
2389.26	-1.29236e-07
2397.82	-1.86728e-07
2406.38	-1.53297e-07
2414.94	-1.00923e-07
2423.5	-1.12401e-07
2432.05	-1.38455e-07
2440.61	-2.0216e-07
2449.17	-1.14536e-07
2457.73	-9.74021e-08
2466.28	-9.53213e-08
2474.84	-1.1829e-07
2483.4	-2.18701e-07
2491.96	-1.62064e-07
2500.51	-2.39269e-07
2509.07	-2.29007e-07
2517.63	-2.84432e-07
2526.19	-2.1765e-07
2534.74	-1.68445e-07
2543.3	-1.44352e-07
2551.86	-2.46032e-07
2560.42	-2.18166e-07
2568.98	-8.71544e-08
2577.53	-2.06416e-07
2586.09	-2.13757e-07
2594.65	-2.51339e-07
2603.21	-1.86586e-07
2611.76	-2.61332e-07
2620.32	-1.83552e-07
2628.88	-2.02898e-07
2637.44	-2.19858e-07
2645.99	-1.41132e-07
2654.55	-1.84513e-07
2663.11	-1.85091e-07
2671.67	-2.18053e-07
2680.22	-2.38752e-07
2688.78	-3.08853e-07
2697.34	-2.65352e-07
2705.9	-2.60437e-07
2714.45	-2.04746e-07
2723.01	-2.83232e-07
2731.57	-2.65265e-07
2740.13	-2.22357e-07
2748.69	-3.55169e-07
2757.24	-2.89027e-07
2765.8	-3.07987e-07
2774.36	-2.33332e-07
2782.92	-3.27231e-07
2791.47	-3.89205e-07
2800.03	-4.27401e-07
2808.59	-3.4665e-07
2817.15	-2.39233e-07
2825.7	-3.57985e-07
2834.26	-4.19173e-07
2842.82	-3.56977e-07
2851.38	-4.90077e-07
2859.93	-5.65314e-07
2868.49	-2.50241e-07
2877.05	-2.78881e-07
2885.61	-7.35607e-07
2894.16	-5.70462e-07
2902.72	-3.19115e-07
2911.28	-3.00344e-07
2919.84	3.27147e-08
2928.4	6.46172e-07
2936.95	4.28844e-06
2945.51	2.04118e-05
2954.07	1.35483e-05
2962.63	6.02532e-05
2971.18	2.23956e-05
2979.74	1.17729e-05
2988.3	0.000326694
2996.86	6.19743e-06
3005.41	3.17148e-05
3013.97	6.08146e-05
3022.53	3.58557e-05
3031.09	1.7648e-05
3039.64	1.45052e-05
3048.2	2.97158e-05
3056.76	2.33375e-05
3065.32	1.69483e-05
3073.88	5.60819e-05
3082.43	2.51831e-05
3090.99	3.17869e-05
3099.55	4.53917e-05
3108.11	1.31041e-05
3116.66	4.49461e-05
3125.22	7.10705e-05
3133.78	4.54553e-05
3142.34	2.25396e-05
3150.89	4.29196e-05
3159.45	1.51975e-05
3168.01	3.26993e-05
3176.57	1.21737e-05
3185.12	3.05451e-06
3193.68	1.56779e-05
3202.24	9.29926e-06
3210.8	3.84186e-06
3219.35	2.67438e-06
3227.91	3.01179e-06
3236.47	7.2421e-07
3245.03	1.53992e-07
3253.59	2.66742e-07
3262.14	-5.08674e-08
3270.7	-6.82815e-08
3279.26	-1.62926e-07
3287.82	-1.64207e-07
3296.37	-1.59914e-07
3304.93	-2.07566e-07
3313.49	-9.0443e-08
3322.05	-1.85935e-07
3330.6	-2.68157e-07
3339.16	-1.60034e-07
3347.72	-1.7372e-07
3356.28	-1.86226e-07
3364.83	-2.24132e-07
3373.39	-1.50088e-07
3381.95	-1.40859e-07
3390.51	-1.62719e-07
3399.06	-2.03509e-07
3407.62	-2.27559e-07
3416.18	-2.25282e-07
3424.74	-2.72275e-07
3433.3	-2.06536e-07
3441.85	-3.02363e-07
3450.41	-3.28657e-07
3458.97	-1.12794e-07
3467.53	-2.22997e-07
3476.08	-2.04364e-07
3484.64	-2.04044e-07
3493.2	-1.11571e-07
3501.76	-2.30822e-07
3510.31	-2.26508e-07
3518.87	-1.91552e-07
3527.43	-2.22997e-07
3535.99	-1.29098e-07
3544.54	-2.4517e-07
3553.1	-1.3019e-07
3561.66	-1.94386e-07
3570.22	-2.10458e-07
3578.78	-1.49423e-07
3587.33	-3.45373e-07
3595.89	-2.49266e-07
3604.45	-2.0865e-07
3613.01	-2.23543e-07
3621.56	-2.49793e-07
3630.12	-1.55356e-07
3638.68	-1.9965e-07
3647.24	-2.52354e-07
3655.79	-2.12207e-07
3664.35	-2.05219e-07
3672.91	-2.69666e-07
3681.47	-2.46792e-07
3690.02	-2.50241e-07
3698.58	-2.46566e-07
3707.14	-3.63587e-07
3715.7	-2.20058e-07
3724.25	-2.69597e-07
3732.81	-3.6884e-07
3741.37	-1.41445e-07
3749.93	-2.10392e-07
3758.49	-2.80605e-07
3767.04	-2.18719e-07
3775.6	-3.99631e-07
3784.16	-2.11593e-07
3792.72	-4.41738e-08
3801.27	-2.38338e-07
3809.83	-3.73151e-07
3818.39	-1.18447e-08
3826.95	-2.3741e-07
3835.5	-1.84236e-07
3844.06	-1.71326e-07
3852.62	-1.97529e-07
3861.18	5.40213e-09
3869.73	-2.1252e-07
3878.29	-6.60115e-08
3886.85	-1.37985e-07
3895.41	-1.56495e-07
3903.96	-1.87503e-07
3912.52	-1.59361e-07
3921.08	2.52609e-08
3929.64	-1.44639e-08
3938.2	-1.46414e-07
3946.75	-7.76707e-08
3955.31	-1.5274e-07
3963.87	-2.21367e-07
3972.43	-1.43599e-07
