Infrared Spectrum: Ethene
Formula: C H2: C H2
CAS: 74-85-1
State: gas
Melting point: -169.15 C
Boiling point: -103.71 C
Class: IUPAC A
Instrument: IFS66V (Bruker)
Instrument parameters: KBr Beam splitter; MCT Detector; Multipass cell
Sampling: 1 L/min Flow
Resolution: 0.4820
Temperature: 23 C
Pressure: 101.3 kPa
Origin: NIST, Anayltical Chemistry Division, 301-975-3108
cm-1	(micromol/mol)-1m-1 (base 10)
574.928	-8.32511e-08
583.606	-1.45718e-07
592.284	-4.26609e-07
600.962	-4.25969e-07
609.641	-3.51953e-07
618.319	-2.85667e-07
626.997	-2.11435e-07
635.675	-3.36269e-07
644.353	-1.49822e-07
653.031	-1.14621e-07
661.71	-2.40278e-07
670.388	-1.36887e-07
679.066	-1.11138e-07
687.744	2.77627e-07
696.422	5.64011e-08
705.1	1.50823e-07
713.778	9.25188e-07
722.457	3.21217e-07
731.135	9.7611e-07
739.813	1.08624e-06
748.491	1.01088e-06
757.169	1.27083e-06
765.847	1.33623e-06
774.526	5.13542e-07
783.204	6.35661e-08
791.882	1.76337e-07
800.56	9.78575e-08
809.238	4.90532e-07
817.916	9.43345e-07
826.594	6.63431e-07
835.273	4.19042e-06
843.951	1.16685e-05
852.629	9.07443e-06
861.307	2.02428e-05
869.985	2.59261e-05
878.663	6.61822e-05
887.342	3.60613e-05
896.02	8.37912e-05
904.698	4.86188e-05
913.376	8.98841e-05
922.054	0.000156675
930.732	6.56951e-05
939.41	0.000101258
948.089	0.00031108
956.767	9.04788e-05
965.445	0.000101773
974.123	4.72483e-05
982.801	6.49128e-05
991.479	7.80492e-05
1000.16	5.11785e-05
1008.84	5.11737e-05
1017.51	7.29289e-05
1026.19	5.09503e-05
1034.87	2.1423e-05
1043.55	2.64086e-05
1052.23	9.16773e-06
1060.9	1.19311e-05
1069.58	9.77094e-06
1078.26	3.43477e-06
1086.94	2.24677e-06
1095.62	2.00988e-06
1104.3	1.09981e-06
1112.97	2.44495e-06
1121.65	6.95864e-07
1130.33	5.22125e-07
1139.01	1.99318e-07
1147.69	4.62729e-07
1156.36	-1.05703e-07
1165.04	-1.42137e-07
1173.72	-1.58744e-07
1182.4	-1.9727e-07
1191.08	-2.17936e-07
1199.76	-2.16124e-07
1208.43	-2.30396e-07
1217.11	-2.44869e-07
1225.79	-2.26994e-07
1234.47	-2.42379e-07
1243.15	-2.4135e-07
1251.82	-2.49295e-07
1260.5	-2.57789e-07
1269.18	-2.1944e-07
1277.86	-2.28264e-07
1286.54	-2.66128e-07
1295.21	-2.47772e-07
1303.89	-2.1243e-07
1312.57	-2.34312e-07
1321.25	-2.19829e-07
1329.93	-2.08655e-07
1338.61	-2.31131e-07
1347.28	-2.20848e-07
1355.96	-2.20631e-07
1364.64	-1.53014e-07
1373.32	-1.67983e-08
1382	3.31913e-07
1390.67	2.7374e-06
1399.35	1.09771e-05
1408.03	1.81027e-05
1416.71	3.51871e-05
1425.39	2.79171e-05
1434.07	9.19615e-06
1442.74	3.64047e-05
1451.42	1.39699e-05
1460.1	3.18154e-05
1468.78	1.31492e-05
1477.46	1.32295e-05
1486.13	7.80638e-06
1494.81	2.52116e-06
1503.49	1.33693e-06
1512.17	1.14141e-08
1520.85	-2.22332e-07
1529.52	-2.44018e-07
1538.2	-2.76905e-07
1546.88	-2.39552e-07
1555.56	-2.43114e-07
1564.24	-2.34832e-07
1572.92	-2.2665e-07
1581.59	-2.61158e-07
1590.27	-1.88863e-07
1598.95	-2.37722e-07
1607.63	-2.25566e-07
1616.31	-2.693e-07
1624.98	-2.36036e-07
1633.66	-2.3817e-07
1642.34	-2.57609e-07
1651.02	-2.67137e-07
1659.7	-2.46814e-07
1668.38	-2.61573e-07
1677.05	-2.58079e-07
1685.73	-2.40365e-07
1694.41	-2.18527e-07
1703.09	-1.92859e-07
1711.77	-1.34226e-07
1720.44	-1.4725e-07
1729.12	-1.60334e-07
1737.8	-4.97855e-09
1746.48	8.78567e-08
1755.16	-5.42547e-08
1763.84	-1.36975e-07
1772.51	-2.41468e-07
1781.19	1.06923e-07
1789.87	2.95275e-08
1798.55	-2.22991e-07
1807.23	-1.87801e-07
1815.9	-1.2072e-07
1824.58	2.66848e-07
1833.26	8.65027e-07
1841.94	2.11694e-06
1850.62	8.05959e-06
1859.29	4.75187e-06
1867.97	1.13778e-05
1876.65	4.63933e-06
1885.33	3.74982e-06
1894.01	2.15138e-06
1902.69	4.80269e-06
1911.36	1.20006e-05
1920.04	1.30709e-05
1928.72	6.21243e-06
1937.4	2.17341e-06
1946.08	8.15036e-07
1954.75	-7.34486e-08
1963.43	-8.51992e-08
1972.11	-3.32133e-07
1980.79	-1.6479e-07
1989.47	2.66471e-07
1998.15	-1.87391e-07
2006.82	5.38111e-07
2015.5	6.34302e-07
2024.18	1.74022e-06
2032.86	7.85965e-07
2041.54	-5.24467e-08
2050.21	-1.75392e-07
2058.89	2.61113e-07
2067.57	8.14561e-07
2076.25	1.2916e-06
2084.93	6.92335e-07
2093.6	8.17868e-08
2102.28	-8.22488e-08
2110.96	-6.70694e-08
2119.64	3.09718e-08
2128.32	-1.03997e-07
2137	-1.78899e-07
2145.67	9.18003e-08
2154.35	1.78016e-07
2163.03	3.08917e-07
2171.71	1.32964e-07
2180.39	5.26038e-07
2189.06	4.96136e-07
2197.74	4.74888e-07
2206.42	4.59407e-07
2215.1	4.69401e-07
2223.78	2.56742e-07
2232.46	8.58013e-08
2241.13	2.91419e-08
2249.81	6.26202e-08
2258.49	-7.08656e-08
2267.17	-8.56558e-08
2275.85	-1.41286e-07
2284.52	-1.60267e-07
2293.2	-1.49138e-07
2301.88	-9.61204e-08
2310.56	-1.10196e-07
2319.24	-3.85697e-08
2327.92	-1.03218e-07
2336.59	-1.21075e-07
2345.27	-1.53715e-07
2353.95	-9.75119e-08
2362.63	1.68583e-07
2371.31	3.86624e-08
2379.98	-1.23161e-07
2388.66	-1.17957e-07
2397.34	-1.36795e-07
2406.02	-1.14505e-07
2414.7	-1.55876e-07
2423.37	-8.76621e-08
2432.05	-1.55323e-07
2440.73	-1.94114e-07
2449.41	-1.16207e-07
2458.09	-1.07063e-07
2466.77	-1.28564e-07
2475.44	-1.09355e-07
2484.12	-2.00779e-07
2492.8	-1.98143e-07
2501.48	-2.29184e-07
2510.16	-1.96112e-07
2518.83	-2.00553e-07
2527.51	-2.33726e-07
2536.19	-2.13419e-07
2544.87	-2.09499e-07
2553.55	-2.40727e-07
2562.23	-2.25071e-07
2570.9	-1.73811e-07
2579.58	-2.63014e-07
2588.26	-2.27667e-07
2596.94	-2.11746e-07
2605.62	-2.02876e-07
2614.29	-2.20711e-07
2622.97	-2.26885e-07
2631.65	-2.06976e-07
2640.33	-2.02111e-07
2649.01	-2.08302e-07
2657.68	-2.23866e-07
2666.36	-2.24573e-07
2675.04	-2.20648e-07
2683.72	-2.46063e-07
2692.4	-2.32908e-07
2701.08	-2.64605e-07
2709.75	-2.42475e-07
2718.43	-2.47823e-07
2727.11	-2.48627e-07
2735.79	-2.52202e-07
2744.47	-2.62917e-07
2753.14	-2.33986e-07
2761.82	-2.53137e-07
2770.5	-2.70199e-07
2779.18	-3.19964e-07
2787.86	-2.911e-07
2796.54	-3.67596e-07
2805.21	-3.69131e-07
2813.89	-3.47956e-07
2822.57	-3.88114e-07
2831.25	-4.775e-07
2839.93	-5.66019e-07
2848.6	-3.89767e-07
2857.28	-3.46712e-07
2865.96	-3.54104e-07
2874.64	-2.31067e-07
2883.32	-2.84548e-07
2892	-5.04607e-07
2900.67	-2.85305e-07
2909.35	-2.65538e-07
2918.03	1.88537e-08
2926.71	8.00455e-07
2935.39	2.73385e-06
2944.06	4.76405e-06
2952.74	1.87519e-05
2961.42	1.89694e-05
2970.1	4.41377e-05
2978.78	7.04906e-06
2987.45	8.17007e-05
2996.13	1.67246e-05
3004.81	4.67836e-05
3013.49	5.58608e-05
3022.17	2.13803e-05
3030.85	2.05156e-05
3039.52	1.56107e-05
3048.2	1.99505e-05
3056.88	2.53919e-05
3065.56	2.21092e-05
3074.24	3.72532e-05
3082.91	3.55722e-05
3091.59	3.50194e-05
3100.27	3.35587e-05
3108.95	3.05941e-05
3117.63	2.98125e-05
3126.31	4.61364e-05
3134.98	3.70187e-05
3143.66	2.2041e-05
3152.34	2.55995e-05
3161.02	1.35517e-05
3169.7	5.03327e-05
3178.37	1.28124e-05
3187.05	7.93981e-06
3195.73	1.27188e-05
3204.41	7.11015e-06
3213.09	3.76614e-06
3221.77	1.26619e-06
3230.44	6.18482e-07
3239.12	4.60731e-07
3247.8	1.51779e-07
3256.48	1.83899e-09
3265.16	-1.09852e-07
3273.83	-1.36973e-07
3282.51	-1.83923e-07
3291.19	-1.51248e-07
3299.87	-1.91821e-07
3308.55	-2.00282e-07
3317.22	-2.00812e-07
3325.9	-2.06789e-07
3334.58	-2.5801e-07
3343.26	-1.50983e-07
3351.94	-1.70817e-07
3360.62	-1.61555e-07
3369.29	-1.25353e-07
3377.97	-1.41211e-07
3386.65	-1.60978e-07
3395.33	-2.29697e-07
3404.01	-2.45832e-07
3412.68	-2.23114e-07
3421.36	-2.66744e-07
3430.04	-2.16682e-07
3438.72	-3.05025e-07
3447.4	-2.24615e-07
3456.08	-2.46941e-07
3464.75	-2.34079e-07
3473.43	-2.07469e-07
3482.11	-1.76698e-07
3490.79	-2.10902e-07
3499.47	-2.39141e-07
3508.14	-2.68436e-07
3516.82	-1.53467e-07
3525.5	-1.4391e-07
3534.18	-1.36782e-07
3542.86	-1.82689e-07
3551.53	-2.01417e-07
3560.21	-2.53317e-07
3568.89	-2.25892e-07
3577.57	-2.36946e-07
3586.25	-2.1759e-07
3594.93	-1.90753e-07
3603.6	-2.3811e-07
3612.28	-2.34619e-07
3620.96	-2.04972e-07
3629.64	-3.39229e-07
3638.32	-2.03618e-07
3646.99	-2.30819e-07
3655.67	-2.27187e-07
3664.35	-2.29175e-07
3673.03	-2.33928e-07
3681.71	-2.35502e-07
3690.39	-2.17481e-07
3699.06	-2.3948e-07
3707.74	-3.03088e-07
3716.42	-4.45857e-07
3725.1	-2.09976e-07
3733.78	-1.74167e-07
3742.45	-3.31516e-07
3751.13	-2.76863e-07
3759.81	-2.48433e-07
3768.49	-1.43665e-07
3777.17	-7.12405e-07
3785.85	-1.83551e-07
3794.52	-1.93438e-07
3803.2	-2.24815e-07
3811.88	-2.14923e-07
3820.56	-3.64553e-07
3829.24	-2.17483e-07
3837.91	-1.85234e-07
3846.59	-2.77544e-07
3855.27	-1.45475e-07
3863.95	-1.63526e-09
3872.63	-9.325e-08
3881.3	-1.22212e-07
3889.98	-1.49151e-07
3898.66	-5.12225e-08
3907.34	-1.05532e-07
3916.02	-1.51446e-07
3924.7	-1.1697e-07
3933.37	-2.16333e-07
3942.05	-1.93898e-07
3950.73	-1.63102e-07
3959.41	-1.0091e-07
3968.09	-1.12166e-07
