Infrared Spectrum: Ethene
Formula: C H2: C H2
CAS: 74-85-1
State: gas
Melting point: -169.15 C
Boiling point: -103.71 C
Class: IUPAC A
Instrument: IFS66V (Bruker)
Instrument parameters: KBr Beam splitter; MCT Detector; Multipass cell
Sampling: 1 L/min Flow
Resolution: 0.4820
Temperature: 23 C
Pressure: 101.3 kPa
Origin: NIST, Anayltical Chemistry Division, 301-975-3108
cm-1	(micromol/mol)-1m-1 (base 10)
574.928	-3.48651e-07
583.606	-7.94694e-08
592.284	-4.46372e-07
600.962	-5.60521e-07
609.641	-3.8223e-07
618.319	-3.36284e-07
626.997	-2.52673e-07
635.675	-3.83576e-07
644.353	-1.739e-07
653.031	-1.42506e-07
661.71	-3.62199e-07
670.388	-2.44895e-07
679.066	-1.95126e-07
687.744	3.71499e-07
696.422	-3.73589e-07
705.1	4.05887e-08
713.778	1.0275e-06
722.457	-1.6761e-07
731.135	1.4679e-06
739.813	7.01702e-07
748.491	6.25995e-07
757.169	8.05423e-07
765.847	1.20202e-06
774.526	2.13601e-07
783.204	-1.42712e-07
791.882	-1.22134e-07
800.56	-1.92694e-07
809.238	1.27891e-07
817.916	7.31594e-07
826.594	-1.31307e-07
835.273	3.0069e-06
843.951	1.17872e-05
852.629	8.09224e-06
861.307	2.27635e-05
869.985	2.75724e-05
878.663	7.40544e-05
887.342	2.24611e-05
896.02	7.61335e-05
904.698	5.8836e-05
913.376	0.000117463
922.054	0.000109014
930.732	6.31623e-05
939.41	9.53651e-05
948.089	0.000292069
956.767	0.000113735
965.445	0.000113494
974.123	3.1327e-05
982.801	6.28939e-05
991.479	0.000103456
1000.16	5.72383e-05
1008.84	3.93004e-05
1017.51	9.1305e-05
1026.19	4.7886e-05
1034.87	1.05438e-05
1043.55	1.80652e-05
1052.23	8.53653e-06
1060.9	9.96158e-06
1069.58	1.18643e-05
1078.26	1.99027e-06
1086.94	1.34571e-06
1095.62	6.86125e-07
1104.3	6.75189e-07
1112.97	3.57074e-06
1121.65	6.333e-07
1130.33	3.59194e-07
1139.01	2.95513e-07
1147.69	9.54324e-07
1156.36	-6.60017e-08
1165.04	-7.12967e-08
1173.72	-7.69338e-08
1182.4	-5.92551e-08
1191.08	-9.5431e-08
1199.76	-1.01597e-07
1208.43	-1.15482e-07
1217.11	-1.38977e-07
1225.79	-1.19904e-07
1234.47	-1.33222e-07
1243.15	-1.59974e-07
1251.82	-1.58964e-07
1260.5	-1.7623e-07
1269.18	-1.3706e-07
1277.86	-1.59173e-07
1286.54	-1.92082e-07
1295.21	-1.67315e-07
1303.89	-1.41342e-07
1312.57	-1.59286e-07
1321.25	-1.52934e-07
1329.93	-1.15811e-07
1338.61	-1.78515e-07
1347.28	-1.64563e-07
1355.96	-1.55512e-07
1364.64	-1.3113e-07
1373.32	1.40516e-08
1382	2.12795e-07
1390.67	3.01558e-06
1399.35	1.2427e-05
1408.03	1.74198e-05
1416.71	4.26057e-05
1425.39	2.8102e-05
1434.07	7.96355e-06
1442.74	3.59232e-05
1451.42	1.64563e-05
1460.1	3.64924e-05
1468.78	1.57556e-05
1477.46	1.21779e-05
1486.13	5.81077e-06
1494.81	1.63481e-06
1503.49	1.29789e-06
1512.17	-9.94636e-08
1520.85	-2.66117e-07
1529.52	-2.7581e-07
1538.2	-2.89207e-07
1546.88	-2.36511e-07
1555.56	-2.40064e-07
1564.24	-2.56827e-07
1572.92	-2.19862e-07
1581.59	-2.73251e-07
1590.27	-1.66773e-07
1598.95	-2.22629e-07
1607.63	-2.02414e-07
1616.31	-2.26996e-07
1624.98	-2.22188e-07
1633.66	-2.30596e-07
1642.34	-2.5955e-07
1651.02	-2.58588e-07
1659.7	-2.53635e-07
1668.38	-2.8387e-07
1677.05	-2.51803e-07
1685.73	-2.17555e-07
1694.41	-2.22454e-07
1703.09	-1.54066e-07
1711.77	-1.52569e-07
1720.44	-1.38968e-07
1729.12	-1.70879e-07
1737.8	-3.87079e-09
1746.48	1.19713e-07
1755.16	-4.89415e-08
1763.84	-1.27843e-07
1772.51	-2.72098e-07
1781.19	7.1897e-08
1789.87	5.17354e-08
1798.55	-2.31814e-07
1807.23	-1.8716e-07
1815.9	-1.13812e-07
1824.58	9.40576e-08
1833.26	7.53067e-07
1841.94	2.07916e-06
1850.62	8.66234e-06
1859.29	3.71729e-06
1867.97	1.17644e-05
1876.65	4.28801e-06
1885.33	4.17177e-06
1894.01	1.68917e-06
1902.69	4.8109e-06
1911.36	1.64717e-05
1920.04	1.07651e-05
1928.72	2.08005e-06
1937.4	2.28762e-06
1946.08	7.20221e-07
1954.75	-2.07109e-08
1963.43	-6.001e-08
1972.11	-3.02043e-07
1980.79	-1.66135e-07
1989.47	2.28819e-07
1998.15	-3.06054e-07
2006.82	5.74896e-07
2015.5	7.07016e-07
2024.18	2.33376e-06
2032.86	5.75811e-07
2041.54	-7.64736e-08
2050.21	-1.51354e-07
2058.89	2.9894e-07
2067.57	4.20625e-07
2076.25	1.31509e-06
2084.93	4.11506e-07
2093.6	1.01359e-07
2102.28	-4.07724e-08
2110.96	-1.16287e-07
2119.64	1.00413e-07
2128.32	-1.04004e-07
2137	-1.63737e-07
2145.67	3.98866e-08
2154.35	9.44596e-08
2163.03	4.06355e-07
2171.71	1.6681e-07
2180.39	5.62212e-07
2189.06	2.79146e-07
2197.74	5.1266e-07
2206.42	4.0765e-07
2215.1	4.48708e-07
2223.78	3.21921e-07
2232.46	7.80324e-08
2241.13	5.96589e-08
2249.81	4.37956e-08
2258.49	-8.11356e-08
2267.17	-7.12058e-08
2275.85	-1.41398e-07
2284.52	-1.90627e-07
2293.2	-1.63603e-07
2301.88	-1.22357e-07
2310.56	-7.77414e-08
2319.24	2.61806e-08
2327.92	-7.91875e-08
2336.59	-8.75402e-08
2345.27	-1.39652e-07
2353.95	-1.23158e-07
2362.63	2.23913e-07
2371.31	1.00288e-07
2379.98	-1.58477e-07
2388.66	-1.42952e-07
2397.34	-1.32012e-07
2406.02	-7.94476e-08
2414.7	-1.68528e-07
2423.37	-5.44548e-08
2432.05	-1.50708e-07
2440.73	-1.73014e-07
2449.41	-1.36465e-07
2458.09	-9.17202e-08
2466.77	-1.5228e-07
2475.44	-9.28753e-08
2484.12	-2.1556e-07
2492.8	-2.01332e-07
2501.48	-2.25737e-07
2510.16	-1.9357e-07
2518.83	-1.8696e-07
2527.51	-2.49031e-07
2536.19	-2.10432e-07
2544.87	-2.16051e-07
2553.55	-2.4514e-07
2562.23	-2.29124e-07
2570.9	-1.66213e-07
2579.58	-3.15888e-07
2588.26	-2.30266e-07
2596.94	-2.16344e-07
2605.62	-1.78899e-07
2614.29	-2.47358e-07
2622.97	-2.6655e-07
2631.65	-2.09439e-07
2640.33	-2.11909e-07
2649.01	-2.21255e-07
2657.68	-2.42912e-07
2666.36	-2.32708e-07
2675.04	-2.3405e-07
2683.72	-2.6753e-07
2692.4	-2.56565e-07
2701.08	-3.00172e-07
2709.75	-2.48023e-07
2718.43	-2.6363e-07
2727.11	-2.71179e-07
2735.79	-2.85474e-07
2744.47	-3.00952e-07
2753.14	-2.36471e-07
2761.82	-2.63507e-07
2770.5	-3.01243e-07
2779.18	-3.48115e-07
2787.86	-3.02702e-07
2796.54	-4.29425e-07
2805.21	-4.06067e-07
2813.89	-4.09096e-07
2822.57	-4.14169e-07
2831.25	-5.13291e-07
2839.93	-6.02814e-07
2848.6	-4.14898e-07
2857.28	-3.76816e-07
2865.96	-4.26474e-07
2874.64	-2.56425e-07
2883.32	-3.27013e-07
2892	-5.37876e-07
2900.67	-3.01176e-07
2909.35	-3.24133e-07
2918.03	-1.46794e-07
2926.71	4.16676e-07
2935.39	2.29516e-06
2944.06	2.35957e-06
2952.74	1.50206e-05
2961.42	2.2613e-05
2970.1	5.23638e-05
2978.78	8.05962e-06
2987.45	8.29982e-05
2996.13	1.61848e-05
3004.81	5.34159e-05
3013.49	5.34328e-05
3022.17	1.98402e-05
3030.85	2.19333e-05
3039.52	1.88048e-05
3048.2	2.44033e-05
3056.88	2.95331e-05
3065.56	1.66411e-05
3074.24	3.3325e-05
3082.91	3.75589e-05
3091.59	4.04239e-05
3100.27	2.96615e-05
3108.95	2.97134e-05
3117.63	2.32742e-05
3126.31	4.72573e-05
3134.98	3.80415e-05
3143.66	2.01518e-05
3152.34	1.8218e-05
3161.02	1.26138e-05
3169.7	5.92138e-05
3178.37	1.258e-05
3187.05	6.9261e-06
3195.73	1.50818e-05
3204.41	5.1027e-06
3213.09	4.702e-06
3221.77	1.60543e-06
3230.44	6.2885e-07
3239.12	6.79091e-07
3247.8	5.83802e-08
3256.48	6.3446e-09
3265.16	-1.45846e-08
3273.83	-6.224e-08
3282.51	-1.1715e-07
3291.19	-5.93442e-08
3299.87	-1.25937e-07
3308.55	-1.69902e-07
3317.22	-1.37313e-07
3325.9	-1.69067e-07
3334.58	-2.21248e-07
3343.26	-8.60723e-08
3351.94	-1.41446e-07
3360.62	-1.12611e-07
3369.29	-8.7362e-08
3377.97	-8.00588e-08
3386.65	-1.47279e-07
3395.33	-2.03344e-07
3404.01	-2.6417e-07
3412.68	-1.53275e-07
3421.36	-2.50983e-07
3430.04	-1.74933e-07
3438.72	-2.89496e-07
3447.4	-1.65793e-07
3456.08	-2.66448e-07
3464.75	-1.95049e-07
3473.43	-1.83268e-07
3482.11	-9.46943e-08
3490.79	-1.94547e-07
3499.47	-1.7979e-07
3508.14	-3.00685e-07
3516.82	-9.80648e-08
3525.5	-1.408e-07
3534.18	-1.6582e-07
3542.86	-1.05714e-07
3551.53	-1.87822e-07
3560.21	-2.68483e-07
3568.89	-2.19054e-07
3577.57	-2.58131e-07
3586.25	-1.72672e-07
3594.93	-1.53356e-07
3603.6	-2.64845e-07
3612.28	-2.06665e-07
3620.96	-1.65802e-07
3629.64	-3.97407e-07
3638.32	-1.99842e-07
3646.99	-2.51934e-07
3655.67	-2.40926e-07
3664.35	-2.18672e-07
3673.03	-2.41384e-07
3681.71	-1.95961e-07
3690.39	-1.71295e-07
3699.06	-1.92102e-07
3707.74	-3.38758e-07
3716.42	-4.40519e-07
3725.1	-2.08268e-07
3733.78	-1.73469e-07
3742.45	-4.09398e-07
3751.13	-3.10096e-07
3759.81	-2.19169e-07
3768.49	-1.27409e-07
3777.17	-6.87069e-07
3785.85	-1.71934e-07
3794.52	-2.21239e-07
3803.2	-2.83313e-07
3811.88	-2.20806e-07
3820.56	-4.301e-07
3829.24	-2.62733e-07
3837.91	-3.17648e-07
3846.59	-2.44893e-07
3855.27	-9.53473e-08
3863.95	-3.77984e-09
3872.63	-8.60396e-08
3881.3	-1.02079e-07
3889.98	-1.83235e-07
3898.66	-2.28682e-08
3907.34	-1.08606e-07
3916.02	-1.65185e-07
3924.7	-1.62217e-07
3933.37	-2.81545e-07
3942.05	-2.04117e-07
3950.73	-1.75408e-07
3959.41	-1.26988e-07
3968.09	-1.29142e-07
