Infrared Spectrum: Bromomethane
Formula: C H3 Br
CAS: 74-83-9
State: gas
Melting point: -93.6 C
Boiling point: 3.56 C
Class: IUPAC A
Instrument: IFS66V (Bruker)
Instrument parameters: KBr Beam splitter; MCT Detector; Multipass cell
Sampling: 1 L/min Flow
Resolution: 1.9290
Temperature: 23 C
Pressure: 101.3 kPa
Origin: NIST, Anayltical Chemistry Division, 301-975-3108
cm-1	(micromol/mol)-1m-1 (base 10)
574.687	6.41877e-06
583.365	1.76295e-05
592.043	3.40086e-05
600.721	3.67055e-05
609.4	4.22625e-05
618.078	4.3447e-05
626.756	4.1461e-05
635.434	9.38921e-06
644.112	5.27116e-07
652.79	2.00473e-07
661.469	1.61938e-07
670.147	6.63201e-08
678.825	6.50515e-08
687.503	1.06644e-07
696.181	7.89467e-08
704.859	5.2783e-08
713.537	7.97722e-08
722.216	4.37369e-08
730.894	5.36158e-08
739.572	6.61709e-08
748.25	6.53176e-08
756.928	7.58332e-08
765.606	3.3819e-08
774.285	4.4764e-08
782.963	8.91983e-08
791.641	7.49694e-08
800.319	6.46201e-08
808.997	8.7795e-08
817.675	8.73552e-09
826.353	5.64217e-08
835.032	6.81673e-08
843.71	1.43978e-07
852.388	2.24796e-07
861.066	4.03272e-07
869.744	7.4183e-07
878.422	1.58619e-06
887.101	1.84358e-06
895.779	2.29948e-06
904.457	4.08701e-06
913.135	1.27398e-05
921.813	6.03643e-06
930.491	7.58131e-06
939.169	6.98749e-06
947.848	1.01086e-05
956.526	3.27375e-05
965.204	1.61803e-05
973.882	7.51139e-06
982.56	7.42221e-06
991.238	6.87566e-06
999.917	6.5485e-06
1008.59	5.58879e-06
1017.27	5.0522e-06
1025.95	5.58083e-06
1034.63	2.87497e-06
1043.31	1.48326e-06
1051.99	7.62381e-07
1060.66	5.72022e-07
1069.34	3.10466e-07
1078.02	1.66875e-07
1086.7	1.38571e-07
1095.38	8.3485e-08
1104.05	6.59449e-08
1112.73	4.93384e-08
1121.41	6.19611e-08
1130.09	4.85746e-08
1138.77	2.69442e-08
1147.45	3.63019e-08
1156.12	7.43072e-08
1164.8	8.07919e-08
1173.48	1.01859e-07
1182.16	1.36498e-07
1190.84	1.84904e-07
1199.51	2.51755e-07
1208.19	2.4504e-07
1216.87	2.01708e-07
1225.55	4.20343e-07
1234.23	2.17852e-07
1242.9	2.48687e-07
1251.58	4.84408e-07
1260.26	1.80111e-06
1268.94	6.62853e-06
1277.62	2.06214e-05
1286.3	4.55468e-05
1294.97	5.86823e-05
1303.65	1.90926e-05
1312.33	5.03256e-05
1321.01	6.73075e-05
1329.69	2.24153e-05
1338.36	6.72574e-06
1347.04	1.63194e-06
1355.72	2.74932e-06
1364.4	9.39124e-06
1373.08	3.44743e-06
1381.76	3.51236e-06
1390.43	9.16843e-06
1399.11	6.97702e-06
1407.79	6.22084e-06
1416.47	7.12487e-06
1425.15	1.56657e-05
1433.82	8.00997e-06
1442.5	7.26031e-06
1451.18	2.50883e-05
1459.86	9.51523e-06
1468.54	7.87637e-06
1477.22	8.15466e-06
1485.89	4.24242e-05
1494.57	8.33931e-06
1503.25	6.6108e-06
1511.93	5.04654e-06
1520.61	2.07463e-05
1529.28	4.98395e-06
1537.96	4.12437e-06
1546.64	2.15092e-06
1555.32	3.07207e-06
1564	2.40895e-06
1572.67	1.40461e-06
1581.35	7.51252e-07
1590.03	5.52987e-07
1598.71	5.90645e-07
1607.39	5.70051e-07
1616.07	3.52397e-07
1624.74	2.48348e-07
1633.42	2.15192e-07
1642.1	1.38178e-07
1650.78	1.10052e-07
1659.46	6.50011e-08
1668.13	6.42772e-08
1676.81	4.72695e-08
1685.49	8.83661e-08
1694.17	4.37759e-08
1702.85	2.39257e-08
1711.53	2.6894e-08
1720.2	4.11665e-08
1728.88	2.71968e-08
1737.56	3.4286e-08
1746.24	3.59745e-08
1754.92	4.7793e-08
1763.59	4.82221e-08
1772.27	6.00454e-08
1780.95	1.45381e-08
1789.63	2.87951e-08
1798.31	1.70695e-08
1806.98	1.93697e-08
1815.66	1.66894e-08
1824.34	-1.72791e-09
1833.02	2.62415e-08
1841.7	1.82131e-08
1850.38	4.28678e-08
1859.05	3.26237e-08
1867.73	-3.13989e-09
1876.41	1.40909e-07
1885.09	2.27843e-07
1893.77	3.98949e-07
1902.44	3.58652e-07
1911.12	3.43561e-07
1919.8	5.0516e-07
1928.48	3.62119e-07
1937.16	4.1636e-08
1945.84	1.96797e-08
1954.51	-4.32666e-09
1963.19	2.56584e-08
1971.87	-4.06871e-09
1980.55	2.10756e-08
1989.23	-2.47431e-08
1997.9	9.62193e-09
2006.58	2.66583e-08
2015.26	6.93303e-09
2023.94	1.2766e-08
2032.62	1.34758e-08
2041.3	1.1248e-08
2049.97	2.8102e-09
2058.65	2.58648e-08
2067.33	2.64877e-09
2076.01	1.60412e-08
2084.69	1.61199e-08
2093.36	2.29837e-08
2102.04	1.42618e-08
2110.72	4.62004e-08
2119.4	6.35211e-08
2128.08	3.78684e-08
2136.75	1.9657e-08
2145.43	1.7748e-08
2154.11	6.70805e-08
2162.79	9.00913e-08
2171.47	1.16796e-07
2180.15	2.25248e-07
2188.82	2.70906e-07
2197.5	3.16226e-07
2206.18	4.56141e-07
2214.86	8.93995e-07
2223.54	6.35568e-07
2232.21	7.57947e-07
2240.89	7.38435e-07
2249.57	9.64951e-07
2258.25	1.83586e-06
2266.93	1.11263e-06
2275.61	7.11311e-07
2284.28	4.94776e-07
2292.96	5.0266e-07
2301.64	4.28783e-07
2310.32	3.67877e-07
2319	4.52947e-07
2327.67	5.37693e-07
2336.35	5.89563e-07
2345.03	8.97752e-07
2353.71	7.73619e-07
2362.39	8.24935e-07
2371.06	6.69829e-07
2379.74	5.81839e-07
2388.42	5.65985e-07
2397.1	6.26779e-07
2405.78	5.61335e-07
2414.46	9.05132e-07
2423.13	1.74382e-06
2431.81	5.22726e-07
2440.49	3.30351e-07
2449.17	2.61897e-07
2457.85	2.23226e-07
2466.52	1.90941e-07
2475.2	1.73742e-07
2483.88	1.39671e-07
2492.56	1.49048e-07
2501.24	1.25083e-07
2509.92	9.60847e-08
2518.59	1.50808e-07
2527.27	2.7999e-08
2535.95	-5.88484e-09
2544.63	-2.65877e-09
2553.31	-2.33397e-10
2561.98	1.01329e-07
2570.66	3.44538e-07
2579.34	7.02891e-07
2588.02	7.66671e-07
2596.7	6.64999e-07
2605.38	1.378e-06
2614.05	1.25866e-06
2622.73	-1.56176e-07
2631.41	-3.20433e-07
2640.09	-2.87812e-07
2648.77	-2.39167e-07
2657.44	-1.51147e-07
2666.12	2.97799e-08
2674.8	1.38459e-08
2683.48	2.00544e-08
2692.16	6.79096e-08
2700.83	4.06571e-08
2709.51	6.64225e-08
2718.19	7.23008e-08
2726.87	5.65091e-08
2735.55	7.61692e-08
2744.23	8.18478e-08
2752.9	-9.93888e-08
2761.58	7.5794e-08
2770.26	6.87055e-08
2778.94	2.78121e-09
2787.62	1.72707e-07
2796.29	7.82492e-08
2804.97	1.08321e-07
2813.65	1.65941e-07
2822.33	4.31639e-07
2831.01	1.41118e-06
2839.69	5.74065e-06
2848.36	1.10108e-05
2857.04	5.9943e-06
2865.72	6.38908e-06
2874.4	9.83257e-06
2883.08	6.14617e-06
2891.75	2.40445e-06
2900.43	4.52506e-07
2909.11	2.7013e-07
2917.79	2.97821e-07
2926.47	9.78054e-07
2935.14	4.19941e-06
2943.82	1.74426e-05
2952.5	4.65021e-05
2961.18	5.96015e-05
2969.86	4.47471e-05
2978.54	5.82245e-05
2987.21	6.42613e-05
2995.89	3.29926e-05
3004.57	1.20055e-05
3013.25	4.7636e-06
3021.93	4.18373e-06
3030.6	4.3971e-06
3039.28	3.72937e-06
3047.96	4.27691e-06
3056.64	4.02828e-06
3065.32	4.68767e-06
3074	4.75559e-06
3082.67	4.1572e-06
3091.35	4.5002e-06
3100.03	4.25114e-06
3108.71	3.25031e-06
3117.39	2.93027e-06
3126.06	2.41333e-06
3134.74	1.56509e-06
3143.42	1.09016e-06
3152.1	1.00993e-06
3160.78	6.2457e-07
3169.46	3.56105e-07
3178.13	3.47048e-07
3186.81	3.2738e-07
3195.49	1.73559e-07
3204.17	1.34969e-07
3212.85	1.44616e-07
3221.52	1.57316e-07
3230.2	3.24007e-08
3238.88	2.02469e-08
3247.56	4.92034e-08
3256.24	6.18247e-09
3264.91	2.14867e-08
3273.59	3.89094e-08
3282.27	3.26261e-08
3290.95	5.04876e-08
3299.63	4.11319e-08
3308.31	-9.78711e-09
3316.98	3.16259e-08
3325.66	5.16662e-08
3334.34	4.80731e-08
3343.02	4.2087e-08
3351.7	4.44998e-08
3360.37	1.59874e-08
3369.05	6.49693e-09
3377.73	4.50103e-08
3386.41	1.26872e-08
3395.09	3.00852e-08
3403.77	3.18388e-08
3412.44	4.66898e-08
3421.12	2.97135e-08
3429.8	4.8917e-08
3438.48	4.94706e-08
3447.16	5.39895e-08
3455.83	8.73418e-08
3464.51	8.44473e-08
3473.19	8.03559e-08
3481.87	6.49064e-08
3490.55	6.02886e-08
3499.22	5.44664e-08
3507.9	4.98485e-08
3516.58	1.50982e-08
3525.26	3.90625e-08
3533.94	7.45402e-08
3542.62	1.07875e-07
3551.29	2.185e-07
3559.97	4.01777e-07
3568.65	5.7231e-07
3577.33	4.47361e-07
3586.01	4.98819e-07
3594.68	6.87764e-07
3603.36	4.49422e-07
3612.04	1.68112e-07
3620.72	1.0113e-07
3629.4	1.51361e-07
3638.08	8.94095e-08
3646.75	1.89567e-07
3655.43	1.89176e-07
3664.11	2.50237e-07
3672.79	3.72299e-07
3681.47	2.88373e-07
3690.14	2.54566e-07
3698.82	3.04411e-07
3707.5	1.79655e-07
3716.18	1.48048e-07
3724.86	1.73706e-07
3733.54	1.23166e-07
3742.21	9.14089e-08
3750.89	7.21937e-08
3759.57	7.50168e-08
3768.25	7.88541e-08
3776.93	5.01775e-08
3785.6	8.41292e-08
3794.28	1.09667e-07
3802.96	1.03952e-07
3811.64	1.05994e-07
3820.32	2.01121e-07
3828.99	1.43071e-07
3837.67	2.07319e-07
3846.35	1.70506e-07
3855.03	2.68284e-07
3863.71	3.02863e-07
3872.39	2.34066e-07
3881.06	3.93723e-07
3889.74	5.5362e-07
3898.42	2.44886e-07
3907.1	2.50567e-07
3915.78	2.60592e-07
3924.45	1.94516e-07
3933.13	1.69897e-07
3941.81	3.17618e-07
3950.49	2.6414e-07
3959.17	2.01469e-07
3967.85	3.41397e-07
