Infrared Spectrum: Bromomethane
Formula: C H3 Br
CAS: 74-83-9
State: gas
Melting point: -93.6 C
Boiling point: 3.56 C
Class: IUPAC A
Instrument: IFS66V (Bruker)
Instrument parameters: KBr Beam splitter; MCT Detector; Multipass cell
Sampling: 1 L/min Flow
Resolution: 0.2410
Temperature: 23 C
Pressure: 101.3 kPa
Origin: NIST, Anayltical Chemistry Division, 301-975-3108
cm-1	(micromol/mol)-1m-1 (base 10)
575.048	9.40458e-06
583.606	1.5275e-05
592.163	3.70164e-05
600.721	3.15058e-05
609.279	5.09928e-05
617.836	4.75866e-05
626.394	4.43655e-05
634.951	1.04451e-05
643.509	1.76636e-07
652.067	1.72292e-07
660.624	5.87761e-08
669.182	7.98555e-08
677.74	1.51874e-07
686.297	8.30264e-09
694.855	-1.47605e-07
703.412	2.73753e-09
711.97	-5.06467e-08
720.528	1.74302e-07
729.085	-1.17978e-08
737.643	1.35095e-07
746.201	9.87086e-08
754.758	-8.4236e-08
763.316	-3.04812e-09
771.873	4.30893e-08
780.431	6.22348e-08
788.989	-2.63385e-09
797.546	-1.26568e-08
806.104	1.06881e-07
814.662	-3.8386e-08
823.219	4.84298e-08
831.777	8.87607e-09
840.334	7.67042e-08
848.892	1.15847e-07
857.45	3.02458e-07
866.007	5.36365e-07
874.565	6.49697e-07
883.123	1.8546e-06
891.68	4.26024e-06
900.238	2.70833e-06
908.795	4.9354e-06
917.353	4.51597e-06
925.911	6.36438e-06
934.468	2.94961e-05
943.026	6.45916e-06
951.584	7.34309e-06
960.141	6.7957e-06
968.699	7.92541e-06
977.256	7.32923e-06
985.814	9.86812e-06
994.372	1.08735e-05
1002.93	2.82334e-05
1011.49	4.03015e-06
1020.04	2.70026e-06
1028.6	1.70782e-06
1037.16	1.31556e-06
1045.72	8.39391e-07
1054.28	3.86115e-07
1062.83	3.18323e-07
1071.39	2.92763e-07
1079.95	1.37135e-07
1088.51	1.07451e-07
1097.06	7.20704e-08
1105.62	-3.072e-08
1114.18	7.3898e-08
1122.74	7.25078e-08
1131.29	2.75463e-08
1139.85	3.60927e-08
1148.41	3.32497e-08
1156.97	6.59955e-08
1165.52	3.72882e-08
1174.08	6.33412e-08
1182.64	1.75943e-07
1191.2	9.62412e-08
1199.75	2.01469e-07
1208.31	1.85177e-07
1216.87	1.48884e-07
1225.43	4.15272e-07
1233.99	1.11293e-07
1242.54	2.04825e-07
1251.1	3.16627e-07
1259.66	1.77433e-06
1268.22	6.69383e-06
1276.77	1.82492e-05
1285.33	3.73088e-05
1293.89	7.57538e-05
1302.45	2.0597e-05
1311	4.39979e-05
1319.56	7.80159e-05
1328.12	2.83461e-05
1336.68	3.78857e-06
1345.23	2.12551e-06
1353.79	3.04471e-06
1362.35	2.43962e-06
1370.91	2.87619e-06
1379.46	3.94513e-06
1388.02	4.77526e-06
1396.58	4.10298e-06
1405.14	4.59754e-06
1413.7	0.000106828
1422.25	6.06107e-06
1430.81	6.26184e-06
1439.37	1.10222e-05
1447.93	6.07992e-06
1456.48	7.45528e-06
1465.04	6.04157e-06
1473.6	9.89665e-06
1482.16	9.50971e-06
1490.71	6.3787e-06
1499.27	7.42372e-06
1507.83	7.69214e-06
1516.39	8.82235e-06
1524.94	6.36835e-06
1533.5	3.69094e-06
1542.06	3.63265e-06
1550.62	2.23113e-06
1559.18	1.16183e-06
1567.73	1.17316e-06
1576.29	1.19463e-06
1584.85	1.07404e-06
1593.41	3.56744e-07
1601.96	5.27251e-07
1610.52	4.60616e-07
1619.08	2.71879e-07
1627.64	1.74854e-07
1636.19	8.83864e-08
1644.75	7.9911e-08
1653.31	2.80073e-07
1661.87	2.4149e-08
1670.42	-5.31182e-09
1678.98	3.06035e-08
1687.54	4.56109e-08
1696.1	1.13797e-07
1704.65	6.4835e-08
1713.21	1.62529e-08
1721.77	6.0676e-08
1730.33	6.16427e-08
1738.89	-3.38886e-08
1747.44	-1.29192e-08
1756	4.53376e-08
1764.56	1.95907e-08
1773.12	2.14023e-08
1781.67	9.27306e-09
1790.23	3.29236e-08
1798.79	1.67262e-08
1807.35	2.81821e-08
1815.9	5.23906e-09
1824.46	-5.32432e-08
1833.02	2.46733e-08
1841.58	3.85483e-08
1850.13	5.04075e-08
1858.69	4.08929e-08
1867.25	1.21193e-08
1875.81	9.10776e-08
1884.36	1.52179e-07
1892.92	5.31655e-07
1901.48	3.83405e-07
1910.04	2.30481e-07
1918.6	4.03871e-07
1927.15	4.04544e-07
1935.71	4.70415e-08
1944.27	-4.86977e-08
1952.83	-1.9572e-09
1961.38	2.39703e-08
1969.94	1.3132e-08
1978.5	4.18224e-09
1987.06	1.31192e-09
1995.61	3.56884e-08
2004.17	-3.11224e-08
2012.73	-7.67738e-09
2021.29	-3.9551e-08
2029.84	3.09769e-09
2038.4	1.54034e-08
2046.96	1.92819e-08
2055.52	6.48764e-08
2064.08	3.52683e-08
2072.63	-1.0097e-08
2081.19	8.81468e-09
2089.75	2.50912e-08
2098.31	-5.87433e-09
2106.86	6.87749e-09
2115.42	1.01201e-07
2123.98	-6.3218e-09
2132.54	6.05668e-09
2141.09	4.77982e-08
2149.65	-6.69059e-09
2158.21	2.16079e-07
2166.77	5.18344e-08
2175.32	1.01295e-07
2183.88	1.41014e-07
2192.44	2.86433e-07
2201	3.97817e-07
2209.55	5.69686e-07
2218.11	3.91977e-07
2226.67	6.41046e-07
2235.23	1.34224e-06
2243.79	1.312e-06
2252.34	7.10293e-07
2260.9	6.228e-07
2269.46	6.62236e-07
2278.02	6.76855e-07
2286.57	6.51778e-07
2295.13	7.77773e-07
2303.69	6.31085e-07
2312.25	4.08439e-07
2320.8	5.10619e-07
2329.36	3.85453e-07
2337.92	5.00263e-07
2346.48	3.53651e-07
2355.03	1.91951e-06
2363.59	6.53815e-07
2372.15	5.67569e-07
2380.71	5.7126e-07
2389.26	5.47006e-07
2397.82	5.4315e-07
2406.38	5.63918e-07
2414.94	3.63913e-07
2423.5	5.75273e-06
2432.05	3.29444e-07
2440.61	3.22326e-07
2449.17	2.6094e-07
2457.73	1.8539e-07
2466.28	1.76296e-07
2474.84	2.00152e-07
2483.4	1.04026e-07
2491.96	1.60129e-07
2500.51	1.10072e-07
2509.07	8.90354e-08
2517.63	1.98585e-07
2526.19	2.06725e-08
2534.74	-5.67084e-08
2543.3	-7.68893e-08
2551.86	3.33779e-10
2560.42	1.52225e-07
2568.98	3.93208e-07
2577.53	4.592e-07
2586.09	6.9605e-07
2594.65	2.48411e-08
2603.21	9.60008e-07
2611.76	1.17436e-06
2620.32	-7.68329e-09
2628.88	-2.95292e-07
2637.44	-3.44609e-07
2645.99	-2.86733e-07
2654.55	-1.58471e-07
2663.11	-2.00554e-08
2671.67	6.48714e-08
2680.22	3.31173e-08
2688.78	4.81761e-08
2697.34	5.30509e-08
2705.9	1.6899e-08
2714.45	1.18896e-07
2723.01	8.12989e-08
2731.57	2.21768e-08
2740.13	1.98816e-07
2748.69	3.61423e-08
2757.24	8.40546e-08
2765.8	6.60828e-09
2774.36	1.58684e-07
2782.92	1.13172e-07
2791.47	9.2209e-08
2800.03	1.78195e-07
2808.59	1.44702e-07
2817.15	1.77802e-07
2825.7	3.80901e-07
2834.26	2.28994e-06
2842.82	7.53928e-06
2851.38	9.4813e-06
2859.93	7.77001e-06
2868.49	1.04107e-05
2877.05	9.15443e-06
2885.61	4.92466e-06
2894.16	1.86932e-06
2902.72	3.93809e-07
2911.28	2.47372e-07
2919.84	2.23783e-07
2928.4	1.03453e-06
2936.95	5.21553e-06
2945.51	2.00802e-05
2954.07	5.18114e-05
2962.63	5.36693e-05
2971.18	2.59444e-05
2979.74	5.91234e-05
2988.3	6.29122e-05
2996.86	3.4361e-05
3005.41	1.06403e-05
3013.97	4.34748e-06
3022.53	3.86714e-06
3031.09	3.54918e-06
3039.64	3.53208e-06
3048.2	3.95423e-06
3056.76	4.0482e-06
3065.32	2.83108e-06
3073.88	5.29477e-06
3082.43	3.62069e-06
3090.99	4.72966e-06
3099.55	3.73148e-06
3108.11	2.52081e-06
3116.66	2.31826e-06
3125.22	2.83258e-06
3133.78	1.68379e-06
3142.34	9.72763e-07
3150.89	6.60894e-07
3159.45	7.86296e-07
3168.01	2.49586e-07
3176.57	4.6163e-07
3185.12	2.54204e-07
3193.68	1.72923e-07
3202.24	1.13401e-07
3210.8	1.01486e-07
3219.35	1.41716e-07
3227.91	3.90267e-08
3236.47	2.74527e-08
3245.03	6.02076e-08
3253.59	7.7952e-08
3262.14	4.73257e-08
3270.7	-7.30704e-08
3279.26	4.24527e-08
3287.82	1.76266e-08
3296.37	7.72922e-08
3304.93	3.29459e-09
3313.49	5.6938e-08
3322.05	1.20151e-07
3330.6	1.11389e-07
3339.16	9.59019e-08
3347.72	-1.44975e-07
3356.28	2.35164e-08
3364.83	1.0252e-07
3373.39	8.45998e-08
3381.95	9.39052e-08
3390.51	9.2294e-09
3399.06	-4.59151e-09
3407.62	8.65789e-08
3416.18	-2.77696e-08
3424.74	1.47187e-07
3433.3	7.0843e-08
3441.85	4.60206e-08
3450.41	1.271e-07
3458.97	8.54188e-08
3467.53	5.95382e-08
3476.08	-3.97284e-08
3484.64	-3.08937e-08
3493.2	3.2217e-08
3501.76	-7.2155e-08
3510.31	4.00462e-08
3518.87	1.38378e-07
3527.43	3.19764e-08
3535.99	1.03992e-07
3544.54	9.37019e-08
3553.1	3.48973e-07
3561.66	4.19467e-07
3570.22	5.46801e-07
3578.78	4.42426e-07
3587.33	4.50588e-07
3595.89	7.1981e-07
3604.45	4.1692e-07
3613.01	2.69435e-07
3621.56	2.60712e-08
3630.12	6.2444e-08
3638.68	2.81825e-08
3647.24	9.68965e-08
3655.79	2.11343e-07
3664.35	3.06296e-07
3672.91	3.87397e-07
3681.47	3.27364e-07
3690.02	2.8038e-07
3698.58	3.67609e-07
3707.14	1.76528e-07
3715.7	2.09605e-07
3724.25	2.00398e-07
3732.81	1.07262e-07
3741.37	1.28557e-07
3749.93	1.42129e-07
3758.49	-1.54457e-08
3767.04	1.74052e-07
3775.6	7.10377e-08
3784.16	7.37966e-08
3792.72	6.85166e-08
3801.27	2.21744e-07
3809.83	1.56013e-07
3818.39	1.19856e-07
3826.95	2.82816e-07
3835.5	1.66971e-07
3844.06	6.99185e-08
3852.62	1.2161e-07
3861.18	2.35127e-07
3869.73	3.01334e-07
3878.29	2.71156e-07
3886.85	6.60124e-07
3895.41	1.33693e-07
3903.96	2.8114e-07
3912.52	2.19714e-07
3921.08	3.27162e-07
3929.64	3.94535e-07
3938.2	3.13205e-07
3946.75	2.36764e-07
3955.31	8.16067e-08
3963.87	3.30672e-07
3972.43	6.04652e-07
