Infrared Spectrum: Bromomethane
Formula: C H3 Br
CAS: 74-83-9
State: gas
Melting point: -93.6 C
Boiling point: 3.56 C
Class: IUPAC A
Instrument: IFS66V (Bruker)
Instrument parameters: KBr Beam splitter; MCT Detector; Multipass cell
Sampling: 1 L/min Flow
Resolution: 0.9640
Temperature: 23 C
Pressure: 101.3 kPa
Origin: NIST, Anayltical Chemistry Division, 301-975-3108
cm-1	(micromol/mol)-1m-1 (base 10)
575.169	6.99769e-06
583.847	1.8545e-05
592.525	3.52999e-05
601.203	3.63336e-05
609.882	5.03704e-05
618.56	4.68094e-05
627.238	4.06276e-05
635.916	7.77725e-06
644.594	1.91707e-07
653.272	1.76543e-07
661.951	1.27681e-07
670.629	-1.57665e-08
679.307	3.15066e-08
687.985	5.96074e-08
696.663	1.30076e-07
705.341	4.84772e-08
714.019	1.01309e-07
722.698	4.55302e-08
731.376	4.00119e-08
740.054	1.86369e-08
748.732	4.81926e-08
757.41	9.09372e-08
766.088	2.84125e-08
774.767	9.35457e-08
783.445	4.56705e-08
792.123	7.04293e-08
800.801	9.21208e-08
809.479	1.43155e-08
818.157	-4.85043e-08
826.835	1.00082e-07
835.514	2.4207e-09
844.192	1.01207e-07
852.87	1.93848e-07
861.548	3.87854e-07
870.226	7.95068e-07
878.904	1.79715e-06
887.583	1.57465e-06
896.261	2.26398e-06
904.939	4.46364e-06
913.617	1.68499e-05
922.295	4.74233e-06
930.973	7.94152e-06
939.651	5.62171e-06
948.33	1.21584e-05
957.008	6.95407e-05
965.686	7.0344e-06
974.364	6.9352e-06
983.042	7.6636e-06
991.72	7.33685e-06
1000.4	5.79704e-06
1009.08	5.89145e-06
1017.75	5.68087e-06
1026.43	9.2368e-06
1035.11	1.97883e-06
1043.79	1.33519e-06
1052.47	7.50022e-07
1061.15	6.03451e-07
1069.82	3.0329e-07
1078.5	1.54412e-07
1087.18	1.96796e-07
1095.86	9.02556e-08
1104.54	7.37081e-08
1113.21	6.73686e-08
1121.89	6.44895e-08
1130.57	5.65317e-08
1139.25	4.65954e-08
1147.93	5.99923e-08
1156.61	1.05583e-07
1165.28	8.37321e-08
1173.96	9.49912e-08
1182.64	2.09897e-07
1191.32	1.6019e-07
1200	2.6681e-07
1208.67	2.50211e-07
1217.35	1.48063e-07
1226.03	4.29682e-07
1234.71	1.83362e-07
1243.39	1.41821e-07
1252.07	3.56868e-07
1260.74	1.67278e-06
1269.42	6.78916e-06
1278.1	2.16201e-05
1286.78	4.76857e-05
1295.46	5.94887e-05
1304.13	1.20431e-05
1312.81	5.46363e-05
1321.49	6.71129e-05
1330.17	1.96839e-05
1338.85	9.84453e-06
1347.52	1.11362e-06
1356.2	2.55638e-06
1364.88	8.05653e-06
1373.56	2.51169e-06
1382.24	3.11339e-06
1390.92	5.22845e-06
1399.59	4.62029e-06
1408.27	5.51943e-06
1416.95	7.29225e-06
1425.63	2.03555e-05
1434.31	9.17279e-06
1442.98	8.50976e-06
1451.66	-8.28556e-07
1460.34	7.27432e-06
1469.02	6.39407e-06
1477.7	4.16038e-06
1486.38	5.79819e-05
1495.05	5.28838e-06
1503.73	6.56127e-06
1512.41	5.44929e-06
1521.09	1.63927e-05
1529.77	5.95822e-06
1538.44	4.10084e-06
1547.12	2.46653e-06
1555.8	3.28881e-07
1564.48	9.68246e-07
1573.16	1.28517e-06
1581.83	6.22316e-07
1590.51	5.51977e-07
1599.19	6.86661e-07
1607.87	6.25155e-07
1616.55	4.73823e-07
1625.23	2.68945e-07
1633.9	1.9951e-07
1642.58	1.64959e-07
1651.26	1.10117e-07
1659.94	5.35701e-08
1668.62	5.63721e-08
1677.29	7.01485e-08
1685.97	1.13939e-07
1694.65	5.81778e-08
1703.33	2.03201e-08
1712.01	3.50857e-08
1720.69	2.64549e-08
1729.36	4.18301e-08
1738.04	3.09619e-08
1746.72	7.79299e-08
1755.4	4.52446e-08
1764.08	4.79116e-08
1772.75	1.1073e-07
1781.43	-9.36337e-09
1790.11	5.39259e-08
1798.79	3.08055e-08
1807.47	3.58112e-08
1816.15	4.24845e-09
1824.82	-1.09628e-08
1833.5	-7.61042e-09
1842.18	4.54356e-08
1850.86	3.29076e-08
1859.54	2.68535e-08
1868.21	1.85071e-09
1876.89	1.52598e-07
1885.57	2.64135e-07
1894.25	4.07373e-07
1902.93	3.61704e-07
1911.6	4.65101e-07
1920.28	5.93408e-07
1928.96	3.27635e-07
1937.64	6.27661e-08
1946.32	2.04908e-08
1955	5.82292e-09
1963.67	1.66714e-08
1972.35	-3.98048e-08
1981.03	1.13437e-08
1989.71	-2.38883e-08
1998.39	3.87512e-09
2007.06	4.3863e-08
2015.74	3.93133e-08
2024.42	2.66173e-08
2033.1	5.41412e-08
2041.78	1.37066e-08
2050.46	2.90746e-08
2059.13	5.86866e-08
2067.81	1.99031e-08
2076.49	3.48479e-08
2085.17	1.4838e-08
2093.85	3.89152e-08
2102.52	-1.87279e-08
2111.2	7.61645e-08
2119.88	1.48118e-07
2128.56	3.48679e-09
2137.24	2.51547e-08
2145.91	5.0684e-08
2154.59	1.62767e-07
2163.27	1.06458e-07
2171.95	8.81509e-08
2180.63	1.74077e-07
2189.31	2.07548e-07
2197.98	2.86317e-07
2206.66	5.06833e-07
2215.34	1.1267e-06
2224.02	5.95811e-07
2232.7	7.90275e-07
2241.37	7.63831e-07
2250.05	1.05537e-06
2258.73	2.3021e-06
2267.41	7.53564e-07
2276.09	5.11933e-07
2284.77	5.12923e-07
2293.44	4.9766e-07
2302.12	3.94419e-07
2310.8	3.11291e-07
2319.48	4.90129e-07
2328.16	5.20013e-07
2336.83	1.09934e-07
2345.51	7.52138e-07
2354.19	9.92884e-07
2362.87	1.22064e-06
2371.55	8.39364e-07
2380.23	5.2277e-07
2388.9	4.87397e-07
2397.58	5.00727e-07
2406.26	5.52122e-07
2414.94	4.76173e-07
2423.62	3.74416e-06
2432.29	2.40855e-07
2440.97	3.05817e-07
2449.65	2.90529e-07
2458.33	3.30081e-07
2467.01	2.93221e-07
2475.68	1.80419e-07
2484.36	2.09766e-07
2493.04	1.81687e-07
2501.72	1.92675e-07
2510.4	1.63606e-07
2519.08	1.95409e-07
2527.75	8.98686e-08
2536.43	2.71136e-08
2545.11	4.71422e-08
2553.79	1.23227e-07
2562.47	1.15229e-07
2571.14	3.56471e-07
2579.82	7.77708e-07
2588.5	8.42058e-07
2597.18	1.27808e-06
2605.86	1.65583e-06
2614.54	1.36335e-06
2623.21	-1.49188e-07
2631.89	-2.81984e-07
2640.57	-2.32765e-07
2649.25	-1.84201e-07
2657.93	-9.78398e-08
2666.6	1.51204e-07
2675.28	7.86447e-08
2683.96	3.45464e-08
2692.64	1.29449e-07
2701.32	1.24485e-07
2709.99	1.57088e-07
2718.67	1.38663e-07
2727.35	7.40753e-08
2736.03	1.44862e-07
2744.71	1.55328e-07
2753.39	-4.75203e-08
2762.06	1.61077e-07
2770.74	1.38197e-07
2779.42	1.33143e-07
2788.1	2.08251e-07
2796.78	1.88616e-07
2805.45	1.71353e-07
2814.13	2.66367e-07
2822.81	5.43638e-07
2831.49	1.54199e-06
2840.17	6.29611e-06
2848.85	1.20198e-05
2857.52	5.85624e-06
2866.2	7.02146e-06
2874.88	9.97163e-06
2883.56	6.07721e-06
2892.24	2.32635e-06
2900.91	9.63495e-07
2909.59	2.89088e-07
2918.27	3.72704e-07
2926.95	1.14756e-06
2935.63	4.5598e-06
2944.31	1.87115e-05
2952.98	4.91827e-05
2961.66	6.19518e-05
2970.34	3.31088e-05
2979.02	5.96404e-05
2987.7	6.4518e-05
2996.37	3.39837e-05
3005.05	8.57969e-06
3013.73	3.98356e-06
3022.41	4.03837e-06
3031.09	2.96698e-06
3039.76	3.32077e-06
3048.44	4.99353e-06
3057.12	1.21643e-06
3065.8	5.17416e-06
3074.48	6.38328e-06
3083.16	5.64145e-06
3091.83	3.83529e-06
3100.51	3.56003e-06
3109.19	3.14288e-06
3117.87	2.06514e-06
3126.55	1.43853e-06
3135.22	1.04363e-06
3143.9	5.5617e-07
3152.58	5.96647e-07
3161.26	2.22507e-07
3169.94	1.21616e-07
3178.62	2.72241e-09
3187.29	2.33504e-07
3195.97	-2.00986e-09
3204.65	-6.74004e-08
3213.33	-2.0657e-08
3222.01	-5.14575e-08
3230.68	-1.55125e-07
3239.36	-9.88552e-08
3248.04	-6.30365e-08
3256.72	-1.29344e-07
3265.4	-1.46113e-07
3274.07	-6.36549e-08
3282.75	-6.56127e-08
3291.43	-1.91642e-08
3300.11	1.42957e-08
3308.79	-2.05797e-08
3317.47	-5.23328e-08
3326.14	1.79999e-08
3334.82	-5.25247e-09
3343.5	-4.96295e-08
3352.18	-3.92562e-08
3360.86	-3.51133e-08
3369.53	4.78775e-09
3378.21	-1.13632e-08
3386.89	-1.45324e-08
3395.57	-9.72883e-08
3404.25	-6.61943e-08
3412.93	-4.67022e-08
3421.6	-4.69371e-08
3430.28	2.90764e-08
3438.96	-8.13299e-08
3447.64	2.5051e-08
3456.32	-3.36761e-08
3464.99	-2.73607e-08
3473.67	2.08021e-08
3482.35	4.12449e-08
3491.03	6.51395e-08
3499.71	2.17677e-08
3508.39	3.87644e-08
3517.06	-6.14393e-08
3525.74	3.6615e-08
3534.42	-1.41197e-08
3543.1	9.05975e-08
3551.78	1.21757e-07
3560.45	3.80168e-07
3569.13	5.35209e-07
3577.81	4.10686e-07
3586.49	4.95012e-07
3595.17	6.42186e-07
3603.84	4.53353e-07
3612.52	8.22068e-08
3621.2	9.31774e-08
3629.88	1.40215e-07
3638.56	3.99137e-08
3647.24	1.05315e-07
3655.91	1.12176e-07
3664.59	2.49106e-07
3673.27	3.30144e-07
3681.95	2.60457e-07
3690.63	2.45742e-07
3699.3	2.5261e-07
3707.98	6.26945e-08
3716.66	1.21925e-07
3725.34	1.74321e-07
3734.02	8.42367e-08
3742.7	1.84646e-08
3751.37	4.23181e-08
3760.05	4.56775e-08
3768.73	2.4571e-08
3777.41	-4.06495e-08
3786.09	8.82407e-08
3794.76	5.60761e-08
3803.44	8.12862e-08
3812.12	7.95653e-08
3820.8	2.76141e-07
3829.48	8.9867e-08
3838.16	3.034e-07
3846.83	2.11056e-07
3855.51	2.21244e-07
3864.19	2.21234e-07
3872.87	1.41259e-07
3881.55	3.54807e-07
3890.22	4.87482e-07
3898.9	2.47874e-07
3907.58	1.8521e-07
3916.26	1.49351e-07
3924.94	1.69812e-07
3933.61	1.40569e-07
3942.29	3.94992e-07
3950.97	3.09438e-07
3959.65	1.7399e-07
3968.33	4.08795e-07
