Infrared Spectrum: Ethene
Formula: C H2: C H2
CAS: 74-85-1
State: gas
Melting point: -169.15 C
Boiling point: -103.71 C
Class: IUPAC A
Instrument: IFS66V (Bruker)
Instrument parameters: KBr Beam splitter; MCT Detector; Multipass cell
Sampling: 1 L/min Flow
Resolution: 0.1250
Temperature: 23 C
Pressure: 101.3 kPa
Origin: NIST, Anayltical Chemistry Division, 301-975-3108
cm-1	(micromol/mol)-1m-1 (base 10)
574.988	-2.98416e-07
583.546	1.9587e-07
592.103	-4.24635e-07
600.661	-3.0817e-07
609.219	-5.66481e-07
617.776	-6.83645e-08
626.334	-4.32955e-07
634.891	-6.67402e-08
643.449	-1.83233e-07
652.007	-3.51578e-07
660.564	-1.59386e-07
669.122	7.69301e-08
677.68	4.25738e-07
686.237	1.05288e-07
694.795	-5.22156e-08
703.352	8.58528e-07
711.91	1.1562e-06
720.468	4.82872e-07
729.025	1.56503e-06
737.583	9.82868e-07
746.141	4.91798e-07
754.698	1.86206e-06
763.256	2.87899e-07
771.813	1.92954e-07
780.371	9.65169e-08
788.929	1.86049e-07
797.486	4.14444e-07
806.044	4.88622e-07
814.602	5.57827e-07
823.159	9.03475e-07
831.717	1.35029e-06
840.274	8.87837e-06
848.832	1.03685e-05
857.39	3.1407e-05
865.947	4.52656e-05
874.505	3.23295e-05
883.063	3.77426e-05
891.62	5.3672e-05
900.178	3.22012e-05
908.735	0.000225809
917.293	3.36449e-05
925.851	5.36296e-05
934.408	7.57867e-05
942.966	8.07253e-05
951.524	0.000277537
960.081	5.8506e-05
968.639	5.03512e-05
977.196	0.000124625
985.754	6.29643e-05
994.312	6.30578e-05
1002.87	4.46942e-05
1011.43	0.000137243
1019.98	9.01048e-05
1028.54	2.55568e-05
1037.1	4.06947e-05
1045.66	2.61152e-05
1054.22	5.40382e-06
1062.77	8.60813e-06
1071.33	4.0848e-06
1079.89	3.91838e-06
1088.45	1.74867e-06
1097	8.47021e-06
1105.56	7.06045e-06
1114.12	1.0649e-06
1122.68	3.28259e-07
1131.23	6.28865e-07
1139.79	1.71304e-07
1148.35	8.37786e-08
1156.91	-2.10321e-07
1165.46	7.87564e-08
1174.02	-2.5646e-07
1182.58	-2.37428e-07
1191.14	-2.29195e-07
1199.69	-2.20229e-07
1208.25	-2.02705e-07
1216.81	-2.65306e-07
1225.37	-2.45842e-07
1233.93	-2.58865e-07
1242.48	-2.68434e-07
1251.04	-2.34572e-07
1259.6	-2.37093e-07
1268.16	-2.79883e-07
1276.71	-2.18338e-07
1285.27	-1.88746e-07
1293.83	-2.4751e-07
1302.39	-2.24857e-07
1310.94	-2.07546e-07
1319.5	-2.27578e-07
1328.06	-1.85103e-07
1336.62	-2.19733e-07
1345.17	-1.59612e-07
1353.73	-2.114e-07
1362.29	-2.25523e-07
1370.85	-2.61915e-08
1379.4	8.42328e-07
1387.96	4.30616e-06
1396.52	1.09652e-05
1405.08	2.13019e-05
1413.64	1.94694e-05
1422.19	3.60339e-05
1430.75	1.37683e-05
1439.31	3.32833e-06
1447.87	1.7742e-05
1456.42	2.13698e-05
1464.98	3.87301e-05
1473.54	1.97609e-05
1482.1	1.63848e-05
1490.65	1.29441e-05
1499.21	6.60493e-07
1507.77	3.53715e-07
1516.33	-5.92224e-08
1524.88	-1.78276e-07
1533.44	-2.81842e-07
1542	-4.24057e-07
1550.56	-2.41481e-07
1559.11	-2.50022e-07
1567.67	-2.06813e-07
1576.23	-5.29392e-07
1584.79	-2.78784e-07
1593.35	-2.77504e-07
1601.9	-2.61484e-07
1610.46	-2.16364e-07
1619.02	-2.7579e-07
1627.58	-2.67827e-07
1636.13	-2.57087e-07
1644.69	-2.47583e-07
1653.25	-5.81477e-07
1661.81	-2.69113e-07
1670.36	-2.48698e-07
1678.92	-2.14005e-07
1687.48	-2.5608e-07
1696.04	-3.23169e-07
1704.59	-1.6285e-07
1713.15	-1.86311e-07
1721.71	-1.01883e-07
1730.27	6.12942e-08
1738.83	-3.03388e-08
1747.38	3.63432e-08
1755.94	-6.21182e-08
1764.5	-1.72667e-07
1773.06	-6.65274e-08
1781.61	-3.1281e-08
1790.17	-4.38374e-08
1798.73	-2.01026e-07
1807.29	-1.87404e-07
1815.84	-9.08344e-08
1824.4	2.3618e-07
1832.96	1.13449e-06
1841.52	2.51334e-06
1850.07	5.87737e-06
1858.63	1.11296e-05
1867.19	4.76055e-06
1875.75	6.36101e-06
1884.3	1.31896e-06
1892.86	2.24259e-06
1901.42	1.26388e-05
1909.98	8.47014e-06
1918.54	1.29173e-05
1927.09	4.37016e-06
1935.65	1.75689e-06
1944.21	1.01929e-06
1952.77	1.57014e-07
1961.32	-3.638e-07
1969.88	-1.39201e-07
1978.44	2.12311e-07
1987	-1.0274e-07
1995.55	2.82471e-07
2004.11	3.29514e-07
2012.67	9.66442e-08
2021.23	2.34175e-07
2029.78	1.20737e-06
2038.34	1.47937e-06
2046.9	5.23392e-06
2055.46	-1.13708e-07
2064.01	6.64757e-07
2072.57	2.11774e-06
2081.13	1.02758e-06
2089.69	3.68043e-07
2098.25	-6.5958e-08
2106.8	-2.89256e-07
2115.36	-1.84621e-07
2123.92	2.66917e-07
2132.48	4.92542e-07
2141.03	3.20404e-07
2149.59	1.37553e-07
2158.15	5.52586e-07
2166.71	2.01096e-07
2175.26	1.58288e-07
2183.82	1.78975e-07
2192.38	5.73401e-07
2200.94	7.83009e-07
2209.49	2.31231e-07
2218.05	1.99418e-07
2226.61	1.15605e-07
2235.17	7.84071e-08
2243.72	9.946e-08
2252.28	4.94633e-07
2260.84	-1.23109e-08
2269.4	-1.68387e-07
2277.96	-1.53711e-07
2286.51	-1.56094e-07
2295.07	-1.60767e-07
2303.63	-1.11323e-07
2312.19	-1.0416e-07
2320.74	-1.48369e-07
2329.3	-1.08348e-07
2337.86	2.36504e-08
2346.42	-5.66339e-08
2354.97	-1.38783e-07
2363.53	-1.63588e-07
2372.09	-3.60776e-08
2380.65	-8.68963e-08
2389.2	-1.12857e-07
2397.76	-1.61209e-07
2406.32	-1.86258e-07
2414.88	-1.45853e-07
2423.44	-8.68545e-08
2431.99	-1.31336e-07
2440.55	-2.36233e-07
2449.11	-8.88826e-08
2457.67	-6.00518e-08
2466.22	-9.6235e-08
2474.78	-1.1887e-07
2483.34	-1.33835e-07
2491.9	-1.99648e-07
2500.45	-2.1363e-07
2509.01	-2.72631e-07
2517.57	-2.73038e-07
2526.13	-2.39669e-07
2534.68	-1.80261e-07
2543.24	-1.53307e-07
2551.8	-2.38239e-07
2560.36	-2.31038e-07
2568.91	-3.81658e-08
2577.47	-2.03704e-07
2586.03	-2.41644e-07
2594.59	-2.56378e-07
2603.15	-1.56105e-07
2611.7	-2.63772e-07
2620.26	-2.04703e-07
2628.82	-2.21246e-07
2637.38	-2.0608e-07
2645.93	-2.18736e-07
2654.49	-1.86869e-07
2663.05	-1.94367e-07
2671.61	-1.92568e-07
2680.16	-2.85631e-07
2688.72	-2.64565e-07
2697.28	-2.57704e-07
2705.84	-2.72054e-07
2714.39	-2.2724e-07
2722.95	-2.53062e-07
2731.51	-2.2065e-07
2740.07	-2.43427e-07
2748.62	-3.13914e-07
2757.18	-2.93756e-07
2765.74	-3.03757e-07
2774.3	-2.72776e-07
2782.86	-3.64958e-07
2791.41	-4.0088e-07
2799.97	-4.01442e-07
2808.53	-3.83641e-07
2817.09	-2.24207e-07
2825.64	-3.79576e-07
2834.2	-4.38651e-07
2842.76	-3.51707e-07
2851.32	-4.05371e-07
2859.87	-5.12971e-07
2868.43	-2.4703e-07
2876.99	-3.014e-07
2885.55	-7.26124e-07
2894.1	-5.27957e-07
2902.66	-3.14258e-07
2911.22	-2.82853e-07
2919.78	7.8298e-08
2928.34	1.01858e-06
2936.89	4.13529e-06
2945.45	2.41797e-05
2954.01	1.45246e-05
2962.57	7.67175e-05
2971.12	2.1229e-05
2979.68	1.50216e-05
2988.24	0.00029961
2996.8	6.27637e-06
3005.35	2.47455e-05
3013.91	6.34861e-05
3022.47	3.49693e-05
3031.03	1.46226e-05
3039.58	1.56046e-05
3048.14	2.73973e-05
3056.7	2.13931e-05
3065.26	2.43138e-05
3073.81	4.44165e-05
3082.37	2.62702e-05
3090.93	2.87094e-05
3099.49	4.84127e-05
3108.05	1.59757e-05
3116.6	4.01744e-05
3125.16	7.43397e-05
3133.72	4.64932e-05
3142.28	2.34115e-05
3150.83	4.36745e-05
3159.39	1.48905e-05
3167.95	4.16646e-05
3176.51	1.15269e-05
3185.06	3.70651e-06
3193.62	1.92995e-05
3202.18	6.01953e-06
3210.74	2.62516e-06
3219.29	3.49924e-06
3227.85	3.07005e-06
3236.41	1.04927e-06
3244.97	8.98249e-08
3253.52	1.13379e-07
3262.08	-6.84664e-08
3270.64	-8.29073e-08
3279.2	-1.40182e-07
3287.76	-1.67493e-07
3296.31	-1.98945e-07
3304.87	-2.18614e-07
3313.43	-1.01466e-07
3321.99	-1.92119e-07
3330.54	-2.97576e-07
3339.1	-2.13841e-07
3347.66	-2.37022e-07
3356.22	-2.48569e-07
3364.77	-2.10891e-07
3373.33	-2.10689e-07
3381.89	-1.40005e-07
3390.45	-2.48016e-07
3399	-1.88073e-07
3407.56	-1.98971e-07
3416.12	-2.56822e-07
3424.68	-2.99808e-07
3433.23	-1.38514e-07
3441.79	-2.75043e-07
3450.35	-3.56118e-07
3458.91	-2.65491e-07
3467.47	-1.7718e-07
3476.02	-1.69343e-07
3484.58	-1.83055e-07
3493.14	-1.51396e-07
3501.7	-2.5913e-07
3510.25	-1.83993e-07
3518.81	-2.17419e-07
3527.37	-2.3638e-07
3535.93	-1.7322e-07
3544.48	-2.59861e-07
3553.04	-2.17608e-07
3561.6	-2.16619e-07
3570.16	-1.74848e-07
3578.71	-1.49322e-07
3587.27	-2.88821e-07
3595.83	-2.70264e-07
3604.39	-2.40411e-07
3612.95	-2.63743e-07
3621.5	-2.15813e-07
3630.06	-2.15169e-07
3638.62	-1.97385e-07
3647.18	-3.09032e-07
3655.73	-2.51914e-07
3664.29	-2.19975e-07
3672.85	-2.43334e-07
3681.41	-2.49468e-07
3689.96	-2.6793e-07
3698.52	-2.6773e-07
3707.08	-3.75019e-07
3715.64	-2.72525e-07
3724.19	-2.48756e-07
3732.75	-4.2439e-07
3741.31	-1.43799e-07
3749.87	-1.89309e-07
3758.42	-3.20739e-07
3766.98	-2.41435e-07
3775.54	-5.01924e-07
3784.1	-2.29019e-07
3792.66	-1.30252e-07
3801.21	-2.26156e-07
3809.77	-3.21095e-07
3818.33	-8.17977e-08
3826.89	-2.77151e-07
3835.44	-1.63515e-07
3844	-1.3236e-07
3852.56	-2.34292e-07
3861.12	-4.74754e-09
3869.67	-1.4146e-07
3878.23	-1.48885e-07
3886.79	-1.36171e-07
3895.35	-1.90256e-07
3903.9	-2.28757e-07
3912.46	-1.55305e-07
3921.02	1.25149e-07
3929.58	-2.89636e-08
3938.13	-1.29675e-07
3946.69	-8.16522e-08
3955.25	-1.31496e-07
3963.81	-2.23123e-07
3972.37	-1.30566e-07
