Infrared Spectrum: Ethene
Formula: C H2: C H2
CAS: 74-85-1
State: gas
Melting point: -169.15 C
Boiling point: -103.71 C
Class: IUPAC A
Instrument: IFS66V (Bruker)
Instrument parameters: KBr Beam splitter; MCT Detector; Multipass cell
Sampling: 1 L/min Flow
Resolution: 0.2410
Temperature: 23 C
Pressure: 101.3 kPa
Origin: NIST, Anayltical Chemistry Division, 301-975-3108
cm-1	(micromol/mol)-1m-1 (base 10)
575.048	1.18081e-07
583.606	-1.0643e-07
592.163	-3.7061e-07
600.721	-2.47956e-07
609.279	-5.64215e-07
617.836	-9.63023e-08
626.394	-4.32537e-07
634.951	-1.95078e-07
643.509	-1.83522e-07
652.067	-3.06303e-07
660.624	-1.85108e-07
669.182	4.92889e-08
677.74	2.23891e-07
686.297	3.48135e-08
694.855	-5.74507e-08
703.412	4.9001e-07
711.97	6.9928e-07
720.528	6.70374e-07
729.085	1.54568e-06
737.643	9.24993e-07
746.201	4.57317e-07
754.758	1.9257e-06
763.316	2.55228e-07
771.873	1.16668e-07
780.431	1.56372e-07
788.989	3.16812e-07
797.546	5.30011e-07
806.104	6.00027e-07
814.662	5.98153e-07
823.219	1.19878e-06
831.777	2.04802e-06
840.334	1.01303e-05
848.892	9.96394e-06
857.45	2.36341e-05
866.007	3.74984e-05
874.565	3.84016e-05
883.123	5.10369e-05
891.68	5.06595e-05
900.238	4.16508e-05
908.795	0.000241434
917.353	4.24508e-05
925.911	5.98139e-05
934.468	7.35839e-05
943.026	8.67065e-05
951.584	0.000274151
960.141	5.80891e-05
968.699	5.64321e-05
977.256	0.000110545
985.814	8.18934e-05
994.372	5.4974e-05
1002.93	4.35899e-05
1011.49	9.46158e-05
1020.04	0.000111115
1028.6	3.4077e-05
1037.16	5.48395e-05
1045.72	2.76857e-05
1054.28	6.74774e-06
1062.83	1.15203e-05
1071.39	5.99919e-06
1079.95	4.63201e-06
1088.51	2.05765e-06
1097.06	5.57169e-06
1105.62	4.55437e-06
1114.18	9.6934e-07
1122.74	5.23497e-07
1131.29	7.09981e-07
1139.85	4.22225e-07
1148.41	3.02933e-08
1156.97	-6.90212e-08
1165.52	-2.41142e-08
1174.08	-2.38798e-07
1182.64	-2.08373e-07
1191.2	-2.19625e-07
1199.75	-2.24724e-07
1208.31	-2.10256e-07
1216.87	-2.53786e-07
1225.43	-2.39647e-07
1233.99	-2.47263e-07
1242.54	-2.27694e-07
1251.1	-2.1301e-07
1259.66	-2.37983e-07
1268.22	-2.5433e-07
1276.77	-2.28126e-07
1285.33	-1.99598e-07
1293.89	-2.35096e-07
1302.45	-2.22661e-07
1311	-2.14798e-07
1319.56	-2.23764e-07
1328.12	-1.87069e-07
1336.68	-2.13421e-07
1345.23	-1.70873e-07
1353.79	-2.08566e-07
1362.35	-2.03486e-07
1370.91	-5.85712e-08
1379.46	9.0857e-07
1388.02	3.96282e-06
1396.58	1.00539e-05
1405.14	1.73953e-05
1413.7	2.05779e-05
1422.25	3.12985e-05
1430.81	1.15915e-05
1439.37	3.96682e-06
1447.93	1.8512e-05
1456.48	1.68844e-05
1465.04	2.74588e-05
1473.6	1.93178e-05
1482.16	1.3954e-05
1490.71	8.77967e-06
1499.27	7.6336e-07
1507.83	4.32337e-07
1516.39	-5.17736e-08
1524.94	-1.85783e-07
1533.5	-2.64192e-07
1542.06	-3.83707e-07
1550.62	-2.51709e-07
1559.18	-2.69797e-07
1567.73	-2.27287e-07
1576.29	-3.7198e-07
1584.85	-2.68256e-07
1593.41	-2.64269e-07
1601.96	-2.54193e-07
1610.52	-2.17077e-07
1619.08	-2.59137e-07
1627.64	-2.58337e-07
1636.19	-2.55039e-07
1644.75	-2.58131e-07
1653.31	-4.74104e-07
1661.87	-2.59641e-07
1670.42	-2.49029e-07
1678.98	-2.26598e-07
1687.54	-2.56698e-07
1696.1	-2.8214e-07
1704.65	-1.7514e-07
1713.21	-2.26021e-07
1721.77	-5.60555e-08
1730.33	1.10059e-07
1738.89	-5.82219e-08
1747.44	9.99711e-09
1756	-6.43555e-08
1764.56	-1.85332e-07
1773.12	-6.84446e-08
1781.67	-2.54548e-08
1790.23	-1.21775e-07
1798.79	-1.82245e-07
1807.35	-1.80747e-07
1815.9	-1.02043e-07
1824.46	1.67328e-07
1833.02	9.63881e-07
1841.58	2.7673e-06
1850.13	6.8775e-06
1858.69	9.42758e-06
1867.25	5.8549e-06
1875.81	7.03341e-06
1884.36	1.38732e-06
1892.92	2.14407e-06
1901.48	1.38693e-05
1910.04	1.27458e-05
1918.6	1.63565e-05
1927.15	4.0879e-06
1935.71	1.77024e-06
1944.27	8.41629e-07
1952.83	2.31563e-07
1961.38	-3.20217e-07
1969.94	-1.09021e-07
1978.5	7.97514e-08
1987.06	-5.59573e-08
1995.61	2.76214e-07
2004.17	3.43405e-07
2012.73	2.27403e-07
2021.29	2.09637e-07
2029.84	1.12022e-06
2038.4	1.22938e-06
2046.96	5.64268e-06
2055.52	-6.97179e-08
2064.08	8.67346e-07
2072.63	2.86885e-06
2081.19	1.29525e-06
2089.75	3.0234e-07
2098.31	-5.24357e-08
2106.86	-2.59241e-07
2115.42	-1.3976e-07
2123.98	1.87675e-07
2132.54	5.36788e-07
2141.09	3.7457e-07
2149.65	1.60736e-07
2158.21	5.41661e-07
2166.77	1.51052e-07
2175.32	1.34959e-07
2183.88	2.88445e-07
2192.44	4.64831e-07
2201	7.998e-07
2209.55	2.4249e-07
2218.11	2.49888e-07
2226.67	1.14217e-07
2235.23	2.45508e-08
2243.79	1.00946e-07
2252.34	4.84393e-07
2260.9	-5.22775e-08
2269.46	-1.3495e-07
2278.02	-1.59586e-07
2286.57	-1.51978e-07
2295.13	-1.66862e-07
2303.69	-9.45797e-08
2312.25	-9.54837e-08
2320.8	-1.3642e-07
2329.36	-9.50362e-08
2337.92	1.20671e-08
2346.48	-8.64998e-08
2355.03	-1.29888e-07
2363.59	-1.14448e-07
2372.15	-5.01347e-08
2380.71	-8.43661e-08
2389.26	-1.12069e-07
2397.82	-1.49795e-07
2406.38	-1.65129e-07
2414.94	-1.03344e-07
2423.5	-1.16466e-07
2432.05	-1.40811e-07
2440.61	-2.10605e-07
2449.17	-1.06047e-07
2457.73	-8.84334e-08
2466.28	-7.75358e-08
2474.84	-1.23711e-07
2483.4	-1.93125e-07
2491.96	-1.80819e-07
2500.51	-2.29328e-07
2509.07	-2.30628e-07
2517.63	-2.45728e-07
2526.19	-2.16411e-07
2534.74	-1.94243e-07
2543.3	-1.5053e-07
2551.86	-2.36566e-07
2560.42	-2.30108e-07
2568.98	-7.0169e-08
2577.53	-2.09616e-07
2586.09	-2.22127e-07
2594.65	-2.43798e-07
2603.21	-1.99631e-07
2611.76	-2.59847e-07
2620.32	-1.87193e-07
2628.88	-2.11633e-07
2637.44	-2.18731e-07
2645.99	-1.82475e-07
2654.55	-1.92619e-07
2663.11	-1.97277e-07
2671.67	-1.98065e-07
2680.22	-2.56223e-07
2688.78	-2.62599e-07
2697.34	-2.66602e-07
2705.9	-2.56372e-07
2714.45	-2.32391e-07
2723.01	-2.50119e-07
2731.57	-2.44174e-07
2740.13	-2.28573e-07
2748.69	-2.97642e-07
2757.24	-2.75359e-07
2765.8	-2.82089e-07
2774.36	-2.37446e-07
2782.92	-3.06605e-07
2791.47	-3.58625e-07
2800.03	-4.10329e-07
2808.59	-3.65033e-07
2817.15	-2.7619e-07
2825.7	-3.90479e-07
2834.26	-4.03788e-07
2842.82	-4.07895e-07
2851.38	-4.20121e-07
2859.93	-5.15992e-07
2868.49	-2.32706e-07
2877.05	-2.72156e-07
2885.61	-7.1897e-07
2894.16	-5.29556e-07
2902.72	-3.26411e-07
2911.28	-2.76483e-07
2919.84	3.42841e-08
2928.4	1.0675e-06
2936.95	4.32549e-06
2945.51	1.85809e-05
2954.07	1.85466e-05
2962.63	5.17537e-05
2971.18	2.14829e-05
2979.74	1.45531e-05
2988.3	0.000295823
2996.86	7.67394e-06
3005.41	3.41979e-05
3013.97	5.97284e-05
3022.53	3.32752e-05
3031.09	1.81998e-05
3039.64	1.42219e-05
3048.2	2.37907e-05
3056.76	2.36783e-05
3065.32	2.01267e-05
3073.88	4.90535e-05
3082.43	2.63626e-05
3090.99	3.17465e-05
3099.55	4.53739e-05
3108.11	1.56791e-05
3116.66	4.18904e-05
3125.22	6.53762e-05
3133.78	4.52337e-05
3142.34	2.29944e-05
3150.89	3.57452e-05
3159.45	1.54211e-05
3168.01	2.97625e-05
3176.57	1.41535e-05
3185.12	4.37324e-06
3193.68	1.33315e-05
3202.24	8.33582e-06
3210.8	3.98971e-06
3219.35	2.81732e-06
3227.91	3.33095e-06
3236.47	9.78364e-07
3245.03	2.649e-07
3253.59	1.85902e-07
3262.14	-2.54948e-08
3270.7	-1.31201e-07
3279.26	-1.50592e-07
3287.82	-1.89923e-07
3296.37	-1.54888e-07
3304.93	-1.94527e-07
3313.49	-1.27174e-07
3322.05	-2.12049e-07
3330.6	-2.47549e-07
3339.16	-1.52129e-07
3347.72	-1.95851e-07
3356.28	-2.22814e-07
3364.83	-2.30201e-07
3373.39	-1.68889e-07
3381.95	-1.46368e-07
3390.51	-2.03096e-07
3399.06	-1.8754e-07
3407.62	-2.22832e-07
3416.18	-2.03166e-07
3424.74	-2.73964e-07
3433.3	-1.95479e-07
3441.85	-2.97061e-07
3450.41	-2.84467e-07
3458.97	-2.19367e-07
3467.53	-1.89363e-07
3476.08	-1.83109e-07
3484.64	-2.06676e-07
3493.2	-1.42897e-07
3501.76	-2.29091e-07
3510.31	-2.48054e-07
3518.87	-2.00532e-07
3527.43	-2.08411e-07
3535.99	-1.568e-07
3544.54	-2.13823e-07
3553.1	-1.90387e-07
3561.66	-2.3425e-07
3570.22	-2.25315e-07
3578.78	-1.75874e-07
3587.33	-3.06102e-07
3595.89	-2.51498e-07
3604.45	-2.05066e-07
3613.01	-2.42015e-07
3621.56	-2.29428e-07
3630.12	-1.91801e-07
3638.68	-2.10492e-07
3647.24	-2.39436e-07
3655.79	-2.36311e-07
3664.35	-2.14007e-07
3672.91	-2.5541e-07
3681.47	-2.42286e-07
3690.02	-2.59799e-07
3698.58	-2.57169e-07
3707.14	-3.35309e-07
3715.7	-2.46888e-07
3724.25	-2.77356e-07
3732.81	-3.59796e-07
3741.37	-1.43538e-07
3749.93	-2.31409e-07
3758.49	-2.76443e-07
3767.04	-2.05648e-07
3775.6	-4.40772e-07
3784.16	-1.94967e-07
3792.72	-1.20498e-07
3801.27	-2.67858e-07
3809.83	-3.50454e-07
3818.39	-8.90027e-09
3826.95	-2.70431e-07
3835.5	-1.79437e-07
3844.06	-1.49347e-07
3852.62	-1.99835e-07
3861.18	-4.89124e-08
3869.73	-1.47577e-07
3878.29	-1.04471e-07
3886.85	-1.3133e-07
3895.41	-1.99486e-07
3903.96	-1.77109e-07
3912.52	-1.47647e-07
3921.08	6.26093e-08
3929.64	-5.21938e-08
3938.2	-1.37086e-07
3946.75	-9.06452e-08
3955.31	-1.46313e-07
3963.87	-1.99711e-07
3972.43	-1.06523e-07
