Infrared Spectrum: Bromomethane
Formula: C H3 Br
CAS: 74-83-9
State: gas
Melting point: -93.6 C
Boiling point: 3.56 C
Class: IUPAC A
Instrument: IFS66V (Bruker)
Instrument parameters: KBr Beam splitter; MCT Detector; Multipass cell
Sampling: 1 L/min Flow
Resolution: 0.1250
Temperature: 23 C
Pressure: 101.3 kPa
Origin: NIST, Anayltical Chemistry Division, 301-975-3108
cm-1	(micromol/mol)-1m-1 (base 10)
574.988	9.99254e-06
583.546	1.73733e-05
592.103	3.70946e-05
600.661	3.34839e-05
609.219	4.91777e-05
617.776	5.45634e-05
626.334	4.34677e-05
634.891	9.57312e-06
643.449	7.86782e-08
652.007	1.12933e-07
660.564	-4.99582e-08
669.122	1.41524e-07
677.68	1.0791e-07
686.237	8.48709e-08
694.795	-1.75115e-07
703.352	6.4277e-08
711.91	6.04813e-08
720.468	1.22494e-07
729.025	-4.76158e-09
737.583	2.01709e-07
746.141	1.34508e-07
754.698	-7.08944e-08
763.256	-5.55947e-08
771.813	7.12223e-08
780.371	1.00865e-07
788.929	-3.11656e-08
797.486	1.83629e-08
806.044	4.18093e-08
814.602	1.08692e-08
823.159	1.76362e-08
831.717	2.27775e-08
840.274	1.21067e-07
848.832	8.92959e-08
857.39	4.07642e-07
865.947	5.61832e-07
874.505	6.06932e-07
883.063	2.13218e-06
891.62	4.35975e-06
900.178	3.02936e-06
908.735	5.13862e-06
917.293	4.65385e-06
925.851	5.63981e-06
934.408	2.78935e-05
942.966	7.30934e-06
951.524	6.8976e-06
960.081	7.51715e-06
968.639	8.33452e-06
977.196	7.08699e-06
985.754	1.01195e-05
994.312	1.03194e-05
1002.87	2.73804e-05
1011.43	4.86325e-06
1019.98	2.40807e-06
1028.54	1.85875e-06
1037.1	1.27553e-06
1045.66	9.02722e-07
1054.22	3.99428e-07
1062.77	3.8696e-07
1071.33	3.59922e-07
1079.89	9.46378e-08
1088.45	1.68054e-07
1097	6.67863e-08
1105.56	-5.26166e-08
1114.12	1.04004e-07
1122.68	1.34457e-07
1131.23	-5.77929e-09
1139.79	5.4366e-08
1148.35	-5.59148e-09
1156.91	8.99053e-08
1165.46	3.18805e-08
1174.02	4.41248e-08
1182.58	1.82705e-07
1191.14	8.35944e-08
1199.69	1.84348e-07
1208.25	2.18871e-07
1216.81	1.12154e-07
1225.37	4.1904e-07
1233.93	1.14317e-07
1242.48	2.17013e-07
1251.04	3.54089e-07
1259.6	1.51547e-06
1268.16	5.13817e-06
1276.71	1.96722e-05
1285.27	4.1234e-05
1293.83	7.76645e-05
1302.39	2.14242e-05
1310.94	4.56445e-05
1319.5	8.31836e-05
1328.06	2.90154e-05
1336.62	3.79113e-06
1345.17	2.2927e-06
1353.73	3.32784e-06
1362.29	2.53593e-06
1370.85	2.35385e-06
1379.4	4.39367e-06
1387.96	4.38978e-06
1396.52	3.80031e-06
1405.08	4.13905e-06
1413.64	9.5163e-05
1422.19	6.03179e-06
1430.75	6.65495e-06
1439.31	1.11843e-05
1447.87	6.39376e-06
1456.42	7.00377e-06
1464.98	5.61509e-06
1473.54	7.97169e-06
1482.1	6.48298e-06
1490.65	5.14393e-06
1499.21	6.05427e-06
1507.77	8.20921e-06
1516.33	1.07362e-05
1524.88	5.2325e-06
1533.44	4.27813e-06
1542	3.63688e-06
1550.56	1.97409e-06
1559.11	1.30377e-06
1567.67	1.34304e-06
1576.23	1.16489e-06
1584.79	1.14807e-06
1593.35	3.35358e-07
1601.9	6.07129e-07
1610.46	4.50201e-07
1619.02	2.75587e-07
1627.58	1.32185e-07
1636.13	6.40224e-08
1644.69	8.17768e-08
1653.25	3.02439e-07
1661.81	2.53408e-08
1670.36	-6.52415e-09
1678.92	2.26115e-08
1687.48	4.62198e-08
1696.04	1.86587e-07
1704.59	7.27889e-08
1713.15	3.68208e-08
1721.71	6.06273e-08
1730.27	6.99313e-08
1738.83	-6.472e-08
1747.38	-5.06035e-09
1755.94	7.76996e-08
1764.5	1.54061e-08
1773.06	2.35678e-08
1781.61	6.76062e-09
1790.17	4.57982e-08
1798.73	1.24376e-08
1807.29	4.34354e-08
1815.84	1.32275e-08
1824.4	-4.58837e-08
1832.96	2.33727e-08
1841.52	3.12975e-08
1850.07	4.21057e-08
1858.63	4.65831e-08
1867.19	8.77921e-09
1875.75	7.83603e-08
1884.3	1.71311e-07
1892.86	5.01455e-07
1901.42	3.60775e-07
1909.98	2.4123e-07
1918.54	4.02208e-07
1927.09	4.17167e-07
1935.65	6.02203e-08
1944.21	-7.12387e-08
1952.77	-3.14271e-09
1961.32	3.28059e-08
1969.88	1.27204e-08
1978.44	-6.82155e-09
1987	-3.11406e-09
1995.55	2.00377e-08
2004.11	-2.47674e-08
2012.67	-3.50423e-09
2021.23	-2.88955e-08
2029.78	-1.39846e-08
2038.34	5.90798e-09
2046.9	2.10126e-08
2055.46	8.97675e-08
2064.01	-2.30644e-09
2072.57	-1.09924e-08
2081.13	1.04672e-08
2089.69	3.73105e-08
2098.25	1.77817e-08
2106.8	-1.92678e-08
2115.36	7.28252e-08
2123.92	1.15513e-08
2132.48	1.62592e-08
2141.03	5.99516e-08
2149.59	-1.41169e-08
2158.15	1.2295e-07
2166.71	4.59851e-08
2175.26	9.02582e-08
2183.82	1.29929e-07
2192.38	3.20539e-07
2200.94	3.39467e-07
2209.49	6.23288e-07
2218.05	4.0825e-07
2226.61	5.78632e-07
2235.17	1.32561e-06
2243.72	1.24435e-06
2252.28	7.60135e-07
2260.84	6.22025e-07
2269.4	6.55571e-07
2277.96	6.47953e-07
2286.51	7.38975e-07
2295.07	7.78694e-07
2303.63	6.42665e-07
2312.19	4.02407e-07
2320.74	4.83383e-07
2329.3	3.92396e-07
2337.86	5.53624e-07
2346.42	3.08844e-07
2354.97	1.8814e-06
2363.53	6.05341e-07
2372.09	5.15276e-07
2380.65	6.02947e-07
2389.2	4.80426e-07
2397.76	6.06443e-07
2406.32	5.36049e-07
2414.88	3.68202e-07
2423.44	6.49247e-06
2431.99	3.42379e-07
2440.55	2.80287e-07
2449.11	2.80976e-07
2457.67	1.86483e-07
2466.22	1.56983e-07
2474.78	2.33235e-07
2483.34	9.60816e-08
2491.9	1.13362e-07
2500.45	9.86813e-08
2509.01	9.46728e-08
2517.57	1.99302e-07
2526.13	3.09892e-08
2534.68	-4.91956e-08
2543.24	-7.66073e-08
2551.8	1.62356e-08
2560.36	1.20844e-07
2568.91	3.16244e-07
2577.47	4.41447e-07
2586.03	7.0966e-07
2594.59	-3.81527e-09
2603.15	8.86555e-07
2611.7	1.18694e-06
2620.26	-5.04489e-09
2628.82	-2.81836e-07
2637.38	-3.35702e-07
2645.93	-2.94759e-07
2654.49	-1.14358e-07
2663.05	-4.39697e-08
2671.61	7.96723e-08
2680.16	2.13223e-08
2688.72	1.04982e-07
2697.28	8.99066e-09
2705.84	4.11217e-08
2714.39	1.00787e-07
2722.95	7.59893e-08
2731.51	-3.35375e-08
2740.07	2.11229e-07
2748.62	-8.23943e-09
2757.18	9.51262e-08
2765.74	2.88055e-08
2774.3	1.32941e-07
2782.86	1.09183e-07
2791.41	8.74829e-08
2799.97	1.84639e-07
2808.53	1.58163e-07
2817.09	2.05031e-07
2825.64	3.59118e-07
2834.2	2.37581e-06
2842.76	7.53283e-06
2851.32	8.10961e-06
2859.87	7.25737e-06
2868.43	9.34631e-06
2876.99	9.36379e-06
2885.55	5.79815e-06
2894.1	1.79931e-06
2902.66	4.08405e-07
2911.22	2.71009e-07
2919.78	1.92257e-07
2928.34	1.05113e-06
2936.89	5.24464e-06
2945.45	2.19515e-05
2954.01	5.91428e-05
2962.57	5.30794e-05
2971.12	2.36041e-05
2979.68	6.06665e-05
2988.24	6.75059e-05
2996.8	3.54962e-05
3005.35	1.09372e-05
3013.91	4.50303e-06
3022.47	3.58709e-06
3031.03	3.49312e-06
3039.58	3.43661e-06
3048.14	3.96473e-06
3056.7	4.37563e-06
3065.26	2.98703e-06
3073.81	4.89275e-06
3082.37	3.91727e-06
3090.93	4.7925e-06
3099.49	3.6701e-06
3108.05	2.48194e-06
3116.6	2.3764e-06
3125.16	2.6997e-06
3133.72	1.85598e-06
3142.28	1.19262e-06
3150.83	6.44232e-07
3159.39	6.1896e-07
3167.95	2.9934e-07
3176.51	4.96476e-07
3185.06	2.7226e-07
3193.62	1.52393e-07
3202.18	8.66639e-08
3210.74	9.00667e-08
3219.29	1.92307e-07
3227.85	9.34513e-08
3236.41	1.19351e-08
3244.97	3.97647e-08
3253.52	6.19856e-08
3262.08	1.03374e-07
3270.64	-7.35365e-08
3279.2	3.4523e-08
3287.76	3.86161e-08
3296.31	1.13741e-07
3304.87	2.40321e-08
3313.43	4.58587e-08
3321.99	8.81477e-08
3330.54	1.21898e-07
3339.1	4.52366e-08
3347.66	-1.21013e-07
3356.22	1.20568e-07
3364.77	1.12553e-07
3373.33	6.37423e-08
3381.89	9.53067e-08
3390.45	2.03128e-08
3399	-8.59286e-08
3407.56	1.22078e-07
3416.12	-7.35474e-08
3424.68	2.16304e-07
3433.23	1.26584e-07
3441.79	9.56409e-08
3450.35	1.88549e-07
3458.91	6.52879e-08
3467.47	3.34138e-08
3476.02	-4.25305e-08
3484.58	-9.46619e-08
3493.14	2.19849e-08
3501.7	-7.64231e-08
3510.25	-3.0152e-08
3518.81	8.41719e-08
3527.37	1.98026e-08
3535.93	7.13846e-08
3544.48	1.53432e-07
3553.04	2.27057e-07
3561.6	4.60619e-07
3570.16	5.59905e-07
3578.71	4.28437e-07
3587.27	5.40996e-07
3595.83	7.18754e-07
3604.39	4.08425e-07
3612.95	3.12909e-07
3621.5	-2.98355e-09
3630.06	1.3087e-07
3638.62	4.5484e-08
3647.18	1.53348e-07
3655.73	2.78704e-07
3664.29	2.76085e-07
3672.85	4.14705e-07
3681.41	3.44013e-07
3689.96	2.82824e-07
3698.52	3.47264e-07
3707.08	1.40778e-07
3715.64	2.56463e-07
3724.19	2.36701e-07
3732.75	9.09139e-08
3741.31	8.14171e-08
3749.87	1.61641e-07
3758.42	1.84811e-08
3766.98	1.77327e-07
3775.54	8.09405e-08
3784.1	8.46226e-08
3792.66	1.24291e-07
3801.21	1.86591e-07
3809.77	2.37428e-07
3818.33	1.3003e-07
3826.89	2.59905e-07
3835.44	1.28307e-07
3844	1.24998e-07
3852.56	1.30881e-07
3861.12	2.53928e-07
3869.67	3.41278e-07
3878.23	2.61603e-07
3886.79	7.26074e-07
3895.35	1.28073e-07
3903.9	2.11468e-07
3912.46	1.42015e-07
3921.02	2.90022e-07
3929.58	4.58501e-07
3938.13	3.32092e-07
3946.69	2.43354e-07
3955.25	7.24333e-08
3963.81	3.30247e-07
3972.37	6.28542e-07
