Infrared Spectrum: Ethene
Formula: C H2: C H2
CAS: 74-85-1
State: gas
Melting point: -169.15 C
Boiling point: -103.71 C
Class: IUPAC A
Instrument: IFS66V (Bruker)
Instrument parameters: KBr Beam splitter; MCT Detector; Multipass cell
Sampling: 1 L/min Flow
Resolution: 1.9290
Temperature: 23 C
Pressure: 101.3 kPa
Origin: NIST, Anayltical Chemistry Division, 301-975-3108
cm-1	(micromol/mol)-1m-1 (base 10)
574.687	-2.62621e-07
583.365	-3.21659e-07
592.043	-3.42748e-07
600.721	-3.03011e-07
609.4	-2.56349e-07
618.078	-1.86791e-07
626.756	-2.24206e-07
635.434	-2.09439e-07
644.112	-1.49731e-07
652.79	-1.44897e-07
661.469	-1.3027e-07
670.147	-3.31878e-08
678.825	-3.49322e-08
687.503	5.26489e-08
696.181	2.95668e-07
704.859	2.25826e-07
713.537	4.24846e-07
722.216	7.14245e-07
730.894	6.69536e-07
739.572	1.31911e-06
748.25	1.09826e-06
756.928	1.51951e-06
765.606	1.00983e-06
774.285	7.40197e-07
782.963	3.90829e-07
791.641	3.42155e-07
800.319	4.24654e-07
808.997	5.68567e-07
817.675	9.22447e-07
826.353	1.76856e-06
835.032	4.32056e-06
843.71	8.62398e-06
852.388	1.30734e-05
861.066	2.06888e-05
869.744	2.92714e-05
878.422	4.34668e-05
887.101	5.59495e-05
895.779	8.29418e-05
904.457	5.56636e-05
913.135	5.65278e-05
921.813	0.000133828
930.491	8.40549e-05
939.169	9.70633e-05
947.848	0.000302046
956.526	0.000107834
965.204	8.36036e-05
973.882	6.41779e-05
982.56	5.84167e-05
991.238	6.24661e-05
999.917	7.00217e-05
1008.59	6.92097e-05
1017.27	5.71864e-05
1025.95	4.78413e-05
1034.63	3.51565e-05
1043.31	2.99974e-05
1051.99	2.05563e-05
1060.66	1.58599e-05
1069.34	1.81031e-05
1078.02	8.38517e-06
1086.7	5.78261e-06
1095.38	5.19778e-06
1104.05	2.44546e-06
1112.73	1.77908e-06
1121.41	1.43225e-06
1130.09	5.87896e-07
1138.77	2.70547e-07
1147.45	1.97692e-07
1156.12	6.03167e-09
1164.8	-8.53001e-08
1173.48	-1.06926e-07
1182.16	-1.59152e-07
1190.84	-1.97239e-07
1199.51	-1.94359e-07
1208.19	-2.09293e-07
1216.87	-2.14084e-07
1225.55	-2.20303e-07
1234.23	-2.17498e-07
1242.9	-2.10953e-07
1251.58	-2.20468e-07
1260.26	-2.31221e-07
1268.94	-2.1592e-07
1277.62	-2.08939e-07
1286.3	-2.18542e-07
1294.97	-2.18724e-07
1303.65	-2.03932e-07
1312.33	-2.1355e-07
1321.01	-1.89141e-07
1329.69	-2.00427e-07
1338.36	-1.78127e-07
1347.04	-1.74582e-07
1355.72	-1.65311e-07
1364.4	-7.62935e-08
1373.08	6.81955e-08
1381.76	8.20271e-07
1390.43	3.20657e-06
1399.11	9.24754e-06
1407.79	1.78969e-05
1416.47	2.86598e-05
1425.15	2.7411e-05
1433.82	1.07557e-05
1442.5	2.70315e-05
1451.18	1.42499e-05
1459.86	1.95907e-05
1468.54	2.30742e-05
1477.22	1.51016e-05
1485.89	8.29285e-06
1494.57	3.59217e-06
1503.25	1.17672e-06
1511.93	1.86982e-07
1520.61	-1.55892e-07
1529.28	-1.91644e-07
1537.96	-2.39069e-07
1546.64	-2.25591e-07
1555.32	-2.31174e-07
1564	-2.28717e-07
1572.67	-2.20739e-07
1581.35	-2.30329e-07
1590.03	-2.1097e-07
1598.71	-2.33501e-07
1607.39	-2.25735e-07
1616.07	-2.64812e-07
1624.74	-2.23858e-07
1633.42	-2.30156e-07
1642.1	-2.35497e-07
1650.78	-2.51982e-07
1659.46	-2.39113e-07
1668.13	-2.49594e-07
1676.81	-2.43688e-07
1685.49	-2.57497e-07
1694.17	-2.20408e-07
1702.85	-2.01835e-07
1711.53	-1.61343e-07
1720.2	-1.24807e-07
1728.88	-8.36749e-08
1737.56	-1.60132e-08
1746.24	3.08869e-08
1754.92	3.69476e-08
1763.59	-1.09561e-07
1772.27	-9.93834e-08
1780.95	1.62706e-08
1789.63	-7.36561e-08
1798.31	-1.93532e-07
1806.98	-1.71344e-07
1815.66	-1.52659e-07
1824.34	2.45802e-07
1833.02	9.48243e-07
1841.7	2.71183e-06
1850.38	5.43286e-06
1859.05	8.43019e-06
1867.73	1.04034e-05
1876.41	7.1584e-06
1885.09	3.06835e-06
1893.77	3.43611e-06
1902.44	9.20643e-06
1911.12	1.37273e-05
1919.8	1.12623e-05
1928.48	6.59238e-06
1937.16	2.45245e-06
1945.84	7.34369e-07
1954.51	-2.95754e-08
1963.19	-6.26459e-08
1971.87	-2.1666e-07
1980.55	-2.33436e-08
1989.23	2.19778e-07
1997.9	7.95649e-08
2006.58	3.40834e-07
2015.26	6.7494e-07
2023.94	8.69999e-07
2032.62	7.98962e-07
2041.3	2.82077e-07
2049.97	9.63794e-08
2058.65	7.83052e-07
2067.33	1.72733e-06
2076.01	1.62437e-06
2084.69	8.71175e-07
2093.36	1.4122e-07
2102.04	-5.92281e-08
2110.72	-5.53028e-08
2119.4	-3.5668e-08
2128.08	4.0772e-09
2136.75	1.55339e-09
2145.43	1.52543e-07
2154.11	2.29699e-07
2162.79	2.04014e-07
2171.47	9.35209e-08
2180.15	4.84983e-07
2188.82	7.60263e-07
2197.5	5.04498e-07
2206.18	5.19771e-07
2214.86	3.72005e-07
2223.54	1.84883e-07
2232.21	1.21739e-07
2240.89	1.51638e-08
2249.57	1.04481e-07
2258.25	-5.09445e-08
2266.93	-1.14771e-07
2275.61	-1.14892e-07
2284.28	-1.31668e-07
2292.96	-1.14774e-07
2301.64	-1.10552e-07
2310.32	-9.79528e-08
2319	-8.23198e-08
2327.67	-4.75212e-08
2336.35	-2.58611e-08
2345.03	-5.10546e-08
2353.71	-3.18946e-08
2362.39	5.66451e-08
2371.06	-2.81939e-09
2379.74	-8.79976e-08
2388.42	-9.98864e-08
2397.1	-1.16182e-07
2405.78	-1.21501e-07
2414.46	-1.28618e-07
2423.13	-1.19053e-07
2431.81	-1.53925e-07
2440.49	-1.74728e-07
2449.17	-9.03887e-08
2457.85	-8.69217e-08
2466.52	-1.06225e-07
2475.2	-1.27837e-07
2483.88	-1.81428e-07
2492.56	-1.84426e-07
2501.24	-2.17721e-07
2509.92	-2.00778e-07
2518.59	-2.16594e-07
2527.27	-2.19738e-07
2535.95	-2.20116e-07
2544.63	-2.08622e-07
2553.31	-2.32376e-07
2561.98	-2.19069e-07
2570.66	-1.66081e-07
2579.34	-2.26556e-07
2588.02	-2.20483e-07
2596.7	-2.137e-07
2605.38	-2.14518e-07
2614.05	-2.1453e-07
2622.73	-2.04416e-07
2631.41	-2.07144e-07
2640.09	-2.08909e-07
2648.77	-2.01282e-07
2657.44	-2.13409e-07
2666.12	-2.22955e-07
2674.8	-2.20672e-07
2683.48	-2.30902e-07
2692.16	-2.27269e-07
2700.83	-2.44218e-07
2709.51	-2.4455e-07
2718.19	-2.46478e-07
2726.87	-2.30859e-07
2735.55	-2.36192e-07
2744.23	-2.33365e-07
2752.9	-2.44506e-07
2761.58	-2.51533e-07
2770.26	-2.50203e-07
2778.94	-2.70265e-07
2787.62	-2.68126e-07
2796.29	-2.94078e-07
2804.97	-3.3103e-07
2813.65	-3.22934e-07
2822.33	-3.92292e-07
2831.01	-4.16465e-07
2839.69	-4.8912e-07
2848.36	-4.2419e-07
2857.04	-3.49969e-07
2865.72	-2.9407e-07
2874.4	-2.3954e-07
2883.08	-2.607e-07
2891.75	-4.45048e-07
2900.43	-2.87364e-07
2909.11	-2.15041e-07
2917.79	1.53804e-07
2926.47	1.06794e-06
2935.14	3.72661e-06
2943.82	9.95596e-06
2952.5	1.75257e-05
2961.18	2.99792e-05
2969.86	2.84177e-05
2978.54	1.62648e-05
2987.21	7.73129e-05
2995.89	1.28179e-05
3004.57	3.4248e-05
3013.25	4.3086e-05
3021.93	3.07771e-05
3030.6	2.31103e-05
3039.28	1.76019e-05
3047.96	1.73917e-05
3056.64	2.00147e-05
3065.32	2.39853e-05
3074	3.43317e-05
3082.67	3.43118e-05
3091.35	3.45016e-05
3100.03	3.74043e-05
3108.71	2.61193e-05
3117.39	3.43497e-05
3126.06	4.73785e-05
3134.74	3.74645e-05
3143.42	2.79234e-05
3152.1	2.47393e-05
3160.78	2.08075e-05
3169.46	2.8445e-05
3178.13	1.44008e-05
3186.81	1.17273e-05
3195.49	8.55082e-06
3204.17	6.43306e-06
3212.85	4.49177e-06
3221.52	2.45469e-06
3230.2	1.59112e-06
3238.88	8.45094e-07
3247.56	4.60646e-07
3256.24	1.76303e-07
3264.91	5.45506e-09
3273.59	-5.87488e-08
3282.27	-1.31881e-07
3290.95	-1.36424e-07
3299.63	-1.41601e-07
3308.31	-1.72569e-07
3316.98	-1.92071e-07
3325.66	-1.73986e-07
3334.34	-1.98754e-07
3343.02	-1.71352e-07
3351.7	-1.49709e-07
3360.37	-1.81138e-07
3369.05	-1.48423e-07
3377.73	-1.80974e-07
3386.41	-1.66522e-07
3395.09	-1.89116e-07
3403.77	-2.2748e-07
3412.44	-2.36608e-07
3421.12	-2.32672e-07
3429.8	-2.29782e-07
3438.48	-2.39273e-07
3447.16	-2.20466e-07
3455.83	-2.283e-07
3464.51	-2.13201e-07
3473.19	-2.07437e-07
3481.87	-1.70822e-07
3490.55	-2.01409e-07
3499.22	-2.1274e-07
3507.9	-2.37211e-07
3516.58	-1.98127e-07
3525.26	-1.37396e-07
3533.94	-1.60294e-07
3542.62	-2.09715e-07
3551.29	-2.15574e-07
3559.97	-2.28827e-07
3568.65	-2.35385e-07
3577.33	-2.25566e-07
3586.01	-2.14224e-07
3594.68	-2.2978e-07
3603.36	-2.14813e-07
3612.04	-2.33042e-07
3620.72	-2.2188e-07
3629.4	-2.56889e-07
3638.08	-2.16914e-07
3646.75	-2.22811e-07
3655.43	-2.5066e-07
3664.11	-2.16518e-07
3672.79	-2.17577e-07
3681.47	-2.41396e-07
3690.14	-2.56266e-07
3698.82	-2.40341e-07
3707.5	-2.96551e-07
3716.18	-3.18381e-07
3724.86	-2.60986e-07
3733.54	-2.38388e-07
3742.21	-2.51037e-07
3750.89	-2.78773e-07
3759.57	-2.65493e-07
3768.25	-1.5908e-07
3776.93	-5.32194e-07
3785.6	-1.92232e-07
3794.28	-1.76009e-07
3802.96	-1.82831e-07
3811.64	-1.27791e-07
3820.32	-2.55058e-07
3828.99	-1.56263e-07
3837.67	-2.09322e-07
3846.35	-2.09366e-07
3855.03	-1.74434e-07
3863.71	-8.52965e-08
3872.39	-1.02728e-07
3881.06	-1.23475e-07
3889.74	-1.0594e-07
3898.42	-1.11974e-07
3907.1	-1.1879e-07
3915.78	-1.39459e-07
3924.45	-9.91242e-08
3933.13	-1.52561e-07
3941.81	-1.48805e-07
3950.49	-1.82013e-07
3959.17	-1.00318e-07
3967.85	-1.06861e-07
