Infrared Spectrum: Ethene
Formula: C H2: C H2
CAS: 74-85-1
State: gas
Melting point: -169.15 C
Boiling point: -103.71 C
Class: IUPAC A
Instrument: IFS66V (Bruker)
Instrument parameters: KBr Beam splitter; MCT Detector; Multipass cell
Sampling: 1 L/min Flow
Resolution: 0.1250
Temperature: 23 C
Pressure: 101.3 kPa
Origin: NIST, Anayltical Chemistry Division, 301-975-3108
cm-1	(micromol/mol)-1m-1 (base 10)
574.988	-2.98058e-07
583.546	1.61358e-07
592.103	-4.3683e-07
600.661	-3.12355e-07
609.219	-5.24572e-07
617.776	-7.55168e-08
626.334	-4.11968e-07
634.891	-6.73168e-08
643.449	-1.85567e-07
652.007	-3.41455e-07
660.564	-1.59772e-07
669.122	7.12567e-08
677.68	3.93156e-07
686.237	1.06738e-07
694.795	-4.47833e-08
703.352	7.90891e-07
711.91	1.07148e-06
720.468	4.85291e-07
729.025	1.49054e-06
737.583	1.04472e-06
746.141	5.12143e-07
754.698	1.77096e-06
763.256	3.18623e-07
771.813	1.97669e-07
780.371	1.27309e-07
788.929	2.05918e-07
797.486	4.3751e-07
806.044	5.07268e-07
814.602	5.79945e-07
823.159	9.24507e-07
831.717	1.49157e-06
840.274	8.60141e-06
848.832	1.02977e-05
857.39	3.03323e-05
865.947	4.32784e-05
874.505	3.3112e-05
883.063	3.86282e-05
891.62	5.21454e-05
900.178	3.35167e-05
908.735	0.000222071
917.293	3.61367e-05
925.851	5.32102e-05
934.408	7.43527e-05
942.966	8.27846e-05
951.524	0.000276775
960.081	6.05643e-05
968.639	5.35744e-05
977.196	0.000120276
985.754	6.79486e-05
994.312	6.19263e-05
1002.87	4.75745e-05
1011.43	0.000129533
1019.98	9.01687e-05
1028.54	2.90645e-05
1037.1	4.19188e-05
1045.66	2.72738e-05
1054.22	6.03505e-06
1062.77	9.05834e-06
1071.33	4.50887e-06
1079.89	4.1853e-06
1088.45	1.99162e-06
1097	8.05731e-06
1105.56	6.64431e-06
1114.12	1.10992e-06
1122.68	4.02464e-07
1131.23	6.47026e-07
1139.79	1.71983e-07
1148.35	8.43316e-08
1156.91	-1.86913e-07
1165.46	5.78199e-08
1174.02	-2.443e-07
1182.58	-2.3093e-07
1191.14	-2.25863e-07
1199.69	-2.18256e-07
1208.25	-2.05547e-07
1216.81	-2.62597e-07
1225.37	-2.4761e-07
1233.93	-2.55619e-07
1242.48	-2.63339e-07
1251.04	-2.37257e-07
1259.6	-2.37246e-07
1268.16	-2.76731e-07
1276.71	-2.18503e-07
1285.27	-1.90556e-07
1293.83	-2.439e-07
1302.39	-2.25561e-07
1310.94	-2.06583e-07
1319.5	-2.24093e-07
1328.06	-1.86076e-07
1336.62	-2.15251e-07
1345.17	-1.59514e-07
1353.73	-2.08957e-07
1362.29	-2.18303e-07
1370.85	-2.79323e-08
1379.4	8.28402e-07
1387.96	4.11397e-06
1396.52	1.06352e-05
1405.08	2.06996e-05
1413.64	2.01659e-05
1422.19	3.4968e-05
1430.75	1.38631e-05
1439.31	3.53958e-06
1447.87	1.79381e-05
1456.42	2.09022e-05
1464.98	3.72211e-05
1473.54	1.93429e-05
1482.1	1.60642e-05
1490.65	1.23029e-05
1499.21	7.6809e-07
1507.77	3.67101e-07
1516.33	-5.99263e-08
1524.88	-1.78809e-07
1533.44	-2.80638e-07
1542	-4.16677e-07
1550.56	-2.40629e-07
1559.11	-2.5294e-07
1567.67	-2.08415e-07
1576.23	-5.06997e-07
1584.79	-2.74724e-07
1593.35	-2.7547e-07
1601.9	-2.609e-07
1610.46	-2.19842e-07
1619.02	-2.71241e-07
1627.58	-2.69666e-07
1636.13	-2.57584e-07
1644.69	-2.47076e-07
1653.25	-5.61168e-07
1661.81	-2.68092e-07
1670.36	-2.49109e-07
1678.92	-2.14856e-07
1687.48	-2.5561e-07
1696.04	-3.13381e-07
1704.59	-1.6447e-07
1713.15	-1.87293e-07
1721.71	-9.41104e-08
1730.27	4.58619e-08
1738.83	-3.10918e-08
1747.38	3.14629e-08
1755.94	-6.18544e-08
1764.5	-1.68596e-07
1773.06	-6.57507e-08
1781.61	-2.11529e-08
1790.17	-4.60748e-08
1798.73	-1.97816e-07
1807.29	-1.87439e-07
1815.84	-9.25843e-08
1824.4	2.41599e-07
1832.96	1.11098e-06
1841.52	2.6174e-06
1850.07	5.83956e-06
1858.63	1.12699e-05
1867.19	5.06834e-06
1875.75	6.53424e-06
1884.3	1.39935e-06
1892.86	2.33239e-06
1901.42	1.25632e-05
1909.98	9.01881e-06
1918.54	1.30494e-05
1927.09	4.73979e-06
1935.65	1.84089e-06
1944.21	1.01957e-06
1952.77	1.43483e-07
1961.32	-3.48749e-07
1969.88	-1.34543e-07
1978.44	1.91249e-07
1987	-9.9129e-08
1995.55	2.85813e-07
2004.11	3.27369e-07
2012.67	1.12313e-07
2021.23	2.57471e-07
2029.78	1.16595e-06
2038.34	1.38349e-06
2046.9	5.17346e-06
2055.46	-8.29982e-08
2064.01	7.10235e-07
2072.57	2.09948e-06
2081.13	1.03636e-06
2089.69	3.64966e-07
2098.25	-5.93042e-08
2106.8	-2.76496e-07
2115.36	-1.75928e-07
2123.92	2.6381e-07
2132.48	4.79145e-07
2141.03	3.3669e-07
2149.59	1.44764e-07
2158.15	5.29409e-07
2166.71	1.95971e-07
2175.26	1.57142e-07
2183.82	1.93963e-07
2192.38	5.71391e-07
2200.94	7.7593e-07
2209.49	2.39858e-07
2218.05	1.99009e-07
2226.61	1.23612e-07
2235.17	7.5715e-08
2243.72	1.00797e-07
2252.28	5.02624e-07
2260.84	-2.02198e-08
2269.4	-1.64156e-07
2277.96	-1.53484e-07
2286.51	-1.56152e-07
2295.07	-1.60743e-07
2303.63	-1.10698e-07
2312.19	-1.00955e-07
2320.74	-1.43365e-07
2329.3	-9.92999e-08
2337.86	3.49808e-08
2346.42	-5.62683e-08
2354.97	-1.30594e-07
2363.53	-1.49713e-07
2372.09	-3.67361e-08
2380.65	-8.84206e-08
2389.2	-1.09141e-07
2397.76	-1.56843e-07
2406.32	-1.79648e-07
2414.88	-1.44174e-07
2423.44	-9.02614e-08
2431.99	-1.33762e-07
2440.55	-2.2854e-07
2449.11	-9.04379e-08
2457.67	-6.3677e-08
2466.22	-9.48962e-08
2474.78	-1.19303e-07
2483.34	-1.36842e-07
2491.9	-1.98123e-07
2500.45	-2.15425e-07
2509.01	-2.66119e-07
2517.57	-2.70026e-07
2526.13	-2.38266e-07
2534.68	-1.84023e-07
2543.24	-1.55254e-07
2551.8	-2.39387e-07
2560.36	-2.2808e-07
2568.91	-4.02777e-08
2577.47	-2.04188e-07
2586.03	-2.3857e-07
2594.59	-2.51339e-07
2603.15	-1.59979e-07
2611.7	-2.62517e-07
2620.26	-2.05963e-07
2628.82	-2.18731e-07
2637.38	-2.08039e-07
2645.93	-2.17368e-07
2654.49	-1.89807e-07
2663.05	-1.92102e-07
2671.61	-1.96803e-07
2680.16	-2.79579e-07
2688.72	-2.62066e-07
2697.28	-2.56538e-07
2705.84	-2.69251e-07
2714.39	-2.31161e-07
2722.95	-2.48873e-07
2731.51	-2.21566e-07
2740.07	-2.42195e-07
2748.62	-3.09841e-07
2757.18	-2.85574e-07
2765.74	-2.9679e-07
2774.3	-2.71032e-07
2782.86	-3.56624e-07
2791.41	-3.90691e-07
2799.97	-3.94686e-07
2808.53	-3.79015e-07
2817.09	-2.38281e-07
2825.64	-3.86058e-07
2834.2	-4.32533e-07
2842.76	-3.6315e-07
2851.32	-3.98873e-07
2859.87	-5.05282e-07
2868.43	-2.42217e-07
2876.99	-2.9933e-07
2885.55	-7.18965e-07
2894.1	-5.2085e-07
2902.66	-3.1104e-07
2911.22	-2.7658e-07
2919.78	7.69028e-08
2928.34	1.09397e-06
2936.89	4.16651e-06
2945.45	2.29285e-05
2954.01	1.55791e-05
2962.57	7.2e-05
2971.12	2.15146e-05
2979.68	1.55264e-05
2988.24	0.000289563
2996.8	6.78531e-06
3005.35	2.61056e-05
3013.91	6.21556e-05
3022.47	3.45769e-05
3031.03	1.55251e-05
3039.58	1.55784e-05
3048.14	2.63515e-05
3056.7	2.17469e-05
3065.26	2.39147e-05
3073.81	4.34453e-05
3082.37	2.66117e-05
3090.93	2.91752e-05
3099.49	4.75676e-05
3108.05	1.63939e-05
3116.6	3.97466e-05
3125.16	7.28706e-05
3133.72	4.61912e-05
3142.28	2.37506e-05
3150.83	4.17439e-05
3159.39	1.50844e-05
3167.95	3.94944e-05
3176.51	1.22057e-05
3185.06	4.15828e-06
3193.62	1.81609e-05
3202.18	6.03686e-06
3210.74	2.75445e-06
3219.29	3.48556e-06
3227.85	3.0301e-06
3236.41	1.05102e-06
3244.97	1.34623e-07
3253.52	1.16782e-07
3262.08	-5.7498e-08
3270.64	-8.43898e-08
3279.2	-1.36307e-07
3287.76	-1.66442e-07
3296.31	-1.93583e-07
3304.87	-2.11105e-07
3313.43	-1.05668e-07
3321.99	-1.90183e-07
3330.54	-2.88248e-07
3339.1	-2.09168e-07
3347.66	-2.42399e-07
3356.22	-2.46275e-07
3364.77	-2.13275e-07
3373.33	-2.07798e-07
3381.89	-1.42315e-07
3390.45	-2.45751e-07
3399	-1.92352e-07
3407.56	-2.0326e-07
3416.12	-2.51034e-07
3424.68	-2.94977e-07
3433.23	-1.43197e-07
3441.79	-2.69968e-07
3450.35	-3.43362e-07
3458.91	-2.67681e-07
3467.47	-1.80941e-07
3476.02	-1.73303e-07
3484.58	-1.84656e-07
3493.14	-1.58642e-07
3501.7	-2.57828e-07
3510.25	-1.88099e-07
3518.81	-2.13921e-07
3527.37	-2.32835e-07
3535.93	-1.66977e-07
3544.48	-2.53659e-07
3553.04	-2.18067e-07
3561.6	-2.21001e-07
3570.16	-1.74815e-07
3578.71	-1.60028e-07
3587.27	-2.86222e-07
3595.83	-2.68243e-07
3604.39	-2.39865e-07
3612.95	-2.62875e-07
3621.5	-2.15245e-07
3630.06	-2.17999e-07
3638.62	-2.0079e-07
3647.18	-2.97494e-07
3655.73	-2.49422e-07
3664.29	-2.20866e-07
3672.85	-2.46188e-07
3681.41	-2.44926e-07
3689.96	-2.69951e-07
3698.52	-2.66384e-07
3707.08	-3.70386e-07
3715.64	-2.73471e-07
3724.19	-2.51447e-07
3732.75	-4.14729e-07
3741.31	-1.44696e-07
3749.87	-1.94989e-07
3758.42	-3.13563e-07
3766.98	-2.4012e-07
3775.54	-5.04718e-07
3784.1	-2.3206e-07
3792.66	-1.37919e-07
3801.21	-2.3303e-07
3809.77	-3.19482e-07
3818.33	-7.76686e-08
3826.89	-2.77784e-07
3835.44	-1.66629e-07
3844	-1.34841e-07
3852.56	-2.36198e-07
3861.12	-1.11413e-08
3869.67	-1.38914e-07
3878.23	-1.43783e-07
3886.79	-1.39952e-07
3895.35	-1.86076e-07
3903.9	-2.20506e-07
3912.46	-1.52916e-07
3921.02	1.13146e-07
3929.58	-3.6667e-08
3938.13	-1.30728e-07
3946.69	-8.77167e-08
3955.25	-1.33602e-07
3963.81	-2.17057e-07
3972.37	-1.23849e-07
