Infrared Spectrum: Ethene
Formula: C H2: C H2
CAS: 74-85-1
State: gas
Melting point: -169.15 C
Boiling point: -103.71 C
Class: IUPAC A
Instrument: IFS66V (Bruker)
Instrument parameters: KBr Beam splitter; MCT Detector; Multipass cell
Sampling: 1 L/min Flow
Resolution: 0.9640
Temperature: 23 C
Pressure: 101.3 kPa
Origin: NIST, Anayltical Chemistry Division, 301-975-3108
cm-1	(micromol/mol)-1m-1 (base 10)
575.169	-1.19183e-07
583.847	-2.51254e-07
592.525	-4.00856e-07
601.203	-3.64442e-07
609.882	-2.39423e-07
618.56	-2.17766e-07
627.238	-1.52629e-07
635.916	-2.22205e-07
644.594	-1.09204e-07
653.272	-9.74719e-08
661.951	-1.63292e-07
670.629	-1.00651e-07
679.307	2.49273e-08
687.985	1.60423e-07
696.663	1.78404e-07
705.341	3.50004e-07
714.019	7.18115e-07
722.698	4.46123e-07
731.376	8.89534e-07
740.054	8.41411e-07
748.732	1.28658e-06
757.41	1.49199e-06
766.088	1.26636e-06
774.767	8.65438e-07
783.445	3.22638e-07
792.123	3.18271e-07
800.801	2.78479e-07
809.479	5.44101e-07
818.157	9.86187e-07
826.835	1.21722e-06
835.514	3.98481e-06
844.192	1.06587e-05
852.87	1.1898e-05
861.548	1.76043e-05
870.226	2.52399e-05
878.904	5.46573e-05
887.583	4.23909e-05
896.261	0.00010704
904.939	4.43972e-05
913.617	6.37969e-05
922.295	0.00024136
930.973	6.94024e-05
939.651	0.000109153
948.33	0.000354958
957.008	9.98349e-05
965.686	9.08793e-05
974.364	5.06941e-05
983.042	5.77744e-05
991.72	5.95231e-05
1000.4	7.23961e-05
1009.08	5.55159e-05
1017.75	5.71544e-05
1026.43	4.38995e-05
1035.11	3.23435e-05
1043.79	4.18273e-05
1052.47	1.06414e-05
1061.15	1.76631e-05
1069.82	1.44745e-05
1078.5	5.9322e-06
1087.18	2.925e-06
1095.86	2.45563e-06
1104.54	1.37181e-06
1113.21	1.41897e-06
1121.89	1.49828e-06
1130.57	5.49479e-07
1139.25	3.77802e-08
1147.93	1.5718e-07
1156.61	-1.4687e-07
1165.28	-1.58124e-07
1173.96	-2.35123e-07
1182.64	-2.28473e-07
1191.32	-2.774e-07
1200	-2.75015e-07
1208.67	-2.91377e-07
1217.35	-2.95883e-07
1226.03	-2.82884e-07
1234.71	-2.90975e-07
1243.39	-2.7034e-07
1252.07	-2.90322e-07
1260.74	-2.94031e-07
1269.42	-2.64172e-07
1278.1	-2.7268e-07
1286.78	-2.91013e-07
1295.46	-2.7659e-07
1304.13	-2.56418e-07
1312.81	-2.72672e-07
1321.49	-2.47309e-07
1330.17	-2.68221e-07
1338.85	-2.69715e-07
1347.52	-2.46004e-07
1356.2	-2.5949e-07
1364.88	-1.26976e-07
1373.56	-8.069e-08
1382.24	4.72882e-07
1390.92	3.34114e-06
1399.59	1.07985e-05
1408.27	1.89985e-05
1416.95	2.9671e-05
1425.63	2.40011e-05
1434.31	7.20265e-06
1442.98	4.57668e-05
1451.66	1.51472e-05
1460.34	2.04818e-05
1469.02	1.54035e-05
1477.7	1.72436e-05
1486.38	6.80884e-06
1495.05	3.42259e-06
1503.73	1.05265e-06
1512.41	2.09492e-08
1521.09	-2.66015e-07
1529.77	-2.44784e-07
1538.44	-2.9858e-07
1547.12	-2.54393e-07
1555.8	-2.50268e-07
1564.48	-2.57944e-07
1573.16	-2.26674e-07
1581.83	-2.60391e-07
1590.51	-2.09212e-07
1599.19	-2.49859e-07
1607.87	-2.51594e-07
1616.55	-3.31704e-07
1625.23	-2.50537e-07
1633.9	-2.51492e-07
1642.58	-2.53222e-07
1651.26	-2.76159e-07
1659.94	-2.51821e-07
1668.62	-2.77731e-07
1677.29	-2.56527e-07
1685.97	-2.4295e-07
1694.65	-2.34065e-07
1703.33	-2.12311e-07
1712.01	-1.53173e-07
1720.69	-1.70906e-07
1729.36	-1.48254e-07
1738.04	-2.26772e-08
1746.72	1.02541e-07
1755.4	-7.77759e-08
1764.08	-1.26365e-07
1772.75	-1.6359e-07
1781.43	5.95316e-08
1790.11	-8.00169e-08
1798.79	-1.96286e-07
1807.47	-2.14143e-07
1816.15	-1.72527e-07
1824.82	2.83212e-07
1833.5	7.13946e-07
1842.18	2.22183e-06
1850.86	5.68854e-06
1859.54	5.95824e-06
1868.21	1.46312e-05
1876.89	4.45231e-06
1885.57	3.09762e-06
1894.25	4.00772e-06
1902.93	9.19312e-06
1911.6	1.34132e-05
1920.28	1.39496e-05
1928.96	4.82138e-06
1937.64	2.05734e-06
1946.32	5.33727e-07
1955	-1.51104e-07
1963.67	-8.22124e-08
1972.35	-2.42124e-07
1981.03	-1.13062e-07
1989.71	1.29317e-07
1998.39	-3.66634e-08
2007.06	4.90301e-07
2015.74	6.55426e-07
2024.42	1.17739e-06
2033.1	6.72275e-07
2041.78	1.46941e-07
2050.46	-1.94685e-07
2059.13	4.57857e-07
2067.81	1.76869e-06
2076.49	1.46129e-06
2085.17	8.74462e-07
2093.85	7.61007e-08
2102.52	-1.37871e-07
2111.2	-4.85122e-09
2119.88	1.89756e-08
2128.56	-5.78745e-08
2137.24	-5.9708e-08
2145.91	1.00817e-07
2154.59	3.36018e-07
2163.27	1.92286e-07
2171.95	7.18424e-08
2180.63	5.12792e-07
2189.31	7.72333e-07
2197.98	4.28981e-07
2206.66	3.88234e-07
2215.34	3.75574e-07
2224.02	2.26794e-07
2232.7	1.14003e-07
2241.37	3.92354e-09
2250.05	1.16791e-07
2258.73	-7.85745e-08
2267.41	-1.0886e-07
2276.09	-1.56912e-07
2284.77	-1.55848e-07
2293.44	-1.65813e-07
2302.12	-9.7772e-08
2310.8	-1.37782e-07
2319.48	-9.00504e-08
2328.16	-8.53847e-08
2336.83	-1.43165e-07
2345.51	-1.05823e-07
2354.19	-8.7311e-10
2362.87	1.0778e-07
2371.55	-1.66e-08
2380.23	-9.73009e-08
2388.9	-1.00746e-07
2397.58	-1.43612e-07
2406.26	-1.46257e-07
2414.94	-1.28142e-07
2423.62	-1.24387e-07
2432.29	-1.64921e-07
2440.97	-1.81869e-07
2449.65	-1.03942e-07
2458.33	-5.86148e-08
2467.01	-1.23543e-07
2475.68	-1.34586e-07
2484.36	-1.87859e-07
2493.04	-2.09927e-07
2501.72	-2.33235e-07
2510.4	-2.01832e-07
2519.08	-2.18771e-07
2527.75	-2.27465e-07
2536.43	-2.28793e-07
2545.11	-2.18281e-07
2553.79	-2.39094e-07
2562.47	-2.14531e-07
2571.14	-1.82335e-07
2579.82	-2.4347e-07
2588.5	-2.24197e-07
2597.18	-2.28529e-07
2605.86	-2.22554e-07
2614.54	-2.23129e-07
2623.21	-2.1317e-07
2631.89	-2.22507e-07
2640.57	-2.14218e-07
2649.25	-2.14176e-07
2657.93	-2.31891e-07
2666.6	-2.39649e-07
2675.28	-2.29895e-07
2683.96	-2.54112e-07
2692.64	-2.28755e-07
2701.32	-2.63006e-07
2709.99	-2.57297e-07
2718.67	-2.4999e-07
2727.35	-2.42747e-07
2736.03	-2.6468e-07
2744.71	-2.5587e-07
2753.39	-2.45149e-07
2762.06	-2.74451e-07
2770.74	-2.72143e-07
2779.42	-2.94979e-07
2788.1	-3.05198e-07
2796.78	-3.28022e-07
2805.45	-3.66006e-07
2814.13	-3.56882e-07
2822.81	-4.43076e-07
2831.49	-4.61215e-07
2840.17	-5.53432e-07
2848.85	-4.68717e-07
2857.52	-3.49339e-07
2866.2	-3.73038e-07
2874.88	-2.34332e-07
2883.56	-2.96426e-07
2892.24	-5.87183e-07
2900.91	-3.56913e-07
2909.59	-2.65935e-07
2918.27	5.29978e-08
2926.95	9.02845e-07
2935.63	4.04435e-06
2944.31	6.24922e-06
2952.98	2.10829e-05
2961.66	2.21716e-05
2970.34	2.89739e-05
2979.02	1.41277e-05
2987.7	0.000139146
2996.37	1.24059e-05
3005.05	4.03226e-05
3013.73	5.5764e-05
3022.41	2.91246e-05
3031.09	2.12584e-05
3039.76	1.48808e-05
3048.44	1.70554e-05
3057.12	1.92642e-05
3065.8	2.65208e-05
3074.48	3.35431e-05
3083.16	3.75957e-05
3091.83	3.25183e-05
3100.51	3.54067e-05
3109.19	3.16237e-05
3117.87	3.56149e-05
3126.55	4.36497e-05
3135.22	3.71439e-05
3143.9	2.10938e-05
3152.58	2.95129e-05
3161.26	2.30094e-05
3169.94	3.5457e-05
3178.62	1.51762e-05
3187.29	9.18209e-06
3195.97	8.20497e-06
3204.65	8.76499e-06
3213.33	5.03139e-06
3222.01	2.18105e-06
3230.68	9.88521e-07
3239.36	4.7423e-07
3248.04	1.86291e-07
3256.72	2.65753e-08
3265.4	-8.48554e-08
3274.07	-1.10689e-07
3282.75	-1.61474e-07
3291.43	-1.64529e-07
3300.11	-1.78295e-07
3308.79	-1.9339e-07
3317.47	-1.8799e-07
3326.14	-2.11269e-07
3334.82	-2.16646e-07
3343.5	-1.8122e-07
3352.18	-1.65203e-07
3360.86	-1.64439e-07
3369.53	-1.47858e-07
3378.21	-1.81041e-07
3386.89	-1.67008e-07
3395.57	-2.20107e-07
3404.25	-2.06765e-07
3412.93	-2.36862e-07
3421.6	-2.34754e-07
3430.28	-2.26609e-07
3438.96	-2.6126e-07
3447.64	-2.48296e-07
3456.32	-2.08419e-07
3464.99	-2.12322e-07
3473.67	-2.29928e-07
3482.35	-2.02391e-07
3491.03	-1.84435e-07
3499.71	-2.33966e-07
3508.39	-2.42648e-07
3517.06	-1.68399e-07
3525.74	-1.28569e-07
3534.42	-1.3807e-07
3543.1	-2.12957e-07
3551.78	-2.35254e-07
3560.45	-2.36411e-07
3569.13	-2.22338e-07
3577.81	-2.2093e-07
3586.49	-2.37637e-07
3595.17	-2.19707e-07
3603.84	-2.30727e-07
3612.52	-2.42328e-07
3621.2	-2.11402e-07
3629.88	-2.54304e-07
3638.56	-2.03706e-07
3647.24	-2.15516e-07
3655.91	-2.47001e-07
3664.59	-2.2549e-07
3673.27	-2.21643e-07
3681.95	-2.64449e-07
3690.63	-2.6253e-07
3699.3	-2.56052e-07
3707.98	-3.12766e-07
3716.66	-3.63396e-07
3725.34	-1.85812e-07
3734.02	-2.23596e-07
3742.7	-2.7969e-07
3751.37	-3.12806e-07
3760.05	-2.17326e-07
3768.73	-1.4038e-07
3777.41	-5.82403e-07
3786.09	-1.75843e-07
3794.76	-2.35563e-07
3803.44	-8.01825e-08
3812.12	-2.29617e-07
3820.8	-2.04304e-07
3829.48	-1.88381e-07
3838.16	-1.11349e-07
3846.83	-2.13323e-07
3855.51	-1.77565e-07
3864.19	-6.00373e-08
3872.87	-1.00402e-07
3881.55	-1.33178e-07
3890.22	-1.14656e-07
3898.9	-1.17259e-07
3907.58	-1.0278e-07
3916.26	-1.35454e-07
3924.94	-1.00422e-07
3933.61	-1.539e-07
3942.29	-1.77376e-07
3950.97	-1.58795e-07
3959.65	-8.07627e-08
3968.33	-9.66351e-08
