Infrared Spectrum: Ethene
Formula: C H2: C H2
CAS: 74-85-1
State: gas
Melting point: -169.15 C
Boiling point: -103.71 C
Class: IUPAC A
Instrument: IFS66V (Bruker)
Instrument parameters: KBr Beam splitter; MCT Detector; Multipass cell
Sampling: 1 L/min Flow
Resolution: 0.4820
Temperature: 23 C
Pressure: 101.3 kPa
Origin: NIST, Anayltical Chemistry Division, 301-975-3108
cm-1	(micromol/mol)-1m-1 (base 10)
574.928	-7.71939e-08
583.606	-1.40403e-07
592.284	-4.26767e-07
600.962	-4.24823e-07
609.641	-3.52686e-07
618.319	-2.86407e-07
626.997	-2.09734e-07
635.675	-3.36779e-07
644.353	-1.48529e-07
653.031	-1.13515e-07
661.71	-2.41091e-07
670.388	-1.34181e-07
679.066	-1.10981e-07
687.744	2.82413e-07
696.422	5.38691e-08
705.1	1.51283e-07
713.778	9.35061e-07
722.457	3.1261e-07
731.135	9.79612e-07
739.813	1.08091e-06
748.491	1.01059e-06
757.169	1.26812e-06
765.847	1.34625e-06
774.526	5.11468e-07
783.204	6.44537e-08
791.882	1.79864e-07
800.56	9.77593e-08
809.238	4.9664e-07
817.916	9.48873e-07
826.594	6.57197e-07
835.273	4.192e-06
843.951	1.17251e-05
852.629	9.04818e-06
861.307	2.01948e-05
869.985	2.59681e-05
878.663	6.65248e-05
887.342	3.58425e-05
896.02	8.34559e-05
904.698	4.83332e-05
913.376	9.04587e-05
922.054	0.00015566
930.732	6.55145e-05
939.41	0.000101197
948.089	0.000311349
956.767	9.00843e-05
965.445	0.000102188
974.123	4.70378e-05
982.801	6.49584e-05
991.479	7.81778e-05
1000.16	5.08297e-05
1008.84	5.12191e-05
1017.51	7.30596e-05
1026.19	5.12862e-05
1034.87	2.14841e-05
1043.55	2.6162e-05
1052.23	8.91195e-06
1060.9	1.18734e-05
1069.58	9.64185e-06
1078.26	3.41395e-06
1086.94	2.2535e-06
1095.62	1.95473e-06
1104.3	1.06634e-06
1112.97	2.4537e-06
1121.65	6.71411e-07
1130.33	5.2393e-07
1139.01	2.00934e-07
1147.69	4.64191e-07
1156.36	-1.08564e-07
1165.04	-1.44614e-07
1173.72	-1.61243e-07
1182.4	-1.99551e-07
1191.08	-2.19354e-07
1199.76	-2.17756e-07
1208.43	-2.31949e-07
1217.11	-2.46546e-07
1225.79	-2.28257e-07
1234.47	-2.43794e-07
1243.15	-2.42988e-07
1251.82	-2.50606e-07
1260.5	-2.59177e-07
1269.18	-2.20388e-07
1277.86	-2.29421e-07
1286.54	-2.67799e-07
1295.21	-2.48862e-07
1303.89	-2.1323e-07
1312.57	-2.35329e-07
1321.25	-2.21172e-07
1329.93	-2.09257e-07
1338.61	-2.32169e-07
1347.28	-2.21945e-07
1355.96	-2.21544e-07
1364.64	-1.54331e-07
1373.32	-1.65545e-08
1382	3.33996e-07
1390.67	2.7434e-06
1399.35	1.10274e-05
1408.03	1.80973e-05
1416.71	3.52325e-05
1425.39	2.78967e-05
1434.07	9.16979e-06
1442.74	3.65065e-05
1451.42	1.39439e-05
1460.1	3.20131e-05
1468.78	1.28936e-05
1477.46	1.31595e-05
1486.13	7.81641e-06
1494.81	2.51337e-06
1503.49	1.34772e-06
1512.17	1.01717e-08
1520.85	-2.20533e-07
1529.52	-2.43732e-07
1538.2	-2.77114e-07
1546.88	-2.3932e-07
1555.56	-2.43045e-07
1564.24	-2.34359e-07
1572.92	-2.26658e-07
1581.59	-2.61367e-07
1590.27	-1.8877e-07
1598.95	-2.37653e-07
1607.63	-2.25413e-07
1616.31	-2.68576e-07
1624.98	-2.36116e-07
1633.66	-2.38372e-07
1642.34	-2.58024e-07
1651.02	-2.67359e-07
1659.7	-2.46846e-07
1668.38	-2.61315e-07
1677.05	-2.58204e-07
1685.73	-2.4108e-07
1694.41	-2.18352e-07
1703.09	-1.92905e-07
1711.77	-1.33644e-07
1720.44	-1.47359e-07
1729.12	-1.6088e-07
1737.8	-4.55836e-09
1746.48	8.7442e-08
1755.16	-5.48277e-08
1763.84	-1.37146e-07
1772.51	-2.43743e-07
1781.19	1.0925e-07
1789.87	3.20559e-08
1798.55	-2.23185e-07
1807.23	-1.87601e-07
1815.9	-1.1944e-07
1824.58	2.68021e-07
1833.26	8.69365e-07
1841.94	2.10505e-06
1850.62	8.09329e-06
1859.29	4.7586e-06
1867.97	1.13247e-05
1876.65	4.57579e-06
1885.33	3.77629e-06
1894.01	2.11967e-06
1902.69	4.77626e-06
1911.36	1.19959e-05
1920.04	1.3101e-05
1928.72	6.21915e-06
1937.4	2.17292e-06
1946.08	8.21071e-07
1954.75	-7.31812e-08
1963.43	-8.53502e-08
1972.11	-3.34139e-07
1980.79	-1.67093e-07
1989.47	2.66133e-07
1998.15	-1.93219e-07
2006.82	5.39739e-07
2015.5	6.3221e-07
2024.18	1.752e-06
2032.86	7.84013e-07
2041.54	-5.5699e-08
2050.21	-1.75464e-07
2058.89	2.51347e-07
2067.57	7.90025e-07
2076.25	1.28134e-06
2084.93	6.87796e-07
2093.6	8.05262e-08
2102.28	-8.19159e-08
2110.96	-6.84027e-08
2119.64	3.14356e-08
2128.32	-1.046e-07
2137	-1.80727e-07
2145.67	9.06998e-08
2154.35	1.75071e-07
2163.03	3.118e-07
2171.71	1.33675e-07
2180.39	5.2522e-07
2189.06	4.88563e-07
2197.74	4.74212e-07
2206.42	4.58405e-07
2215.1	4.70632e-07
2223.78	2.58264e-07
2232.46	8.56449e-08
2241.13	2.9884e-08
2249.81	6.20363e-08
2258.49	-7.10566e-08
2267.17	-8.53102e-08
2275.85	-1.41384e-07
2284.52	-1.60576e-07
2293.2	-1.48667e-07
2301.88	-9.58421e-08
2310.56	-1.10474e-07
2319.24	-3.80858e-08
2327.92	-1.02549e-07
2336.59	-1.22927e-07
2345.27	-1.54611e-07
2353.95	-9.98311e-08
2362.63	1.70644e-07
2371.31	3.97192e-08
2379.98	-1.23463e-07
2388.66	-1.18259e-07
2397.34	-1.36956e-07
2406.02	-1.14241e-07
2414.7	-1.56229e-07
2423.37	-8.68508e-08
2432.05	-1.55099e-07
2440.73	-1.94755e-07
2449.41	-1.16495e-07
2458.09	-1.08484e-07
2466.77	-1.28756e-07
2475.44	-1.09159e-07
2484.12	-2.00646e-07
2492.8	-1.98296e-07
2501.48	-2.29388e-07
2510.16	-1.96102e-07
2518.83	-2.00175e-07
2527.51	-2.33646e-07
2536.19	-2.13028e-07
2544.87	-2.09332e-07
2553.55	-2.40624e-07
2562.23	-2.25033e-07
2570.9	-1.73809e-07
2579.58	-2.63048e-07
2588.26	-2.27802e-07
2596.94	-2.116e-07
2605.62	-2.02565e-07
2614.29	-2.20208e-07
2622.97	-2.26983e-07
2631.65	-2.06585e-07
2640.33	-2.0181e-07
2649.01	-2.08401e-07
2657.68	-2.23549e-07
2666.36	-2.24268e-07
2675.04	-2.2056e-07
2683.72	-2.45935e-07
2692.4	-2.32975e-07
2701.08	-2.64469e-07
2709.75	-2.4185e-07
2718.43	-2.47721e-07
2727.11	-2.48613e-07
2735.79	-2.51971e-07
2744.47	-2.63021e-07
2753.14	-2.33515e-07
2761.82	-2.5232e-07
2770.5	-2.70119e-07
2779.18	-3.2031e-07
2787.86	-2.9096e-07
2796.54	-3.68185e-07
2805.21	-3.68574e-07
2813.89	-3.47503e-07
2822.57	-3.87355e-07
2831.25	-4.7815e-07
2839.93	-5.66649e-07
2848.6	-3.87716e-07
2857.28	-3.46248e-07
2865.96	-3.53619e-07
2874.64	-2.29559e-07
2883.32	-2.83908e-07
2892	-5.03321e-07
2900.67	-2.8317e-07
2909.35	-2.63779e-07
2918.03	1.86809e-08
2926.71	7.97479e-07
2935.39	2.70266e-06
2944.06	4.66963e-06
2952.74	1.87366e-05
2961.42	1.88411e-05
2970.1	4.43422e-05
2978.78	6.92233e-06
2987.45	8.13286e-05
2996.13	1.67978e-05
3004.81	4.69785e-05
3013.49	5.60683e-05
3022.17	2.12951e-05
3030.85	2.04406e-05
3039.52	1.55499e-05
3048.2	1.99651e-05
3056.88	2.54513e-05
3065.56	2.20849e-05
3074.24	3.73198e-05
3082.91	3.55597e-05
3091.59	3.50328e-05
3100.27	3.34907e-05
3108.95	3.06497e-05
3117.63	2.97779e-05
3126.31	4.61382e-05
3134.98	3.69651e-05
3143.66	2.20074e-05
3152.34	2.55844e-05
3161.02	1.33528e-05
3169.7	5.05957e-05
3178.37	1.27907e-05
3187.05	7.87692e-06
3195.73	1.27876e-05
3204.41	7.08543e-06
3213.09	3.73024e-06
3221.77	1.25485e-06
3230.44	6.03026e-07
3239.12	4.51766e-07
3247.8	1.45276e-07
3256.48	-2.51201e-09
3265.16	-1.12811e-07
3273.83	-1.38423e-07
3282.51	-1.84848e-07
3291.19	-1.51825e-07
3299.87	-1.9337e-07
3308.55	-2.01397e-07
3317.22	-2.01668e-07
3325.9	-2.07049e-07
3334.58	-2.59405e-07
3343.26	-1.5123e-07
3351.94	-1.71654e-07
3360.62	-1.61664e-07
3369.29	-1.25604e-07
3377.97	-1.40858e-07
3386.65	-1.60745e-07
3395.33	-2.30799e-07
3404.01	-2.46324e-07
3412.68	-2.23656e-07
3421.36	-2.67228e-07
3430.04	-2.16731e-07
3438.72	-3.06833e-07
3447.4	-2.24984e-07
3456.08	-2.47403e-07
3464.75	-2.34912e-07
3473.43	-2.07402e-07
3482.11	-1.7679e-07
3490.79	-2.11493e-07
3499.47	-2.40125e-07
3508.14	-2.68491e-07
3516.82	-1.53207e-07
3525.5	-1.45071e-07
3534.18	-1.36091e-07
3542.86	-1.82704e-07
3551.53	-2.01096e-07
3560.21	-2.53499e-07
3568.89	-2.25257e-07
3577.57	-2.36838e-07
3586.25	-2.17857e-07
3594.93	-1.90575e-07
3603.6	-2.37897e-07
3612.28	-2.34685e-07
3620.96	-2.05163e-07
3629.64	-3.40471e-07
3638.32	-2.0316e-07
3646.99	-2.30519e-07
3655.67	-2.26774e-07
3664.35	-2.2937e-07
3673.03	-2.33615e-07
3681.71	-2.34965e-07
3690.39	-2.1725e-07
3699.06	-2.39376e-07
3707.74	-3.02449e-07
3716.42	-4.47786e-07
3725.1	-2.09026e-07
3733.78	-1.7392e-07
3742.45	-3.32029e-07
3751.13	-2.76172e-07
3759.81	-2.48243e-07
3768.49	-1.43457e-07
3777.17	-7.1403e-07
3785.85	-1.83915e-07
3794.52	-1.92312e-07
3803.2	-2.26683e-07
3811.88	-2.15435e-07
3820.56	-3.65913e-07
3829.24	-2.17654e-07
3837.91	-1.84803e-07
3846.59	-2.7866e-07
3855.27	-1.45617e-07
3863.95	2.76485e-10
3872.63	-9.27407e-08
3881.3	-1.21815e-07
3889.98	-1.49684e-07
3898.66	-4.99819e-08
3907.34	-1.05454e-07
3916.02	-1.5151e-07
3924.7	-1.16608e-07
3933.37	-2.1673e-07
3942.05	-1.94263e-07
3950.73	-1.62317e-07
3959.41	-1.01344e-07
3968.09	-1.12038e-07
