Infrared Spectrum: Bromomethane
Formula: C H3 Br
CAS: 74-83-9
State: gas
Melting point: -93.6 C
Boiling point: 3.56 C
Class: IUPAC A
Instrument: IFS66V (Bruker)
Instrument parameters: KBr Beam splitter; MCT Detector; Multipass cell
Sampling: 1 L/min Flow
Resolution: 1.9290
Temperature: 23 C
Pressure: 101.3 kPa
Origin: NIST, Anayltical Chemistry Division, 301-975-3108
cm-1	(micromol/mol)-1m-1 (base 10)
574.687	6.35235e-06
583.365	1.74769e-05
592.043	3.45336e-05
600.721	3.72813e-05
609.4	5.02386e-05
618.078	4.42319e-05
626.756	4.27375e-05
635.434	8.69522e-06
644.112	3.21795e-07
652.79	-4.87472e-08
661.469	1.66628e-07
670.147	-8.94775e-08
678.825	3.7124e-08
687.503	2.75825e-08
696.181	1.19028e-07
704.859	-2.37206e-09
713.537	1.68617e-07
722.216	-6.55641e-08
730.894	1.09805e-07
739.572	-8.11957e-09
748.25	1.47524e-07
756.928	2.93143e-08
765.606	8.82264e-08
774.285	-2.07082e-08
782.963	1.5634e-07
791.641	2.46341e-08
800.319	1.18659e-07
808.997	6.58596e-08
817.675	3.07805e-09
826.353	-3.68747e-08
835.032	9.90102e-08
843.71	5.68524e-08
852.388	3.04134e-07
861.066	2.86527e-07
869.744	7.74849e-07
878.422	1.75842e-06
887.101	1.79026e-06
895.779	1.66092e-06
904.457	3.57688e-06
913.135	1.82852e-05
921.813	3.59991e-06
930.491	8.62845e-06
939.169	7.57127e-06
947.848	5.98832e-06
956.526	4.45674e-05
965.204	1.74811e-05
973.882	4.51854e-06
982.56	7.46761e-06
991.238	6.56418e-06
999.917	6.68776e-06
1008.59	5.44388e-06
1017.27	4.63806e-06
1025.95	7.0712e-06
1034.63	3.50902e-06
1043.31	1.03579e-06
1051.99	7.49057e-07
1060.66	4.14077e-07
1069.34	3.89537e-07
1078.02	3.93689e-08
1086.7	2.08895e-07
1095.38	-1.06229e-08
1104.05	1.34401e-07
1112.73	-2.61308e-08
1121.41	1.10211e-07
1130.09	-9.5619e-09
1138.77	5.54422e-08
1147.45	-3.88731e-08
1156.12	9.90805e-08
1164.8	1.87914e-08
1173.48	1.36665e-07
1182.16	7.47114e-08
1190.84	1.80974e-07
1199.51	1.9135e-07
1208.19	2.28704e-07
1216.87	1.43193e-07
1225.55	3.85329e-07
1234.23	1.73748e-07
1242.9	1.16075e-07
1251.58	3.65187e-07
1260.26	1.47388e-06
1268.94	6.39353e-06
1277.62	2.02154e-05
1286.3	4.6481e-05
1294.97	5.95512e-05
1303.65	1.77776e-05
1312.33	5.22287e-05
1321.01	6.84725e-05
1329.69	2.23309e-05
1338.36	6.84199e-06
1347.04	1.75585e-06
1355.72	2.30513e-06
1364.4	1.32412e-05
1373.08	7.60155e-07
1381.76	2.24624e-06
1390.43	5.0802e-06
1399.11	9.10311e-06
1407.79	7.78116e-06
1416.47	1.00245e-05
1425.15	5.63444e-06
1433.82	9.63527e-06
1442.5	7.60408e-06
1451.18	4.18322e-07
1459.86	1.31821e-05
1468.54	9.24712e-06
1477.22	4.95269e-06
1485.89	7.42899e-05
1494.57	6.7335e-06
1503.25	5.82253e-06
1511.93	6.19758e-06
1520.61	3.55546e-05
1529.28	6.14414e-06
1537.96	3.84509e-06
1546.64	1.52402e-06
1555.32	5.23695e-07
1564	1.88507e-06
1572.67	1.15164e-06
1581.35	6.98272e-07
1590.03	2.66123e-07
1598.71	6.13834e-07
1607.39	5.77773e-07
1616.07	4.04442e-07
1624.74	1.27801e-07
1633.42	2.72584e-07
1642.1	6.12425e-08
1650.78	1.50447e-07
1659.46	6.43952e-09
1668.13	7.65789e-08
1676.81	-2.70005e-08
1685.49	1.41203e-07
1694.17	-1.03658e-08
1702.85	5.27321e-08
1711.53	-2.85271e-08
1720.2	6.3281e-08
1728.88	-1.85756e-08
1737.56	6.79447e-08
1746.24	-1.0616e-09
1754.92	7.40698e-08
1763.59	2.39957e-08
1772.27	8.4647e-08
1780.95	-2.38714e-08
1789.63	2.99268e-08
1798.31	-2.60084e-08
1806.98	3.7856e-08
1815.66	-3.67899e-09
1824.34	1.37105e-10
1833.02	-8.42072e-10
1841.7	4.58135e-08
1850.38	3.77365e-08
1859.05	4.31809e-08
1867.73	-3.45118e-08
1876.41	1.49523e-07
1885.09	2.1676e-07
1893.77	4.1452e-07
1902.44	3.29941e-07
1911.12	3.70258e-07
1919.8	5.03918e-07
1928.48	3.52035e-07
1937.16	2.46277e-08
1945.84	1.79699e-08
1954.51	-2.31826e-08
1963.19	2.09069e-08
1971.87	-1.8679e-08
1980.55	2.25952e-08
1989.23	-5.21741e-08
1997.9	8.06545e-09
2006.58	3.49008e-08
2015.26	-3.09692e-09
2023.94	1.08264e-08
2032.62	8.27498e-09
2041.3	5.02765e-09
2049.97	-4.93443e-09
2058.65	2.6136e-08
2067.33	-1.55856e-08
2076.01	2.07676e-08
2084.69	2.50757e-09
2093.36	6.58287e-09
2102.04	-1.99953e-08
2110.72	1.99425e-08
2119.4	1.06479e-07
2128.08	5.48032e-08
2136.75	-8.68675e-09
2145.43	2.21347e-09
2154.11	7.38486e-08
2162.79	9.02164e-08
2171.47	9.90297e-08
2180.15	2.63733e-07
2188.82	2.59955e-07
2197.5	3.12984e-07
2206.18	4.2483e-07
2214.86	1.06235e-06
2223.54	5.50158e-07
2232.21	7.78284e-07
2240.89	7.11972e-07
2249.57	9.42736e-07
2258.25	2.04275e-06
2266.93	1.33642e-06
2275.61	4.98509e-07
2284.28	4.33537e-07
2292.96	4.42008e-07
2301.64	3.61526e-07
2310.32	2.7603e-07
2319	5.36498e-07
2327.67	4.8219e-07
2336.35	3.32439e-07
2345.03	1.24538e-06
2353.71	5.48002e-07
2362.39	9.34422e-07
2371.06	7.12964e-07
2379.74	4.5875e-07
2388.42	6.72764e-07
2397.1	6.40992e-07
2405.78	4.31684e-07
2414.46	8.00785e-07
2423.13	2.89412e-06
2431.81	2.34997e-07
2440.49	3.94231e-07
2449.17	2.06672e-07
2457.85	1.19729e-07
2466.52	2.39726e-07
2475.2	1.19303e-07
2483.88	1.42458e-07
2492.56	1.3209e-07
2501.24	1.34376e-07
2509.92	8.3446e-08
2518.59	1.42546e-07
2527.27	3.08357e-08
2535.95	-1.70343e-08
2544.63	2.32943e-10
2553.31	1.01362e-09
2561.98	8.24793e-08
2570.66	3.21899e-07
2579.34	7.13255e-07
2588.02	7.48539e-07
2596.7	7.39113e-07
2605.38	1.44849e-06
2614.05	1.34646e-06
2622.73	-2.08933e-07
2631.41	-3.3608e-07
2640.09	-3.03904e-07
2648.77	-2.39401e-07
2657.44	-1.68249e-07
2666.12	5.87666e-08
2674.8	2.54316e-09
2683.48	1.85093e-08
2692.16	1.45566e-08
2700.83	5.13523e-08
2709.51	4.65579e-08
2718.19	1.05264e-07
2726.87	1.00658e-09
2735.55	1.06333e-07
2744.23	6.24781e-08
2752.9	-2.41619e-07
2761.58	2.55583e-08
2770.26	1.00992e-07
2778.94	-2.11015e-08
2787.62	2.52206e-07
2796.29	-1.64321e-08
2804.97	9.78472e-08
2813.65	7.49093e-08
2822.33	4.44115e-07
2831.01	1.25719e-06
2839.69	5.80274e-06
2848.36	1.15003e-05
2857.04	6.09169e-06
2865.72	6.39088e-06
2874.4	1.01235e-05
2883.08	6.09776e-06
2891.75	2.42715e-06
2900.43	1.44305e-07
2909.11	2.72086e-07
2917.79	-4.13992e-08
2926.47	8.8687e-07
2935.14	3.60887e-06
2943.82	1.73158e-05
2952.5	4.65548e-05
2961.18	6.16641e-05
2969.86	4.60003e-05
2978.54	5.89956e-05
2987.21	6.72071e-05
2995.89	3.27435e-05
3004.57	8.38318e-06
3013.25	3.36101e-06
3021.93	5.7927e-06
3030.6	3.50059e-06
3039.28	1.59424e-06
3047.96	1.8355e-06
3056.64	4.61585e-06
3065.32	7.03232e-06
3074	6.27714e-06
3082.67	6.36783e-06
3091.35	6.40922e-06
3100.03	4.46705e-06
3108.71	4.72813e-06
3117.39	4.23003e-06
3126.06	2.7715e-06
3134.74	1.54377e-06
3143.42	6.24159e-07
3152.1	7.61305e-07
3160.78	7.34555e-07
3169.46	3.4743e-07
3178.13	2.5283e-07
3186.81	3.5702e-07
3195.49	1.49034e-07
3204.17	9.58971e-08
3212.85	1.62185e-07
3221.52	1.39446e-07
3230.2	1.38954e-08
3238.88	-2.47972e-08
3247.56	5.22496e-08
3256.24	-2.61192e-08
3264.91	2.95506e-08
3273.59	2.15396e-08
3282.27	4.37433e-08
3290.95	3.83887e-08
3299.63	4.66757e-08
3308.31	-6.65909e-08
3316.98	2.47572e-08
3325.66	2.64664e-08
3334.34	6.292e-08
3343.02	1.42177e-08
3351.7	6.69939e-08
3360.37	1.89617e-09
3369.05	-9.87943e-09
3377.73	7.074e-09
3386.41	1.50284e-08
3395.09	5.55925e-09
3403.77	2.16958e-08
3412.44	3.83815e-08
3421.12	2.09364e-08
3429.8	4.18459e-08
3438.48	4.27518e-08
3447.16	4.11646e-08
3455.83	1.10612e-07
3464.51	4.23389e-08
3473.19	7.83574e-08
3481.87	5.98755e-08
3490.55	7.67603e-08
3499.22	2.80637e-08
3507.9	5.21599e-08
3516.58	-4.87357e-08
3525.26	1.88261e-08
3533.94	6.63627e-08
3542.62	1.27172e-07
3551.29	2.18918e-07
3559.97	4.14157e-07
3568.65	5.83718e-07
3577.33	4.40032e-07
3586.01	4.47182e-07
3594.68	7.20108e-07
3603.36	4.42027e-07
3612.04	1.65253e-07
3620.72	9.64021e-08
3629.4	1.92824e-07
3638.08	5.16709e-08
3646.75	1.97919e-07
3655.43	1.85708e-07
3664.11	2.60699e-07
3672.79	4.22538e-07
3681.47	3.12543e-07
3690.14	2.52604e-07
3698.82	3.52766e-07
3707.5	1.93695e-07
3716.18	1.22565e-07
3724.86	1.90205e-07
3733.54	1.14082e-07
3742.21	9.44079e-08
3750.89	-3.54064e-09
3759.57	8.92494e-08
3768.25	8.64297e-08
3776.93	1.88705e-08
3785.6	9.94515e-08
3794.28	1.0993e-07
3802.96	5.56727e-08
3811.64	8.3051e-08
3820.32	2.62308e-07
3828.99	1.29371e-07
3837.67	2.70466e-07
3846.35	1.60181e-07
3855.03	2.5578e-07
3863.71	3.16784e-07
3872.39	2.53716e-07
3881.06	3.58831e-07
3889.74	5.73125e-07
3898.42	2.57842e-07
3907.1	3.07948e-07
3915.78	2.46648e-07
3924.45	1.85701e-07
3933.13	1.22523e-07
3941.81	3.90004e-07
3950.49	3.21335e-07
3959.17	1.76128e-07
3967.85	3.03605e-07
