Infrared Spectrum: Ethene
Formula: C H2: C H2
CAS: 74-85-1
State: gas
Melting point: -169.15 C
Boiling point: -103.71 C
Class: IUPAC A
Instrument: IFS66V (Bruker)
Instrument parameters: KBr Beam splitter; MCT Detector; Multipass cell
Sampling: 1 L/min Flow
Resolution: 0.9640
Temperature: 23 C
Pressure: 101.3 kPa
Origin: NIST, Anayltical Chemistry Division, 301-975-3108
cm-1	(micromol/mol)-1m-1 (base 10)
575.169	-1.17235e-07
583.847	-2.49226e-07
592.525	-3.95173e-07
601.203	-3.59018e-07
609.882	-2.3451e-07
618.56	-2.11869e-07
627.238	-1.49542e-07
635.916	-2.16202e-07
644.594	-1.05053e-07
653.272	-9.41231e-08
661.951	-1.57487e-07
670.629	-9.17257e-08
679.307	2.72101e-08
687.985	1.65227e-07
696.663	1.86986e-07
705.341	3.54035e-07
714.019	7.21782e-07
722.698	4.58396e-07
731.376	8.8773e-07
740.054	8.49769e-07
748.732	1.29424e-06
757.41	1.49656e-06
766.088	1.27391e-06
774.767	8.72747e-07
783.445	3.28142e-07
792.123	3.24792e-07
800.801	2.88656e-07
809.479	5.51131e-07
818.157	9.90447e-07
826.835	1.24125e-06
835.514	3.99447e-06
844.192	1.06228e-05
852.87	1.19628e-05
861.548	1.77045e-05
870.226	2.53043e-05
878.904	5.43272e-05
887.583	4.28044e-05
896.261	0.000106635
904.939	4.46737e-05
913.617	6.36395e-05
922.295	0.000239692
930.973	6.95711e-05
939.651	0.000109154
948.33	0.000360341
957.008	9.9582e-05
965.686	9.07596e-05
974.364	5.09547e-05
983.042	5.75843e-05
991.72	5.93245e-05
1000.4	7.25638e-05
1009.08	5.56552e-05
1017.75	5.69422e-05
1026.43	4.40267e-05
1035.11	3.23894e-05
1043.79	4.16134e-05
1052.47	1.08776e-05
1061.15	1.7578e-05
1069.82	1.4519e-05
1078.5	5.98335e-06
1087.18	2.97587e-06
1095.86	2.50714e-06
1104.54	1.37962e-06
1113.21	1.40602e-06
1121.89	1.47888e-06
1130.57	5.37823e-07
1139.25	3.04079e-08
1147.93	1.44793e-07
1156.61	-1.55112e-07
1165.28	-1.67572e-07
1173.96	-2.42483e-07
1182.64	-2.36713e-07
1191.32	-2.84689e-07
1200	-2.82244e-07
1208.67	-2.97989e-07
1217.35	-3.02342e-07
1226.03	-2.89371e-07
1234.71	-2.9705e-07
1243.39	-2.76358e-07
1252.07	-2.95806e-07
1260.74	-2.9947e-07
1269.42	-2.699e-07
1278.1	-2.77967e-07
1286.78	-2.96006e-07
1295.46	-2.81682e-07
1304.13	-2.61549e-07
1312.81	-2.77676e-07
1321.49	-2.52289e-07
1330.17	-2.72942e-07
1338.85	-2.73946e-07
1347.52	-2.50566e-07
1356.2	-2.64276e-07
1364.88	-1.31834e-07
1373.56	-8.3995e-08
1382.24	4.75789e-07
1390.92	3.33026e-06
1399.59	1.07528e-05
1408.27	1.90111e-05
1416.95	2.96312e-05
1425.63	2.40486e-05
1434.31	7.26589e-06
1442.98	4.55455e-05
1451.66	1.51003e-05
1460.34	2.04301e-05
1469.02	1.56038e-05
1477.7	1.7201e-05
1486.38	6.84857e-06
1495.05	3.40708e-06
1503.73	1.05015e-06
1512.41	2.0509e-08
1521.09	-2.66271e-07
1529.77	-2.45742e-07
1538.44	-2.99217e-07
1547.12	-2.55929e-07
1555.8	-2.50632e-07
1564.48	-2.5931e-07
1573.16	-2.28671e-07
1581.83	-2.61638e-07
1590.51	-2.11098e-07
1599.19	-2.51489e-07
1607.87	-2.53026e-07
1616.55	-3.32322e-07
1625.23	-2.51469e-07
1633.9	-2.52955e-07
1642.58	-2.54619e-07
1651.26	-2.78411e-07
1659.94	-2.53127e-07
1668.62	-2.79064e-07
1677.29	-2.57857e-07
1685.97	-2.45184e-07
1694.65	-2.36282e-07
1703.33	-2.13692e-07
1712.01	-1.54557e-07
1720.69	-1.70848e-07
1729.36	-1.46912e-07
1738.04	-2.28173e-08
1746.72	9.9691e-08
1755.4	-7.6761e-08
1764.08	-1.28083e-07
1772.75	-1.63212e-07
1781.43	5.71978e-08
1790.11	-8.13648e-08
1798.79	-1.97727e-07
1807.47	-2.14949e-07
1816.15	-1.74347e-07
1824.82	2.80467e-07
1833.5	7.16975e-07
1842.18	2.21769e-06
1850.86	5.67942e-06
1859.54	6.08098e-06
1868.21	1.45491e-05
1876.89	4.51797e-06
1885.57	3.08477e-06
1894.25	3.98136e-06
1902.93	9.19272e-06
1911.6	1.34193e-05
1920.28	1.38868e-05
1928.96	4.85571e-06
1937.64	2.06748e-06
1946.32	5.3249e-07
1955	-1.52545e-07
1963.67	-8.48172e-08
1972.35	-2.42248e-07
1981.03	-1.12573e-07
1989.71	1.28955e-07
1998.39	-3.29781e-08
2007.06	4.83669e-07
2015.74	6.59491e-07
2024.42	1.16998e-06
2033.1	6.71245e-07
2041.78	1.44525e-07
2050.46	-1.93079e-07
2059.13	4.6941e-07
2067.81	1.76915e-06
2076.49	1.46277e-06
2085.17	8.71972e-07
2093.85	7.47128e-08
2102.52	-1.37246e-07
2111.2	-7.75067e-09
2119.88	1.64981e-08
2128.56	-5.77945e-08
2137.24	-5.84893e-08
2145.91	1.00249e-07
2154.59	3.32255e-07
2163.27	1.91277e-07
2171.95	7.08147e-08
2180.63	5.11393e-07
2189.31	7.72457e-07
2197.98	4.28661e-07
2206.66	3.8791e-07
2215.34	3.73253e-07
2224.02	2.2539e-07
2232.7	1.12866e-07
2241.37	2.78486e-09
2250.05	1.16111e-07
2258.73	-7.9675e-08
2267.41	-1.10376e-07
2276.09	-1.573e-07
2284.77	-1.56942e-07
2293.44	-1.66157e-07
2302.12	-9.97729e-08
2310.8	-1.38628e-07
2319.48	-9.14838e-08
2328.16	-8.54411e-08
2336.83	-1.4104e-07
2345.51	-1.05625e-07
2354.19	-2.92128e-09
2362.87	1.06314e-07
2371.55	-1.66109e-08
2380.23	-9.8274e-08
2388.9	-1.01781e-07
2397.58	-1.44138e-07
2406.26	-1.47234e-07
2414.94	-1.29215e-07
2423.62	-1.25673e-07
2432.29	-1.65995e-07
2440.97	-1.83013e-07
2449.65	-1.04677e-07
2458.33	-6.03065e-08
2467.01	-1.24418e-07
2475.68	-1.35838e-07
2484.36	-1.89096e-07
2493.04	-2.10752e-07
2501.72	-2.33928e-07
2510.4	-2.02733e-07
2519.08	-2.20004e-07
2527.75	-2.28362e-07
2536.43	-2.29826e-07
2545.11	-2.19411e-07
2553.79	-2.40109e-07
2562.47	-2.1542e-07
2571.14	-1.83242e-07
2579.82	-2.44214e-07
2588.5	-2.25472e-07
2597.18	-2.29495e-07
2605.86	-2.23855e-07
2614.54	-2.24135e-07
2623.21	-2.14256e-07
2631.89	-2.23347e-07
2640.57	-2.15511e-07
2649.25	-2.15336e-07
2657.93	-2.32864e-07
2666.6	-2.40715e-07
2675.28	-2.3138e-07
2683.96	-2.55072e-07
2692.64	-2.2999e-07
2701.32	-2.64245e-07
2709.99	-2.5855e-07
2718.67	-2.51574e-07
2727.35	-2.44005e-07
2736.03	-2.66055e-07
2744.71	-2.56956e-07
2753.39	-2.46952e-07
2762.06	-2.75539e-07
2770.74	-2.73436e-07
2779.42	-2.9623e-07
2788.1	-3.06535e-07
2796.78	-3.29514e-07
2805.45	-3.67863e-07
2814.13	-3.58048e-07
2822.81	-4.44131e-07
2831.49	-4.62216e-07
2840.17	-5.53667e-07
2848.85	-4.71119e-07
2857.52	-3.52402e-07
2866.2	-3.74646e-07
2874.88	-2.36586e-07
2883.56	-2.99209e-07
2892.24	-5.87198e-07
2900.91	-3.58694e-07
2909.59	-2.6695e-07
2918.27	5.175e-08
2926.95	9.06854e-07
2935.63	4.04462e-06
2944.31	6.35283e-06
2952.98	2.10487e-05
2961.66	2.24227e-05
2970.34	2.88662e-05
2979.02	1.41084e-05
2987.7	0.000138429
2996.37	1.2471e-05
3005.05	4.01187e-05
3013.73	5.54345e-05
3022.41	2.91982e-05
3031.09	2.12731e-05
3039.76	1.49005e-05
3048.44	1.70248e-05
3057.12	1.92167e-05
3065.8	2.65347e-05
3074.48	3.34945e-05
3083.16	3.74967e-05
3091.83	3.25942e-05
3100.51	3.54301e-05
3109.19	3.15111e-05
3117.87	3.56909e-05
3126.55	4.36576e-05
3135.22	3.70725e-05
3143.9	2.1263e-05
3152.58	2.94253e-05
3161.26	2.30867e-05
3169.94	3.52668e-05
3178.62	1.5102e-05
3187.29	9.25271e-06
3195.97	8.21372e-06
3204.65	8.72594e-06
3213.33	5.00997e-06
3222.01	2.19362e-06
3230.68	1.01103e-06
3239.36	4.91075e-07
3248.04	1.96424e-07
3256.72	3.29472e-08
3265.4	-8.05153e-08
3274.07	-1.07711e-07
3282.75	-1.59648e-07
3291.43	-1.62988e-07
3300.11	-1.76459e-07
3308.79	-1.9168e-07
3317.47	-1.86524e-07
3326.14	-2.08852e-07
3334.82	-2.1444e-07
3343.5	-1.79899e-07
3352.18	-1.63374e-07
3360.86	-1.63699e-07
3369.53	-1.46772e-07
3378.21	-1.79706e-07
3386.89	-1.65203e-07
3395.57	-2.18127e-07
3404.25	-2.05645e-07
3412.93	-2.35221e-07
3421.6	-2.33157e-07
3430.28	-2.25204e-07
3438.96	-2.59399e-07
3447.64	-2.46766e-07
3456.32	-2.07426e-07
3464.99	-2.11324e-07
3473.67	-2.27751e-07
3482.35	-1.99866e-07
3491.03	-1.8327e-07
3499.71	-2.32638e-07
3508.39	-2.40966e-07
3517.06	-1.68108e-07
3525.74	-1.2738e-07
3534.42	-1.36984e-07
3543.1	-2.11755e-07
3551.78	-2.33835e-07
3560.45	-2.3503e-07
3569.13	-2.21394e-07
3577.81	-2.1942e-07
3586.49	-2.36416e-07
3595.17	-2.18574e-07
3603.84	-2.29e-07
3612.52	-2.41051e-07
3621.2	-2.10025e-07
3629.88	-2.52802e-07
3638.56	-2.02607e-07
3647.24	-2.14032e-07
3655.91	-2.45164e-07
3664.59	-2.23862e-07
3673.27	-2.20044e-07
3681.95	-2.62821e-07
3690.63	-2.61509e-07
3699.3	-2.54759e-07
3707.98	-3.10815e-07
3716.66	-3.60545e-07
3725.34	-1.85903e-07
3734.02	-2.22299e-07
3742.7	-2.78333e-07
3751.37	-3.11247e-07
3760.05	-2.16451e-07
3768.73	-1.39316e-07
3777.41	-5.75687e-07
3786.09	-1.74853e-07
3794.76	-2.33826e-07
3803.44	-7.97823e-08
3812.12	-2.27647e-07
3820.8	-2.02371e-07
3829.48	-1.8799e-07
3838.16	-1.12178e-07
3846.83	-2.10683e-07
3855.51	-1.77183e-07
3864.19	-5.97135e-08
3872.87	-9.90598e-08
3881.55	-1.31574e-07
3890.22	-1.13593e-07
3898.9	-1.15705e-07
3907.58	-1.01599e-07
3916.26	-1.34046e-07
3924.94	-9.89307e-08
3933.61	-1.52156e-07
3942.29	-1.75508e-07
3950.97	-1.57638e-07
3959.65	-7.95567e-08
3968.33	-9.55638e-08
