Infrared Spectrum: Ethene
Formula: C H2: C H2
CAS: 74-85-1
State: gas
Melting point: -169.15 C
Boiling point: -103.71 C
Class: IUPAC A
Instrument: IFS66V (Bruker)
Instrument parameters: KBr Beam splitter; MCT Detector; Multipass cell
Sampling: 1 L/min Flow
Resolution: 0.2410
Temperature: 23 C
Pressure: 101.3 kPa
Origin: NIST, Anayltical Chemistry Division, 301-975-3108
cm-1	(micromol/mol)-1m-1 (base 10)
575.048	1.45058e-07
583.606	-8.49464e-08
592.163	-3.86131e-07
600.721	-2.35267e-07
609.279	-5.96687e-07
617.836	-8.09355e-08
626.394	-4.4605e-07
634.951	-1.99331e-07
643.509	-1.88488e-07
652.067	-3.17052e-07
660.624	-1.91482e-07
669.182	5.36526e-08
677.74	2.47661e-07
686.297	8.7111e-09
694.855	-8.23088e-08
703.412	5.26347e-07
711.97	7.61194e-07
720.528	6.81645e-07
729.085	1.61941e-06
737.643	9.11071e-07
746.201	3.84205e-07
754.758	2.03864e-06
763.316	2.0792e-07
771.873	7.86636e-08
780.431	1.0752e-07
788.989	2.98242e-07
797.546	4.90992e-07
806.104	5.95452e-07
814.662	5.65941e-07
823.219	1.17855e-06
831.777	1.9286e-06
840.334	1.05302e-05
848.892	9.7714e-06
857.45	2.44729e-05
866.007	3.88543e-05
874.565	3.90229e-05
883.123	5.19733e-05
891.68	5.11722e-05
900.238	4.00533e-05
908.795	0.000254773
917.353	4.03747e-05
925.911	6.10072e-05
934.468	7.4946e-05
943.026	8.20827e-05
951.584	0.000277504
960.141	5.50909e-05
968.699	5.28909e-05
977.256	0.000113702
985.814	7.69433e-05
994.372	5.40287e-05
1002.93	4.08921e-05
1011.49	9.92573e-05
1020.04	0.000117043
1028.6	3.05666e-05
1037.16	5.61565e-05
1045.72	2.72951e-05
1054.28	5.65218e-06
1062.83	1.12533e-05
1071.39	5.29169e-06
1079.95	4.16438e-06
1088.51	1.68953e-06
1097.06	5.86419e-06
1105.62	4.6925e-06
1114.18	9.19584e-07
1122.74	4.12612e-07
1131.29	7.24301e-07
1139.85	4.51209e-07
1148.41	1.28311e-08
1156.97	-6.8119e-08
1165.52	-1.70566e-08
1174.08	-2.48873e-07
1182.64	-2.19604e-07
1191.2	-2.21921e-07
1199.75	-2.30934e-07
1208.31	-2.10265e-07
1216.87	-2.59741e-07
1225.43	-2.40729e-07
1233.99	-2.53606e-07
1242.54	-2.28373e-07
1251.1	-2.14496e-07
1259.66	-2.37675e-07
1268.22	-2.57198e-07
1276.77	-2.30989e-07
1285.33	-1.99006e-07
1293.89	-2.37079e-07
1302.45	-2.25044e-07
1311	-2.14281e-07
1319.56	-2.26274e-07
1328.12	-1.87608e-07
1336.68	-2.18581e-07
1345.23	-1.71312e-07
1353.79	-2.14572e-07
1362.35	-2.12833e-07
1370.91	-6.63473e-08
1379.46	9.63779e-07
1388.02	4.13045e-06
1396.58	1.03216e-05
1405.14	1.78125e-05
1413.7	2.00031e-05
1422.25	3.13507e-05
1430.81	1.09848e-05
1439.37	3.68045e-06
1447.93	1.77365e-05
1456.48	1.70417e-05
1465.04	2.78278e-05
1473.6	1.94914e-05
1482.16	1.42825e-05
1490.71	9.19303e-06
1499.27	6.12385e-07
1507.83	4.23029e-07
1516.39	-5.61301e-08
1524.94	-1.87151e-07
1533.5	-2.68849e-07
1542.06	-3.9846e-07
1550.62	-2.5672e-07
1559.18	-2.6476e-07
1567.73	-2.30316e-07
1576.29	-3.83756e-07
1584.85	-2.75532e-07
1593.41	-2.65664e-07
1601.96	-2.60049e-07
1610.52	-2.1327e-07
1619.08	-2.62515e-07
1627.64	-2.59696e-07
1636.19	-2.57411e-07
1644.75	-2.58046e-07
1653.31	-4.95401e-07
1661.87	-2.58268e-07
1670.42	-2.51137e-07
1678.98	-2.25019e-07
1687.54	-2.6279e-07
1696.1	-2.89531e-07
1704.65	-1.77291e-07
1713.21	-2.26552e-07
1721.77	-5.11806e-08
1730.33	1.31285e-07
1738.89	-6.06066e-08
1747.44	8.7311e-09
1756	-7.55113e-08
1764.56	-1.92632e-07
1773.12	-6.87865e-08
1781.67	-3.62013e-08
1790.23	-1.27685e-07
1798.79	-1.81772e-07
1807.35	-1.80523e-07
1815.9	-9.88761e-08
1824.46	1.55643e-07
1833.02	9.5602e-07
1841.58	2.8084e-06
1850.13	6.99483e-06
1858.69	9.62877e-06
1867.25	5.47741e-06
1875.81	6.91854e-06
1884.36	1.21632e-06
1892.92	1.98368e-06
1901.48	1.45221e-05
1910.04	1.22782e-05
1918.6	1.7008e-05
1927.15	3.6119e-06
1935.71	1.60039e-06
1944.27	8.28771e-07
1952.83	2.46985e-07
1961.38	-3.42187e-07
1969.94	-1.11234e-07
1978.5	8.80332e-08
1987.06	-6.37643e-08
1995.61	2.74393e-07
2004.17	3.52857e-07
2012.73	2.1018e-07
2021.29	1.66649e-07
2029.84	1.14121e-06
2038.4	1.32556e-06
2046.96	5.82598e-06
2055.52	-1.1735e-07
2064.08	8.06905e-07
2072.63	3.00527e-06
2081.19	1.32512e-06
2089.75	2.9314e-07
2098.31	-5.48695e-08
2106.86	-2.81913e-07
2115.42	-1.39316e-07
2123.98	1.91148e-07
2132.54	5.68799e-07
2141.09	3.54308e-07
2149.65	1.51607e-07
2158.21	5.67696e-07
2166.77	1.48572e-07
2175.32	1.27751e-07
2183.88	2.84179e-07
2192.44	4.56664e-07
2201	8.2711e-07
2209.55	2.2732e-07
2218.11	2.6022e-07
2226.67	9.98547e-08
2235.23	2.48873e-08
2243.79	1.03278e-07
2252.34	4.96214e-07
2260.9	-5.20137e-08
2269.46	-1.36311e-07
2278.02	-1.65162e-07
2286.57	-1.5193e-07
2295.13	-1.72325e-07
2303.69	-9.18148e-08
2312.25	-9.58421e-08
2320.8	-1.49462e-07
2329.36	-1.0416e-07
2337.92	1.49429e-08
2346.48	-9.20022e-08
2355.03	-1.40518e-07
2363.59	-1.32302e-07
2372.15	-5.48768e-08
2380.71	-8.88099e-08
2389.26	-1.12067e-07
2397.82	-1.53773e-07
2406.38	-1.69325e-07
2414.94	-1.01979e-07
2423.5	-1.14938e-07
2432.05	-1.43314e-07
2440.61	-2.14214e-07
2449.17	-1.10066e-07
2457.73	-8.55394e-08
2466.28	-7.4691e-08
2474.84	-1.21291e-07
2483.4	-1.97407e-07
2491.96	-1.81409e-07
2500.51	-2.31913e-07
2509.07	-2.33473e-07
2517.63	-2.48083e-07
2526.19	-2.15327e-07
2534.74	-1.94211e-07
2543.3	-1.44158e-07
2551.86	-2.40613e-07
2560.42	-2.2951e-07
2568.98	-6.70749e-08
2577.53	-2.07044e-07
2586.09	-2.26705e-07
2594.65	-2.44487e-07
2603.21	-2.01567e-07
2611.76	-2.62302e-07
2620.32	-1.87746e-07
2628.88	-2.11344e-07
2637.44	-2.20058e-07
2645.99	-1.81525e-07
2654.55	-1.91484e-07
2663.11	-1.94835e-07
2671.67	-1.95502e-07
2680.22	-2.58495e-07
2688.78	-2.66666e-07
2697.34	-2.68503e-07
2705.9	-2.62275e-07
2714.45	-2.33408e-07
2723.01	-2.52211e-07
2731.57	-2.43088e-07
2740.13	-2.29919e-07
2748.69	-3.02544e-07
2757.24	-2.8104e-07
2765.8	-2.87044e-07
2774.36	-2.35098e-07
2782.92	-3.14722e-07
2791.47	-3.66832e-07
2800.03	-4.25692e-07
2808.59	-3.70353e-07
2817.15	-2.66935e-07
2825.7	-3.85646e-07
2834.26	-4.04618e-07
2842.82	-4.00889e-07
2851.38	-4.25143e-07
2859.93	-5.31682e-07
2868.49	-2.31825e-07
2877.05	-2.77118e-07
2885.61	-7.33675e-07
2894.16	-5.45297e-07
2902.72	-3.36744e-07
2911.28	-2.90275e-07
2919.84	1.26637e-08
2928.4	1.01951e-06
2936.95	4.34955e-06
2945.51	1.96047e-05
2954.07	1.83831e-05
2962.63	5.46027e-05
2971.18	2.09807e-05
2979.74	1.42697e-05
2988.3	0.000316597
2996.86	6.8693e-06
3005.41	3.41661e-05
3013.97	6.19968e-05
3022.53	3.34731e-05
3031.09	1.77004e-05
3039.64	1.3869e-05
3048.2	2.4434e-05
3056.76	2.41387e-05
3065.32	1.98403e-05
3073.88	5.10398e-05
3082.43	2.51769e-05
3090.99	3.1307e-05
3099.55	4.65187e-05
3108.11	1.49388e-05
3116.66	4.28176e-05
3125.22	6.59868e-05
3133.78	4.62604e-05
3142.34	2.21576e-05
3150.89	3.7123e-05
3159.45	1.47667e-05
3168.01	3.09507e-05
3176.57	1.35918e-05
3185.12	3.53238e-06
3193.68	1.39549e-05
3202.24	8.70028e-06
3210.8	3.98608e-06
3219.35	2.8483e-06
3227.91	3.52734e-06
3236.47	9.71512e-07
3245.03	2.25248e-07
3253.59	1.77987e-07
3262.14	-3.18231e-08
3270.7	-1.40232e-07
3279.26	-1.55925e-07
3287.82	-1.9989e-07
3296.37	-1.57233e-07
3304.93	-1.99347e-07
3313.49	-1.26003e-07
3322.05	-2.16182e-07
3330.6	-2.60154e-07
3339.16	-1.47992e-07
3347.72	-1.97145e-07
3356.28	-2.24666e-07
3364.83	-2.34685e-07
3373.39	-1.68765e-07
3381.95	-1.46528e-07
3390.51	-2.03831e-07
3399.06	-1.88996e-07
3407.62	-2.23533e-07
3416.18	-2.00977e-07
3424.74	-2.76218e-07
3433.3	-1.94007e-07
3441.85	-3.00517e-07
3450.41	-2.85664e-07
3458.97	-2.16608e-07
3467.53	-1.88859e-07
3476.08	-1.81123e-07
3484.64	-2.10078e-07
3493.2	-1.35623e-07
3501.76	-2.32917e-07
3510.31	-2.5334e-07
3518.87	-2.03658e-07
3527.43	-2.07296e-07
3535.99	-1.6218e-07
3544.54	-2.12157e-07
3553.1	-1.87335e-07
3561.66	-2.36611e-07
3570.22	-2.28084e-07
3578.78	-1.68539e-07
3587.33	-3.12641e-07
3595.89	-2.55307e-07
3604.45	-2.03689e-07
3613.01	-2.41708e-07
3621.56	-2.31995e-07
3630.12	-1.88697e-07
3638.68	-2.07e-07
3647.24	-2.41792e-07
3655.79	-2.39381e-07
3664.35	-2.14503e-07
3672.91	-2.58546e-07
3681.47	-2.42221e-07
3690.02	-2.62093e-07
3698.58	-2.60192e-07
3707.14	-3.42252e-07
3715.7	-2.41e-07
3724.25	-2.7633e-07
3732.81	-3.68011e-07
3741.37	-1.33921e-07
3749.93	-2.28306e-07
3758.49	-2.7555e-07
3767.04	-2.07611e-07
3775.6	-4.37959e-07
3784.16	-1.95739e-07
3792.72	-1.11558e-07
3801.27	-2.82737e-07
3809.83	-3.66199e-07
3818.39	-1.74076e-09
3826.95	-2.75037e-07
3835.5	-1.80166e-07
3844.06	-1.44389e-07
3852.62	-2.00535e-07
3861.18	-4.05232e-08
3869.73	-1.50157e-07
3878.29	-1.1029e-07
3886.85	-1.28267e-07
3895.41	-2.07156e-07
3903.96	-1.81576e-07
3912.52	-1.47356e-07
3921.08	6.80462e-08
3929.64	-4.0887e-08
3938.2	-1.35916e-07
3946.75	-8.28163e-08
3955.31	-1.47532e-07
3963.87	-2.0382e-07
3972.43	-1.10941e-07
