Infrared Spectrum: Ethene
Formula: C H2: C H2
CAS: 74-85-1
State: gas
Melting point: -169.15 C
Boiling point: -103.71 C
Class: IUPAC A
Instrument: IFS66V (Bruker)
Instrument parameters: KBr Beam splitter; MCT Detector; Multipass cell
Sampling: 1 L/min Flow
Resolution: 0.1250
Temperature: 23 C
Pressure: 101.3 kPa
Origin: NIST, Anayltical Chemistry Division, 301-975-3108
cm-1	(micromol/mol)-1m-1 (base 10)
3975.02	-1.63183e-07
3966.46	7.77598e-08
3957.9	-2.77972e-07
3949.34	-2.24176e-07
3940.79	-1.58683e-07
3932.23	-5.07237e-08
3923.67	-1.41485e-07
3915.11	-6.41417e-08
3906.56	-1.40785e-07
3898	-1.47682e-07
3889.44	3.05557e-08
3880.88	-1.24285e-07
3872.33	-2.51574e-07
3863.77	8.18687e-08
3855.21	-1.42285e-07
3846.65	-2.60772e-07
3838.09	5.84922e-08
3829.54	-4.9063e-08
3820.98	-5.26135e-08
3812.42	-3.17367e-07
3803.86	3.09249e-08
3795.31	-1.99579e-07
3786.75	-3.20867e-07
3778.19	2.95668e-07
3769.63	-1.04388e-07
3761.08	-1.33285e-07
3752.52	-2.28476e-07
3743.96	-6.26335e-07
3735.4	-2.96068e-07
3726.85	-1.27685e-07
3718.29	-2.42374e-07
3709.73	-2.95468e-07
3701.17	-1.66082e-07
3692.62	-2.75971e-07
3684.06	-1.64081e-07
3675.5	-1.30186e-07
3666.94	-2.46474e-07
3658.38	-2.62171e-07
3649.83	-3.23866e-07
3641.27	-1.79282e-07
3632.71	-3.36964e-07
3624.15	-3.50464e-07
3615.6	-2.30775e-07
3607.04	-3.64362e-07
3598.48	-1.75082e-07
3589.92	-1.26959e-08
3581.37	-2.09277e-07
3572.81	-2.84771e-07
3564.25	-2.26875e-07
3555.69	-1.54783e-07
3547.14	-2.22675e-07
3538.58	-2.11278e-07
3530.02	-9.17999e-08
3521.46	-1.31185e-07
3512.91	-2.56472e-07
3504.35	-5.39122e-08
3495.79	-2.45075e-07
3487.23	-9.56887e-08
3478.67	-1.65182e-07
3470.12	-1.99079e-07
3461.56	-1.07188e-07
3453	-1.44985e-07
3444.44	-3.41864e-07
3435.89	-3.65863e-07
3427.33	-2.8327e-07
3418.77	-2.27575e-07
3410.21	-1.25386e-07
3401.66	-2.82071e-07
3393.1	-2.56372e-07
3384.54	-1.38586e-07
3375.98	-2.66271e-07
3367.43	-2.72071e-07
3358.87	-1.33085e-07
3350.31	-1.95879e-07
3341.75	-1.63483e-07
3333.2	-1.24285e-07
3324.64	-2.02678e-07
3316.08	-1.53382e-07
3307.52	-1.91179e-07
3298.96	-1.57082e-07
3290.41	-2.23876e-07
3281.85	-1.19685e-07
3273.29	2.42659e-08
3264.73	-8.24689e-08
3256.18	2.81171e-07
3247.62	5.30537e-08
3239.06	5.16046e-07
3230.5	4.72752e-07
3221.95	8.15417e-07
3213.39	2.63974e-06
3204.83	1.9828e-05
3196.27	2.83572e-06
3187.72	7.48126e-06
3179.16	1.56484e-05
3170.6	5.15849e-06
3162.04	4.09459e-05
3153.48	2.97371e-05
3144.93	5.0115e-05
3136.37	2.81772e-05
3127.81	2.85972e-05
3119.25	7.68724e-05
3110.7	3.96061e-05
3102.14	1.66084e-05
3093.58	4.29857e-05
3085.02	5.34647e-05
3076.47	4.99251e-05
3067.91	4.43556e-05
3059.35	1.47585e-05
3050.79	1.61184e-05
3042.24	1.64584e-05
3033.68	2.12179e-05
3025.12	2.0608e-05
3016.56	2.81272e-05
3008.01	1.83482e-05
2999.45	5.20248e-05
2990.89	4.12859e-06
2982.33	1.0009e-05
2973.77	5.80143e-05
2965.22	8.54615e-06
2956.66	2.39876e-05
2948.1	5.16049e-06
2939.54	1.36986e-05
2930.99	1.77382e-06
2922.43	3.07267e-07
2913.87	-5.8343e-08
2905.31	-2.46374e-07
2896.76	-4.49454e-07
2888.2	-5.77741e-07
2879.64	-2.19778e-07
2871.08	-3.01768e-07
2862.53	-3.74261e-07
2853.97	-3.76361e-07
2845.41	-4.69853e-07
2836.85	-5.36344e-07
2828.3	-4.14957e-07
2819.74	-3.96859e-07
2811.18	-3.21067e-07
2802.62	-2.95267e-07
2794.06	-2.56972e-07
2785.51	-2.36375e-07
2776.95	-2.01478e-07
2768.39	-2.8407e-07
2759.83	-2.39675e-07
2751.28	-2.9227e-07
2742.72	-2.41474e-07
2734.16	-1.71282e-07
2725.6	-3.01868e-07
2717.05	-2.01278e-07
2708.49	-2.55274e-07
2699.93	-2.17277e-07
2691.37	-2.71571e-07
2682.82	-2.22375e-07
2674.26	-2.84471e-07
2665.7	-2.68271e-07
2657.14	-2.54973e-07
2648.59	-2.36675e-07
2640.03	-1.35384e-07
2631.47	-2.37574e-07
2622.91	-3.25367e-07
2614.35	-1.82681e-07
2605.8	-2.8707e-07
2597.24	-1.98078e-07
2588.68	-1.58683e-07
2580.12	-1.85579e-07
2571.57	-1.71282e-07
2563.01	-1.96179e-07
2554.45	-2.84771e-07
2545.89	-2.7877e-07
2537.34	-2.62971e-07
2528.78	-1.94579e-07
2520.22	-2.49873e-07
2511.66	-1.10886e-07
2503.11	-2.30275e-07
2494.55	-3.00368e-07
2485.99	-1.23185e-07
2477.43	-2.00279e-07
2468.87	-9.20691e-08
2460.32	-1.58883e-07
2451.76	-1.85479e-07
2443.2	-1.46085e-07
2434.64	-1.38786e-07
2426.09	-2.44769e-08
2417.53	-1.39584e-07
2408.97	-1.86479e-07
2400.41	-1.62282e-07
2391.86	-1.37985e-07
2383.3	-1.44184e-07
2374.74	8.2749e-08
2366.18	-4.73733e-08
2357.63	-6.65917e-08
2349.07	-5.5833e-08
2340.51	-6.40216e-08
2331.95	-1.68881e-07
2323.4	-9.88481e-08
2314.84	-1.64681e-07
2306.28	-1.30386e-07
2297.72	1.22958e-08
2289.16	5.80957e-09
2280.61	-1.47582e-07
2272.05	-1.25486e-07
2263.49	-5.30628e-08
2254.93	9.89191e-08
2246.38	1.21786e-07
2237.82	4.17638e-08
2229.26	-1.95368e-08
2220.7	4.09656e-07
2212.15	6.07938e-07
2203.59	1.27685e-07
2195.03	7.6952e-07
2186.47	3.15566e-07
2177.92	1.15286e-07
2169.36	2.54873e-07
2160.8	1.67683e-07
2152.24	5.72042e-07
2143.69	7.07552e-10
2135.13	3.65362e-07
2126.57	-1.62382e-07
2118.01	-1.78081e-07
2109.45	-1.50183e-07
2100.9	-8.17195e-08
2092.34	6.32031e-08
2083.78	6.52434e-07
2075.22	8.64712e-07
2066.67	1.75383e-06
2058.11	1.25987e-06
2049.55	1.20786e-07
2040.99	8.7369e-08
2032.44	2.19578e-06
2023.88	4.61253e-07
2015.32	1.72681e-07
2006.76	8.29317e-07
1998.21	-2.56372e-07
1989.65	-5.18732e-08
1981.09	-1.29886e-07
1972.53	-2.31375e-07
1963.97	-3.50447e-08
1955.42	-1.71482e-07
1946.86	8.9491e-07
1938.3	2.63674e-06
1929.74	6.14639e-06
1921.19	5.09249e-06
1912.63	6.23338e-06
1904.07	2.93971e-06
1895.51	1.48085e-06
1886.96	5.62244e-06
1878.4	3.40466e-06
1869.84	5.79442e-06
1861.28	1.11689e-05
1852.73	7.12129e-06
1844.17	3.68563e-06
1835.61	7.00528e-07
1827.05	1.37285e-07
1818.5	7.32707e-08
1809.94	-1.72881e-07
1801.38	-3.23068e-07
1792.82	-2.7437e-07
1784.26	1.66082e-07
1775.71	-3.5805e-08
1767.15	-2.30164e-08
1758.59	-1.28985e-07
1750.03	1.75582e-07
1741.48	2.72835e-10
1732.92	8.64396e-08
1724.36	-1.86479e-07
1715.8	-1.40785e-07
1707.25	-1.69582e-07
1698.69	-1.84878e-07
1690.13	-3.10468e-07
1681.57	-2.60972e-07
1673.02	-2.43975e-07
1664.46	-2.42974e-07
1655.9	-2.42874e-07
1647.34	-2.76171e-07
1638.79	-2.43874e-07
1630.23	-2.72971e-07
1621.67	-2.28576e-07
1613.11	-2.32075e-07
1604.55	-2.56772e-07
1596	-2.34374e-07
1587.44	-2.60572e-07
1578.88	-2.52874e-07
1570.32	-2.67871e-07
1561.77	-2.24476e-07
1553.21	-2.57272e-07
1544.65	-2.43174e-07
1536.09	-3.31464e-07
1527.54	-2.27875e-07
1518.98	-5.76628e-08
1510.42	-2.35766e-08
1501.86	2.17078e-06
1493.31	3.15068e-06
1484.75	6.0164e-06
1476.19	3.60664e-05
1467.63	1.94981e-05
1459.08	6.83332e-06
1450.52	7.35027e-06
1441.96	6.0654e-06
1433.4	1.45986e-05
1424.84	3.20268e-05
1416.29	3.65764e-05
1407.73	1.51585e-05
1399.17	7.76223e-06
1390.61	1.91581e-06
1382.06	2.62171e-07
1373.5	-6.67318e-08
1364.94	-4.51724e-08
1356.38	-2.93669e-07
1347.83	-1.64481e-07
1339.27	-2.36575e-07
1330.71	-2.96868e-07
1322.15	-2.66371e-07
1313.6	-2.31475e-07
1305.04	-2.09277e-07
1296.48	-2.71171e-07
1287.92	-2.67071e-07
1279.36	-1.99379e-07
1270.81	-2.06678e-07
1262.25	-1.8778e-07
1253.69	-1.91479e-07
1245.13	-2.40975e-07
1236.58	-2.10678e-07
1228.02	-2.84571e-07
1219.46	-3.43863e-07
1210.9	-2.00978e-07
1202.35	-2.8317e-07
1193.79	-1.61882e-07
1185.23	-2.21575e-07
1176.67	-1.10585e-07
1168.12	-2.14177e-07
1159.56	-1.52682e-07
1151	9.61503e-07
1142.44	-1.55581e-07
1133.89	1.34786e-06
1125.33	7.93421e-07
1116.77	2.70971e-07
1108.21	9.00908e-07
1099.65	2.9877e-06
1091.1	5.47246e-06
1082.54	2.0688e-05
1073.98	1.19988e-05
1065.42	8.56315e-06
1056.87	9.66404e-06
1048.31	5.37347e-05
1039.75	1.38586e-05
1031.19	2.0468e-05
1022.64	8.0952e-05
1014.08	5.0765e-05
1005.52	6.71533e-05
996.963	0.000243576
988.406	0.000154485
979.848	5.16149e-05
971.29	9.67204e-05
962.733	5.43346e-05
954.175	0.000111289
945.618	0.000150485
937.06	5.32047e-05
928.502	6.50135e-05
919.945	7.0083e-05
911.387	4.61754e-05
902.829	0.000133987
894.272	3.64564e-05
885.714	3.0207e-05
877.157	3.39166e-05
868.599	2.37476e-05
860.041	9.94901e-06
851.484	2.0658e-05
842.926	5.59044e-06
834.368	2.25077e-06
825.811	2.32377e-06
817.253	5.13847e-07
808.696	2.73071e-07
800.138	6.02338e-07
791.58	-1.12286e-07
783.023	1.57982e-07
774.465	3.56162e-07
765.907	1.58484e-06
757.35	9.40206e-07
748.792	2.46875e-06
740.235	2.80571e-07
731.677	1.12389e-06
723.119	-2.54273e-07
714.562	2.11878e-07
706.004	1.09489e-06
697.446	-1.64681e-07
688.889	-5.52127e-08
680.331	-7.87493e-08
671.774	2.72671e-07
663.216	1.27585e-07
654.658	-5.17623e-08
646.101	-5.08448e-07
637.543	-1.45385e-07
628.985	-3.36864e-07
620.428	-1.00589e-07
611.87	-2.61672e-07
603.313	-6.9213e-07
594.755	-3.56162e-07
586.197	-4.66852e-07
577.64	-8.11717e-07
