Infrared Spectrum: Bromomethane
Formula: C H3 Br
CAS: 74-83-9
State: gas
Melting point: -93.6 C
Boiling point: 3.56 C
Class: IUPAC A
Instrument: IFS66V (Bruker)
Instrument parameters: KBr Beam splitter; MCT Detector; Multipass cell
Sampling: 1 L/min Flow
Resolution: 1.9290
Temperature: 23 C
Pressure: 101.3 kPa
Origin: NIST, Anayltical Chemistry Division, 301-975-3108
cm-1	(micromol/mol)-1m-1 (base 10)
574.687	6.19103e-06
583.365	1.7635e-05
592.043	3.45354e-05
600.721	3.7404e-05
609.4	4.40187e-05
618.078	4.43536e-05
626.756	4.23882e-05
635.434	8.92292e-06
644.112	2.07057e-07
652.79	3.79883e-08
661.469	8.58619e-08
670.147	-8.71756e-09
678.825	2.365e-08
687.503	6.75354e-08
696.181	5.33714e-08
704.859	1.80074e-08
713.537	6.30989e-08
722.216	1.82355e-08
730.894	4.32543e-08
739.572	4.65064e-08
748.25	5.39881e-08
756.928	5.68548e-08
765.606	2.26946e-08
774.285	2.66598e-08
782.963	8.53969e-08
791.641	6.05917e-08
800.319	5.77666e-08
808.997	7.15382e-08
817.675	-4.3934e-09
826.353	3.29556e-08
835.032	5.5773e-08
843.71	1.17742e-07
852.388	2.0722e-07
861.066	3.6714e-07
869.744	7.2107e-07
878.422	1.57801e-06
887.101	1.79461e-06
895.779	2.14123e-06
904.457	4.09701e-06
913.135	1.32626e-05
921.813	6.0974e-06
930.491	7.05631e-06
939.169	6.49536e-06
947.848	1.02305e-05
956.526	3.46798e-05
965.204	1.68201e-05
973.882	7.29488e-06
982.56	6.44781e-06
991.238	6.6556e-06
999.917	6.17071e-06
1008.59	5.65896e-06
1017.27	5.17605e-06
1025.95	5.78857e-06
1034.63	2.96162e-06
1043.31	1.46455e-06
1051.99	7.55377e-07
1060.66	5.43091e-07
1069.34	2.94088e-07
1078.02	1.34881e-07
1086.7	1.29406e-07
1095.38	5.80782e-08
1104.05	5.32854e-08
1112.73	2.66664e-08
1121.41	5.28033e-08
1130.09	2.62757e-08
1138.77	1.35348e-08
1147.45	1.13083e-08
1156.12	6.06058e-08
1164.8	5.69941e-08
1173.48	8.1316e-08
1182.16	1.08074e-07
1190.84	1.58146e-07
1199.51	2.19105e-07
1208.19	2.08762e-07
1216.87	1.4674e-07
1225.55	3.72607e-07
1234.23	1.41754e-07
1242.9	1.4369e-07
1251.58	3.31031e-07
1260.26	1.55444e-06
1268.94	6.31112e-06
1277.62	2.0439e-05
1286.3	4.61618e-05
1294.97	5.98975e-05
1303.65	1.61779e-05
1312.33	5.08418e-05
1321.01	6.88909e-05
1329.69	2.20424e-05
1338.36	6.40996e-06
1347.04	1.29439e-06
1355.72	2.48584e-06
1364.4	9.77201e-06
1373.08	2.98073e-06
1381.76	3.04391e-06
1390.43	9.67555e-06
1399.11	6.48741e-06
1407.79	6.02592e-06
1416.47	5.93504e-06
1425.15	1.65526e-05
1433.82	7.81533e-06
1442.5	6.9043e-06
1451.18	2.74234e-05
1459.86	8.81002e-06
1468.54	7.76425e-06
1477.22	6.91336e-06
1485.89	4.49202e-05
1494.57	7.6767e-06
1503.25	6.50551e-06
1511.93	4.44233e-06
1520.61	2.17762e-05
1529.28	4.76046e-06
1537.96	4.07665e-06
1546.64	1.96951e-06
1555.32	3.24059e-06
1564	2.49197e-06
1572.67	1.34384e-06
1581.35	6.97653e-07
1590.03	4.91031e-07
1598.71	5.91481e-07
1607.39	5.58342e-07
1616.07	3.50359e-07
1624.74	2.26811e-07
1633.42	2.13267e-07
1642.1	1.22551e-07
1650.78	1.04206e-07
1659.46	4.99532e-08
1668.13	6.10754e-08
1676.81	3.62936e-08
1685.49	8.91224e-08
1694.17	3.51098e-08
1702.85	1.83763e-08
1711.53	1.74926e-08
1720.2	3.66982e-08
1728.88	1.81107e-08
1737.56	2.92324e-08
1746.24	2.83172e-08
1754.92	4.6841e-08
1763.59	4.35995e-08
1772.27	6.05478e-08
1780.95	7.82808e-09
1789.63	2.58216e-08
1798.31	1.14228e-08
1806.98	1.64513e-08
1815.66	1.00987e-08
1824.34	-6.91757e-09
1833.02	2.03825e-08
1841.7	1.43664e-08
1850.38	4.02392e-08
1859.05	2.83972e-08
1867.73	-1.67658e-08
1876.41	1.38931e-07
1885.09	2.2473e-07
1893.77	4.07383e-07
1902.44	3.6034e-07
1911.12	3.48922e-07
1919.8	5.15174e-07
1928.48	3.65028e-07
1937.16	3.25348e-08
1945.84	1.78053e-08
1954.51	-7.54932e-09
1963.19	2.60607e-08
1971.87	-8.61251e-09
1980.55	1.94788e-08
1989.23	-3.1472e-08
1997.9	6.74203e-09
2006.58	2.45819e-08
2015.26	5.47978e-09
2023.94	1.13285e-08
2032.62	1.14303e-08
2041.3	8.62172e-09
2049.97	-7.34184e-10
2058.65	2.39571e-08
2067.33	-1.76895e-09
2076.01	1.31315e-08
2084.69	1.34992e-08
2093.36	2.06747e-08
2102.04	1.00523e-08
2110.72	4.37212e-08
2119.4	6.42404e-08
2128.08	3.57423e-08
2136.75	1.492e-08
2145.43	1.32358e-08
2154.11	6.36033e-08
2162.79	8.80164e-08
2171.47	1.1241e-07
2180.15	2.24045e-07
2188.82	2.68763e-07
2197.5	3.07931e-07
2206.18	4.50942e-07
2214.86	9.2048e-07
2223.54	6.31559e-07
2232.21	7.3032e-07
2240.89	7.15043e-07
2249.57	9.8177e-07
2258.25	1.93073e-06
2266.93	1.13754e-06
2275.61	7.01862e-07
2284.28	4.64901e-07
2292.96	4.77313e-07
2301.64	4.05046e-07
2310.32	3.44029e-07
2319	4.51524e-07
2327.67	5.18444e-07
2336.35	6.04708e-07
2345.03	9.20842e-07
2353.71	7.92215e-07
2362.39	7.96473e-07
2371.06	6.59043e-07
2379.74	5.40083e-07
2388.42	5.61351e-07
2397.1	5.54024e-07
2405.78	5.82657e-07
2414.46	9.30134e-07
2423.13	1.83499e-06
2431.81	5.42754e-07
2440.49	3.19775e-07
2449.17	2.35731e-07
2457.85	2.09777e-07
2466.52	1.86784e-07
2475.2	1.65099e-07
2483.88	1.32406e-07
2492.56	1.44127e-07
2501.24	1.20855e-07
2509.92	8.99253e-08
2518.59	1.51964e-07
2527.27	2.24312e-08
2535.95	-1.19651e-08
2544.63	-9.23062e-09
2553.31	-9.74278e-09
2561.98	9.41226e-08
2570.66	3.38619e-07
2579.34	7.09463e-07
2588.02	7.77446e-07
2596.7	6.70709e-07
2605.38	1.41489e-06
2614.05	1.29789e-06
2622.73	-1.88529e-07
2631.41	-3.39381e-07
2640.09	-3.00203e-07
2648.77	-2.49375e-07
2657.44	-1.62165e-07
2666.12	2.93835e-08
2674.8	5.23615e-09
2683.48	1.37143e-08
2692.16	6.2319e-08
2700.83	3.24669e-08
2709.51	5.56117e-08
2718.19	6.0884e-08
2726.87	4.52504e-08
2735.55	6.92176e-08
2744.23	6.99239e-08
2752.9	-1.22235e-07
2761.58	6.20641e-08
2770.26	5.5463e-08
2778.94	-2.72602e-08
2787.62	1.64625e-07
2796.29	5.07323e-08
2804.97	8.58704e-08
2813.65	1.17375e-07
2822.33	3.82434e-07
2831.01	1.32179e-06
2839.69	5.75473e-06
2848.36	1.1278e-05
2857.04	5.87643e-06
2865.72	6.33981e-06
2874.4	9.99482e-06
2883.08	6.14468e-06
2891.75	2.3124e-06
2900.43	3.02585e-07
2909.11	1.52972e-07
2917.79	1.22039e-07
2926.47	7.5086e-07
2935.14	3.78871e-06
2943.82	1.71553e-05
2952.5	4.70791e-05
2961.18	6.07295e-05
2969.86	4.48696e-05
2978.54	5.88664e-05
2987.21	6.55816e-05
2995.89	3.3054e-05
3004.57	1.18591e-05
3013.25	4.3426e-06
3021.93	3.80681e-06
3030.6	3.53126e-06
3039.28	3.25827e-06
3047.96	3.84753e-06
3056.64	3.69621e-06
3065.32	4.26524e-06
3074	4.51884e-06
3082.67	3.86397e-06
3091.35	4.41748e-06
3100.03	4.09576e-06
3108.71	3.11852e-06
3117.39	2.86932e-06
3126.06	2.3435e-06
3134.74	1.47233e-06
3143.42	9.44959e-07
3152.1	9.27707e-07
3160.78	5.73351e-07
3169.46	3.24854e-07
3178.13	3.24295e-07
3186.81	3.18152e-07
3195.49	1.6094e-07
3204.17	1.18879e-07
3212.85	1.33594e-07
3221.52	1.50014e-07
3230.2	2.20138e-08
3238.88	8.79986e-09
3247.56	4.44349e-08
3256.24	-3.57406e-09
3264.91	1.57897e-08
3273.59	3.33357e-08
3282.27	2.91474e-08
3290.95	4.27914e-08
3299.63	3.897e-08
3308.31	-2.07907e-08
3316.98	3.01434e-08
3325.66	4.62346e-08
3334.34	4.68214e-08
3343.02	3.72296e-08
3351.7	4.27339e-08
3360.37	9.22357e-09
3369.05	1.89867e-09
3377.73	4.10587e-08
3386.41	6.89335e-09
3395.09	2.62919e-08
3403.77	3.00411e-08
3412.44	4.24308e-08
3421.12	2.64533e-08
3429.8	4.35442e-08
3438.48	4.762e-08
3447.16	4.87373e-08
3455.83	8.4133e-08
3464.51	8.37103e-08
3473.19	8.06252e-08
3481.87	5.85634e-08
3490.55	5.73624e-08
3499.22	5.06612e-08
3507.9	4.82295e-08
3516.58	8.4338e-09
3525.26	3.48942e-08
3533.94	6.83369e-08
3542.62	1.03537e-07
3551.29	2.13705e-07
3559.97	4.0281e-07
3568.65	5.81111e-07
3577.33	4.41661e-07
3586.01	4.93933e-07
3594.68	6.98814e-07
3603.36	4.49132e-07
3612.04	1.56353e-07
3620.72	9.32027e-08
3629.4	1.51455e-07
3638.08	8.1725e-08
3646.75	1.89463e-07
3655.43	1.88615e-07
3664.11	2.52629e-07
3672.79	3.84854e-07
3681.47	2.94007e-07
3690.14	2.59296e-07
3698.82	3.12954e-07
3707.5	1.77205e-07
3716.18	1.48728e-07
3724.86	1.75773e-07
3733.54	1.23543e-07
3742.21	8.50834e-08
3750.89	7.40091e-08
3759.57	7.05211e-08
3768.25	7.77633e-08
3776.93	4.39079e-08
3785.6	8.02453e-08
3794.28	1.06174e-07
3802.96	9.98244e-08
3811.64	1.00941e-07
3820.32	2.03215e-07
3828.99	1.41739e-07
3837.67	2.08197e-07
3846.35	1.67315e-07
3855.03	2.69793e-07
3863.71	3.07572e-07
3872.39	2.28101e-07
3881.06	3.95742e-07
3889.74	5.7094e-07
3898.42	2.44226e-07
3907.1	2.49325e-07
3915.78	2.62973e-07
3924.45	1.86412e-07
3933.13	1.59432e-07
3941.81	3.233e-07
3950.49	2.65599e-07
3959.17	1.91585e-07
3967.85	3.34364e-07
