Infrared Spectrum: Bromomethane
Formula: C H3 Br
CAS: 74-83-9
State: gas
Melting point: -93.6 C
Boiling point: 3.56 C
Class: IUPAC A
Instrument: IFS66V (Bruker)
Instrument parameters: KBr Beam splitter; MCT Detector; Multipass cell
Sampling: 1 L/min Flow
Resolution: 0.2410
Temperature: 23 C
Pressure: 101.3 kPa
Origin: NIST, Anayltical Chemistry Division, 301-975-3108
cm-1	(micromol/mol)-1m-1 (base 10)
575.048	1.00904e-05
583.606	1.40994e-05
592.163	4.14348e-05
600.721	2.83899e-05
609.279	5.12827e-05
617.836	4.98139e-05
626.394	4.46246e-05
634.951	1.10433e-05
643.509	9.57332e-08
652.067	2.99395e-07
660.624	-2.63736e-08
669.182	1.62496e-07
677.74	1.87898e-07
686.297	9.94957e-08
694.855	-1.44308e-07
703.412	-2.54045e-08
711.97	-1.39974e-07
720.528	2.5841e-07
729.085	8.44452e-09
737.643	1.65932e-07
746.201	7.67224e-08
754.758	-6.01098e-08
763.316	-9.37065e-08
771.873	3.81331e-08
780.431	4.60606e-08
788.989	-6.07551e-08
797.546	3.29286e-08
806.104	2.16844e-07
814.662	-1.90113e-07
823.219	-2.24778e-09
831.777	-1.36613e-08
840.334	9.15865e-08
848.892	1.40761e-07
857.45	2.24152e-07
866.007	5.23824e-07
874.565	5.88511e-07
883.123	1.99709e-06
891.68	4.01443e-06
900.238	2.7064e-06
908.795	4.78993e-06
917.353	4.58445e-06
925.911	6.21865e-06
934.468	2.93133e-05
943.026	5.8854e-06
951.584	7.66155e-06
960.141	6.42067e-06
968.699	7.97272e-06
977.256	7.17791e-06
985.814	1.01705e-05
994.372	1.04718e-05
1002.93	2.92909e-05
1011.49	3.69725e-06
1020.04	2.57892e-06
1028.6	1.73626e-06
1037.16	1.23507e-06
1045.72	7.77205e-07
1054.28	3.34216e-07
1062.83	2.57356e-07
1071.39	3.78764e-07
1079.95	2.01901e-07
1088.51	1.22932e-07
1097.06	1.31989e-07
1105.62	-5.7953e-08
1114.18	5.57011e-08
1122.74	8.67476e-08
1131.29	3.5803e-08
1139.85	3.3528e-08
1148.41	4.42689e-08
1156.97	3.91467e-08
1165.52	3.71254e-08
1174.08	3.36371e-09
1182.64	1.82852e-07
1191.2	6.95343e-08
1199.75	2.57693e-07
1208.31	1.48092e-07
1216.87	1.8182e-07
1225.43	4.15159e-07
1233.99	1.597e-07
1242.54	1.85167e-07
1251.1	3.23836e-07
1259.66	1.81703e-06
1268.22	6.74845e-06
1276.77	1.82354e-05
1285.33	3.56962e-05
1293.89	8.31768e-05
1302.45	1.89429e-05
1311	4.5458e-05
1319.56	8.06767e-05
1328.12	2.66041e-05
1336.68	3.94548e-06
1345.23	2.44571e-06
1353.79	2.99248e-06
1362.35	2.33052e-06
1370.91	2.41277e-06
1379.46	4.11579e-06
1388.02	5.07911e-06
1396.58	3.79061e-06
1405.14	4.25748e-06
1413.7	0.000122207
1422.25	5.49585e-06
1430.81	6.40138e-06
1439.37	1.04951e-05
1447.93	6.84278e-06
1456.48	7.74231e-06
1465.04	5.24619e-06
1473.6	1.04118e-05
1482.16	7.71004e-06
1490.71	5.61241e-06
1499.27	7.83013e-06
1507.83	9.0293e-06
1516.39	1.05987e-05
1524.94	7.18493e-06
1533.5	3.19726e-06
1542.06	4.13916e-06
1550.62	2.0352e-06
1559.18	9.26706e-07
1567.73	8.76364e-07
1576.29	1.00935e-06
1584.85	1.2928e-06
1593.41	4.05598e-07
1601.96	5.08274e-07
1610.52	4.95959e-07
1619.08	2.38054e-07
1627.64	1.58097e-07
1636.19	8.11429e-08
1644.75	1.29124e-07
1653.31	2.77298e-07
1661.87	6.26159e-08
1670.42	-2.94385e-08
1678.98	5.29022e-08
1687.54	2.28598e-08
1696.1	4.45877e-08
1704.65	5.25725e-08
1713.21	3.69758e-08
1721.77	3.76161e-08
1730.33	8.66634e-08
1738.89	-7.97941e-08
1747.44	8.5955e-09
1756	3.28977e-08
1764.56	1.5292e-08
1773.12	-1.13539e-08
1781.67	2.78255e-08
1790.23	3.00715e-08
1798.79	3.95324e-08
1807.35	2.53736e-08
1815.9	2.26547e-08
1824.46	-7.34637e-08
1833.02	3.91531e-08
1841.58	7.54723e-08
1850.13	8.20737e-08
1858.69	6.87426e-08
1867.25	5.60121e-08
1875.81	9.41639e-08
1884.36	1.42891e-07
1892.92	5.23033e-07
1901.48	4.30698e-07
1910.04	2.32142e-07
1918.6	3.84541e-07
1927.15	4.0509e-07
1935.71	4.38924e-08
1944.27	-5.46543e-08
1952.83	1.09251e-08
1961.38	-1.30751e-08
1969.94	2.02368e-08
1978.5	-9.95835e-09
1987.06	2.0944e-08
1995.61	4.18493e-08
2004.17	-1.77776e-08
2012.73	8.26535e-09
2021.29	-4.5494e-08
2029.84	-3.38508e-09
2038.4	-1.87012e-08
2046.96	2.06306e-08
2055.52	6.11916e-08
2064.08	5.58625e-08
2072.63	-3.82254e-09
2081.19	1.73624e-08
2089.75	2.90088e-08
2098.31	-1.43457e-08
2106.86	2.79865e-08
2115.42	2.05179e-08
2123.98	-3.57758e-08
2132.54	-1.50933e-08
2141.09	7.66687e-08
2149.65	-7.38179e-09
2158.21	2.02556e-07
2166.77	3.85901e-08
2175.32	1.165e-07
2183.88	1.11282e-07
2192.44	2.88505e-07
2201	4.05895e-07
2209.55	6.33204e-07
2218.11	4.03928e-07
2226.67	6.22877e-07
2235.23	1.27497e-06
2243.79	1.23025e-06
2252.34	7.04842e-07
2260.9	6.35354e-07
2269.46	6.41127e-07
2278.02	6.64867e-07
2286.57	6.97518e-07
2295.13	8.6129e-07
2303.69	6.47563e-07
2312.25	3.86487e-07
2320.8	5.17933e-07
2329.36	3.85301e-07
2337.92	4.33692e-07
2346.48	3.28875e-07
2355.03	1.9415e-06
2363.59	6.24462e-07
2372.15	5.4401e-07
2380.71	5.8142e-07
2389.26	6.11428e-07
2397.82	5.35845e-07
2406.38	5.50496e-07
2414.94	4.05771e-07
2423.5	6.86737e-06
2432.05	2.99401e-07
2440.61	2.85643e-07
2449.17	2.74994e-07
2457.73	1.6435e-07
2466.28	1.83895e-07
2474.84	1.72071e-07
2483.4	9.0195e-08
2491.96	1.43877e-07
2500.51	1.02508e-07
2509.07	8.00815e-08
2517.63	2.17719e-07
2526.19	2.81925e-08
2534.74	-8.19655e-08
2543.3	-8.09028e-08
2551.86	8.97657e-09
2560.42	2.11941e-07
2568.98	4.36543e-07
2577.53	4.78769e-07
2586.09	7.2734e-07
2594.65	4.08129e-08
2603.21	1.01529e-06
2611.76	1.15366e-06
2620.32	2.14374e-08
2628.88	-2.89111e-07
2637.44	-3.8138e-07
2645.99	-2.76241e-07
2654.55	-1.79222e-07
2663.11	4.38915e-09
2671.67	7.77169e-08
2680.22	4.42276e-08
2688.78	6.50396e-08
2697.34	8.9501e-08
2705.9	-4.64699e-09
2714.45	1.7985e-07
2723.01	1.04523e-07
2731.57	5.23051e-08
2740.13	2.01151e-07
2748.69	3.31369e-08
2757.24	1.12273e-07
2765.8	-2.58047e-08
2774.36	1.73372e-07
2782.92	1.62094e-07
2791.47	8.98407e-08
2800.03	2.65174e-07
2808.59	1.21997e-07
2817.15	1.89775e-07
2825.7	3.2288e-07
2834.26	2.28303e-06
2842.82	7.0646e-06
2851.38	8.849e-06
2859.93	8.57321e-06
2868.49	1.10701e-05
2877.05	9.22084e-06
2885.61	4.78025e-06
2894.16	1.99023e-06
2902.72	3.91891e-07
2911.28	2.22839e-07
2919.84	1.64955e-07
2928.4	1.04979e-06
2936.95	5.06739e-06
2945.51	1.92675e-05
2954.07	5.21575e-05
2962.63	5.18808e-05
2971.18	2.35762e-05
2979.74	5.88655e-05
2988.3	6.49672e-05
2996.86	3.40554e-05
3005.41	1.02398e-05
3013.97	4.2121e-06
3022.53	3.85352e-06
3031.09	3.53182e-06
3039.64	3.47393e-06
3048.2	4.252e-06
3056.76	4.10702e-06
3065.32	2.44342e-06
3073.88	5.85922e-06
3082.43	3.24634e-06
3090.99	5.01771e-06
3099.55	3.46561e-06
3108.11	2.23866e-06
3116.66	2.68844e-06
3125.22	3.1021e-06
3133.78	1.75858e-06
3142.34	7.37754e-07
3150.89	6.60329e-07
3159.45	7.65594e-07
3168.01	1.95875e-07
3176.57	5.47567e-07
3185.12	2.63101e-07
3193.68	1.265e-07
3202.24	1.05648e-07
3210.8	7.43213e-08
3219.35	1.66989e-07
3227.91	6.89727e-08
3236.47	6.26541e-09
3245.03	1.46736e-07
3253.59	8.07582e-08
3262.14	1.19691e-07
3270.7	-7.10991e-08
3279.26	1.16158e-07
3287.82	7.70466e-09
3296.37	3.74055e-08
3304.93	-1.25144e-08
3313.49	-2.89742e-08
3322.05	9.78996e-08
3330.6	4.95517e-08
3339.16	1.36952e-07
3347.72	-2.52925e-07
3356.28	5.22969e-08
3364.83	1.25076e-07
3373.39	6.10998e-08
3381.95	1.07074e-07
3390.51	1.94265e-09
3399.06	-2.50339e-08
3407.62	1.05958e-07
3416.18	-5.31118e-08
3424.74	2.2597e-07
3433.3	8.62669e-08
3441.85	4.21976e-08
3450.41	1.79731e-07
3458.97	1.02832e-07
3467.53	2.11736e-08
3476.08	-1.68724e-07
3484.64	-1.37545e-08
3493.2	-3.83055e-08
3501.76	-1.12021e-07
3510.31	5.25234e-08
3518.87	2.50644e-07
3527.43	1.33538e-07
3535.99	1.56836e-07
3544.54	8.01998e-08
3553.1	3.51743e-07
3561.66	4.07506e-07
3570.22	4.56853e-07
3578.78	4.29562e-07
3587.33	4.27893e-07
3595.89	7.52065e-07
3604.45	4.00915e-07
3613.01	3.48597e-07
3621.56	-1.26795e-08
3630.12	1.96607e-08
3638.68	4.54649e-09
3647.24	7.36356e-08
3655.79	1.79868e-07
3664.35	3.19627e-07
3672.91	3.63349e-07
3681.47	2.83568e-07
3690.02	3.05296e-07
3698.58	3.74754e-07
3707.14	1.3112e-07
3715.7	2.68146e-07
3724.25	1.70867e-07
3732.81	1.2937e-07
3741.37	1.52744e-07
3749.93	1.8262e-07
3758.49	-4.88436e-09
3767.04	1.997e-07
3775.6	1.16333e-07
3784.16	5.26262e-08
3792.72	-9.88605e-10
3801.27	1.76591e-07
3809.83	1.49721e-07
3818.39	7.10922e-08
3826.95	3.4683e-07
3835.5	1.36703e-07
3844.06	7.18139e-08
3852.62	1.78448e-07
3861.18	2.31361e-07
3869.73	3.03643e-07
3878.29	2.79859e-07
3886.85	7.02277e-07
3895.41	1.01865e-07
3903.96	3.04958e-07
3912.52	1.81444e-07
3921.08	3.06533e-07
3929.64	4.42099e-07
3938.2	3.35193e-07
3946.75	2.6675e-07
3955.31	4.97044e-08
3963.87	3.05601e-07
3972.43	6.49695e-07
