Infrared Spectrum: Ethene
Formula: C H2: C H2
CAS: 74-85-1
State: gas
Melting point: -169.15 C
Boiling point: -103.71 C
Class: IUPAC A
Instrument: IFS66V (Bruker)
Instrument parameters: KBr Beam splitter; MCT Detector; Multipass cell
Sampling: 1 L/min Flow
Resolution: 0.2410
Temperature: 23 C
Pressure: 101.3 kPa
Origin: NIST, Anayltical Chemistry Division, 301-975-3108
cm-1	(micromol/mol)-1m-1 (base 10)
575.048	6.89011e-08
583.606	-8.05972e-08
592.163	-4.01256e-07
600.721	-2.6512e-07
609.279	-5.2222e-07
617.836	-1.00662e-07
626.394	-4.02813e-07
634.951	-1.99147e-07
643.509	-1.83899e-07
652.067	-2.95244e-07
660.624	-1.83086e-07
669.182	1.90975e-08
677.74	2.07888e-07
686.297	-1.59852e-08
694.855	-5.09005e-08
703.412	4.3528e-07
711.97	7.9994e-07
720.528	6.02925e-07
729.085	1.47392e-06
737.643	1.01747e-06
746.201	3.79703e-07
754.758	1.85948e-06
763.316	2.48995e-07
771.873	8.2629e-08
780.431	1.19271e-07
788.989	2.71194e-07
797.546	4.7521e-07
806.104	6.14604e-07
814.662	5.77901e-07
823.219	1.10632e-06
831.777	1.98103e-06
840.334	9.78056e-06
848.892	9.42896e-06
857.45	2.47613e-05
866.007	3.62588e-05
874.565	4.15422e-05
883.123	5.04311e-05
891.68	4.745e-05
900.238	4.06126e-05
908.795	0.000255827
917.353	4.30129e-05
925.911	5.82825e-05
934.468	7.33245e-05
943.026	8.37378e-05
951.584	0.000274999
960.141	5.84203e-05
968.699	5.80046e-05
977.256	0.000108092
985.814	8.23244e-05
994.372	5.35328e-05
1002.93	4.55686e-05
1011.49	9.75085e-05
1020.04	0.000115414
1028.6	3.47366e-05
1037.16	5.61106e-05
1045.72	3.10182e-05
1054.28	5.75672e-06
1062.83	1.18528e-05
1071.39	5.14283e-06
1079.95	4.26009e-06
1088.51	1.79708e-06
1097.06	6.25948e-06
1105.62	4.48851e-06
1114.18	1.05406e-06
1122.74	4.43191e-07
1131.29	8.09639e-07
1139.85	3.86135e-07
1148.41	1.0661e-08
1156.97	-4.8374e-08
1165.52	-2.41615e-08
1174.08	-2.46039e-07
1182.64	-2.07376e-07
1191.2	-2.27331e-07
1199.75	-2.27411e-07
1208.31	-2.17465e-07
1216.87	-2.49877e-07
1225.43	-2.44291e-07
1233.99	-2.5055e-07
1242.54	-2.28835e-07
1251.1	-2.2014e-07
1259.66	-2.38146e-07
1268.22	-2.57407e-07
1276.77	-2.34361e-07
1285.33	-2.0372e-07
1293.89	-2.37e-07
1302.45	-2.27633e-07
1311	-2.1409e-07
1319.56	-2.24504e-07
1328.12	-1.95355e-07
1336.68	-2.09852e-07
1345.23	-1.74242e-07
1353.79	-2.11238e-07
1362.35	-2.161e-07
1370.91	-5.76999e-08
1379.46	9.28549e-07
1388.02	3.82151e-06
1396.58	9.67281e-06
1405.14	1.76789e-05
1413.7	2.10535e-05
1422.25	2.90102e-05
1430.81	1.15164e-05
1439.37	3.78193e-06
1447.93	1.76529e-05
1456.48	1.76112e-05
1465.04	2.69264e-05
1473.6	1.82055e-05
1482.16	1.45027e-05
1490.71	8.97944e-06
1499.27	7.07518e-07
1507.83	4.13321e-07
1516.39	-5.76417e-08
1524.94	-1.97159e-07
1533.5	-2.69898e-07
1542.06	-3.95786e-07
1550.62	-2.56762e-07
1559.18	-2.64925e-07
1567.73	-2.30072e-07
1576.29	-3.81278e-07
1584.85	-2.72949e-07
1593.41	-2.6675e-07
1601.96	-2.60583e-07
1610.52	-2.20955e-07
1619.08	-2.54548e-07
1627.64	-2.71712e-07
1636.19	-2.54581e-07
1644.75	-2.54543e-07
1653.31	-4.63505e-07
1661.87	-2.59434e-07
1670.42	-2.48042e-07
1678.98	-2.25712e-07
1687.54	-2.58101e-07
1696.1	-3.076e-07
1704.65	-1.84063e-07
1713.21	-2.19804e-07
1721.77	-3.62941e-08
1730.33	9.81431e-08
1738.89	-4.80229e-08
1747.44	-1.03773e-08
1756	-8.33075e-08
1764.56	-1.85658e-07
1773.12	-5.46585e-08
1781.67	-2.57167e-08
1790.23	-1.24073e-07
1798.79	-1.78604e-07
1807.35	-1.81711e-07
1815.9	-1.05215e-07
1824.46	1.901e-07
1833.02	9.41122e-07
1841.58	3.03868e-06
1850.13	6.71113e-06
1858.69	1.05725e-05
1867.25	5.5496e-06
1875.81	7.4151e-06
1884.36	1.21929e-06
1892.92	2.04724e-06
1901.48	1.51348e-05
1910.04	1.25558e-05
1918.6	1.70049e-05
1927.15	4.07937e-06
1935.71	1.62695e-06
1944.27	8.6887e-07
1952.83	1.96839e-07
1961.38	-3.34801e-07
1969.94	-1.15734e-07
1978.5	8.44516e-08
1987.06	-6.2964e-08
1995.61	2.85071e-07
2004.17	3.63138e-07
2012.73	2.14436e-07
2021.29	1.93976e-07
2029.84	1.05052e-06
2038.4	1.2087e-06
2046.96	5.8354e-06
2055.52	-1.08797e-07
2064.08	7.85374e-07
2072.63	2.84653e-06
2081.19	1.30772e-06
2089.75	2.95264e-07
2098.31	-4.8263e-08
2106.86	-2.72543e-07
2115.42	-1.22818e-07
2123.98	1.9989e-07
2132.54	5.4278e-07
2141.09	3.7618e-07
2149.65	1.43206e-07
2158.21	5.22848e-07
2166.77	1.40576e-07
2175.32	1.30417e-07
2183.88	2.84128e-07
2192.44	4.71176e-07
2201	8.29158e-07
2209.55	2.37179e-07
2218.11	2.52325e-07
2226.67	1.14921e-07
2235.23	2.906e-08
2243.79	1.12391e-07
2252.34	5.29689e-07
2260.9	-5.95007e-08
2269.46	-1.36083e-07
2278.02	-1.6542e-07
2286.57	-1.53311e-07
2295.13	-1.72683e-07
2303.69	-9.43178e-08
2312.25	-9.3783e-08
2320.8	-1.43705e-07
2329.36	-9.91071e-08
2337.92	3.78657e-08
2346.48	-8.91628e-08
2355.03	-1.39288e-07
2363.59	-1.27063e-07
2372.15	-5.76271e-08
2380.71	-9.33082e-08
2389.26	-1.01261e-07
2397.82	-1.47336e-07
2406.38	-1.68066e-07
2414.94	-1.03484e-07
2423.5	-1.14519e-07
2432.05	-1.48321e-07
2440.61	-2.11882e-07
2449.17	-1.13941e-07
2457.73	-8.15285e-08
2466.28	-7.46837e-08
2474.84	-1.23523e-07
2483.4	-1.95006e-07
2491.96	-1.81927e-07
2500.51	-2.32255e-07
2509.07	-2.3148e-07
2517.63	-2.44069e-07
2526.19	-2.14705e-07
2534.74	-2.0141e-07
2543.3	-1.45004e-07
2551.86	-2.40587e-07
2560.42	-2.26345e-07
2568.98	-6.25402e-08
2577.53	-2.05605e-07
2586.09	-2.25812e-07
2594.65	-2.42568e-07
2603.21	-2.06305e-07
2611.76	-2.59236e-07
2620.32	-1.93441e-07
2628.88	-2.11522e-07
2637.44	-2.22516e-07
2645.99	-1.87288e-07
2654.55	-1.93732e-07
2663.11	-1.94625e-07
2671.67	-1.96932e-07
2680.22	-2.5782e-07
2688.78	-2.57866e-07
2697.34	-2.64656e-07
2705.9	-2.6229e-07
2714.45	-2.38801e-07
2723.01	-2.49262e-07
2731.57	-2.36191e-07
2740.13	-2.36036e-07
2748.69	-2.90105e-07
2757.24	-2.78006e-07
2765.8	-2.77867e-07
2774.36	-2.37992e-07
2782.92	-3.10485e-07
2791.47	-3.60154e-07
2800.03	-4.21127e-07
2808.59	-3.72911e-07
2817.15	-2.78042e-07
2825.7	-4.00014e-07
2834.26	-3.9871e-07
2842.82	-4.18091e-07
2851.38	-4.04859e-07
2859.93	-5.22435e-07
2868.49	-2.25855e-07
2877.05	-2.79306e-07
2885.61	-7.33276e-07
2894.16	-5.33974e-07
2902.72	-3.42625e-07
2911.28	-2.90837e-07
2919.84	3.25961e-09
2928.4	1.18049e-06
2936.95	4.36827e-06
2945.51	1.88432e-05
2954.07	2.03065e-05
2962.63	5.11493e-05
2971.18	2.10709e-05
2979.74	1.53668e-05
2988.3	0.000309738
2996.86	7.08893e-06
3005.41	3.46467e-05
3013.97	6.14388e-05
3022.53	3.2995e-05
3031.09	1.85822e-05
3039.64	1.37345e-05
3048.2	2.27633e-05
3056.76	2.47511e-05
3065.32	2.0333e-05
3073.88	4.91715e-05
3082.43	2.50318e-05
3090.99	3.09474e-05
3099.55	4.65308e-05
3108.11	1.57403e-05
3116.66	4.19056e-05
3125.22	6.42323e-05
3133.78	4.64756e-05
3142.34	2.25973e-05
3150.89	3.48715e-05
3159.45	1.514e-05
3168.01	2.97017e-05
3176.57	1.46963e-05
3185.12	3.66828e-06
3193.68	1.30358e-05
3202.24	8.24338e-06
3210.8	3.84839e-06
3219.35	2.95471e-06
3227.91	3.49321e-06
3236.47	1.05527e-06
3245.03	2.59454e-07
3253.59	1.49173e-07
3262.14	-2.97458e-08
3270.7	-1.50482e-07
3279.26	-1.51916e-07
3287.82	-2.0632e-07
3296.37	-1.53871e-07
3304.93	-1.96361e-07
3313.49	-1.35067e-07
3322.05	-2.19142e-07
3330.6	-2.54326e-07
3339.16	-1.4926e-07
3347.72	-2.08511e-07
3356.28	-2.28437e-07
3364.83	-2.33222e-07
3373.39	-1.74315e-07
3381.95	-1.50528e-07
3390.51	-2.14247e-07
3399.06	-1.90535e-07
3407.62	-2.2109e-07
3416.18	-2.02209e-07
3424.74	-2.73074e-07
3433.3	-1.92175e-07
3441.85	-2.99595e-07
3450.41	-2.74821e-07
3458.97	-2.33362e-07
3467.53	-1.80248e-07
3476.08	-1.79923e-07
3484.64	-2.10976e-07
3493.2	-1.4828e-07
3501.76	-2.32673e-07
3510.31	-2.56061e-07
3518.87	-1.99873e-07
3527.43	-2.04824e-07
3535.99	-1.59745e-07
3544.54	-2.02593e-07
3553.1	-1.99191e-07
3561.66	-2.46612e-07
3570.22	-2.31549e-07
3578.78	-1.80197e-07
3587.33	-3.01409e-07
3595.89	-2.59256e-07
3604.45	-2.05341e-07
3613.01	-2.41644e-07
3621.56	-2.30956e-07
3630.12	-1.92659e-07
3638.68	-2.04861e-07
3647.24	-2.36356e-07
3655.79	-2.41635e-07
3664.35	-2.20073e-07
3672.91	-2.53979e-07
3681.47	-2.41202e-07
3690.02	-2.5712e-07
3698.58	-2.58082e-07
3707.14	-3.34079e-07
3715.7	-2.50035e-07
3724.25	-2.82293e-07
3732.81	-3.62977e-07
3741.37	-1.29988e-07
3749.93	-2.34932e-07
3758.49	-2.69982e-07
3767.04	-2.09899e-07
3775.6	-4.46971e-07
3784.16	-2.00533e-07
3792.72	-1.23973e-07
3801.27	-2.92485e-07
3809.83	-3.59158e-07
3818.39	-2.35194e-09
3826.95	-2.88025e-07
3835.5	-1.81531e-07
3844.06	-1.41009e-07
3852.62	-2.08713e-07
3861.18	-5.00329e-08
3869.73	-1.42573e-07
3878.29	-1.1236e-07
3886.85	-1.33351e-07
3895.41	-2.06711e-07
3903.96	-1.87451e-07
3912.52	-1.42775e-07
3921.08	7.24845e-08
3929.64	-5.02057e-08
3938.2	-1.32844e-07
3946.75	-8.85134e-08
3955.31	-1.51157e-07
3963.87	-1.97516e-07
3972.43	-9.98584e-08
