Infrared Spectrum: Ethene
Formula: C H2: C H2
CAS: 74-85-1
State: gas
Melting point: -169.15 C
Boiling point: -103.71 C
Class: IUPAC A
Instrument: IFS66V (Bruker)
Instrument parameters: KBr Beam splitter; MCT Detector; Multipass cell
Sampling: 1 L/min Flow
Resolution: 0.4820
Temperature: 23 C
Pressure: 101.3 kPa
Origin: NIST, Anayltical Chemistry Division, 301-975-3108
cm-1	(micromol/mol)-1m-1 (base 10)
574.928	-1.07403e-07
583.606	-1.5215e-07
592.284	-4.06131e-07
600.962	-3.97162e-07
609.641	-3.3146e-07
618.319	-2.66224e-07
626.997	-1.99391e-07
635.675	-3.06671e-07
644.353	-1.39065e-07
653.031	-1.08158e-07
661.71	-2.20137e-07
670.388	-9.94655e-08
679.066	-8.77221e-08
687.744	2.72743e-07
696.422	7.0631e-08
705.1	1.65484e-07
713.778	8.92048e-07
722.457	3.18764e-07
731.135	9.84752e-07
739.813	1.07061e-06
748.491	1.02499e-06
757.169	1.27826e-06
765.847	1.34322e-06
774.526	5.7025e-07
783.204	1.54792e-07
791.882	2.359e-07
800.56	1.72819e-07
809.238	5.34675e-07
817.916	9.87504e-07
826.594	8.38364e-07
835.273	4.20773e-06
843.951	1.1358e-05
852.629	9.86521e-06
861.307	2.0555e-05
869.985	2.66526e-05
878.663	6.37793e-05
887.342	3.73455e-05
896.02	8.22212e-05
904.698	5.08041e-05
913.376	8.85112e-05
922.054	0.000147261
930.732	6.73174e-05
939.41	0.00010058
948.089	0.000320749
956.767	9.37326e-05
965.445	9.98007e-05
974.123	4.92987e-05
982.801	6.42692e-05
991.479	7.72936e-05
1000.16	5.36066e-05
1008.84	5.29924e-05
1017.51	7.14006e-05
1026.19	5.14192e-05
1034.87	2.3372e-05
1043.55	2.602e-05
1052.23	1.04762e-05
1060.9	1.22584e-05
1069.58	1.07794e-05
1078.26	4.06471e-06
1086.94	2.77041e-06
1095.62	2.30487e-06
1104.3	1.22569e-06
1112.97	2.41783e-06
1121.65	7.26681e-07
1130.33	5.20057e-07
1139.01	2.1427e-07
1147.69	4.41668e-07
1156.36	-9.93672e-08
1165.04	-1.47867e-07
1173.72	-1.62473e-07
1182.4	-1.96794e-07
1191.08	-2.18321e-07
1199.76	-2.18509e-07
1208.43	-2.32757e-07
1217.11	-2.45942e-07
1225.79	-2.30268e-07
1234.47	-2.4317e-07
1243.15	-2.42805e-07
1251.82	-2.49086e-07
1260.5	-2.59236e-07
1269.18	-2.22772e-07
1277.86	-2.31111e-07
1286.54	-2.64958e-07
1295.21	-2.46941e-07
1303.89	-2.13861e-07
1312.57	-2.34778e-07
1321.25	-2.19902e-07
1329.93	-2.08155e-07
1338.61	-2.25832e-07
1347.28	-2.15538e-07
1355.96	-2.12459e-07
1364.64	-1.39576e-07
1373.32	3.4979e-09
1382	4.33205e-07
1390.67	2.89892e-06
1399.35	1.10496e-05
1408.03	1.81094e-05
1416.71	3.45462e-05
1425.39	2.76242e-05
1434.07	9.30628e-06
1442.74	3.62977e-05
1451.42	1.4207e-05
1460.1	3.05147e-05
1468.78	1.39198e-05
1477.46	1.31754e-05
1486.13	7.90337e-06
1494.81	2.63237e-06
1503.49	1.34323e-06
1512.17	4.04359e-08
1520.85	-2.01663e-07
1529.52	-2.30039e-07
1538.2	-2.68772e-07
1546.88	-2.34276e-07
1555.56	-2.37619e-07
1564.24	-2.33117e-07
1572.92	-2.23436e-07
1581.59	-2.5567e-07
1590.27	-1.9024e-07
1598.95	-2.34701e-07
1607.63	-2.2298e-07
1616.31	-2.62655e-07
1624.98	-2.3319e-07
1633.66	-2.37275e-07
1642.34	-2.55727e-07
1651.02	-2.66233e-07
1659.7	-2.45873e-07
1668.38	-2.60351e-07
1677.05	-2.54861e-07
1685.73	-2.40767e-07
1694.41	-2.18289e-07
1703.09	-1.92437e-07
1711.77	-1.38963e-07
1720.44	-1.42977e-07
1729.12	-1.4956e-07
1737.8	-6.96306e-09
1746.48	7.65991e-08
1755.16	-4.30753e-08
1763.84	-1.3244e-07
1772.51	-2.23576e-07
1781.19	9.67115e-08
1789.87	2.15094e-08
1798.55	-2.16642e-07
1807.23	-1.83757e-07
1815.9	-1.18656e-07
1824.58	2.60249e-07
1833.26	8.92708e-07
1841.94	2.22145e-06
1850.62	7.69247e-06
1859.29	5.31377e-06
1867.97	1.10941e-05
1876.65	4.86061e-06
1885.33	3.96073e-06
1894.01	2.26666e-06
1902.69	5.46852e-06
1911.36	1.25546e-05
1920.04	1.25743e-05
1928.72	6.0008e-06
1937.4	2.23431e-06
1946.08	8.04711e-07
1954.75	-6.41391e-08
1963.43	-8.30674e-08
1972.11	-3.07753e-07
1980.79	-1.44836e-07
1989.47	2.49662e-07
1998.15	-1.63477e-07
2006.82	5.12238e-07
2015.5	6.43612e-07
2024.18	1.654e-06
2032.86	7.57702e-07
2041.54	2.00633e-09
2050.21	-1.25955e-07
2058.89	3.41557e-07
2067.57	8.78242e-07
2076.25	1.32297e-06
2084.93	6.78882e-07
2093.6	8.59122e-08
2102.28	-7.86672e-08
2110.96	-7.09184e-08
2119.64	2.97985e-08
2128.32	-8.65052e-08
2137	-1.47337e-07
2145.67	9.68407e-08
2154.35	1.75852e-07
2163.03	2.96503e-07
2171.71	1.28467e-07
2180.39	5.14831e-07
2189.06	4.9847e-07
2197.74	4.76524e-07
2206.42	4.57246e-07
2215.1	4.4893e-07
2223.78	2.54437e-07
2232.46	9.20204e-08
2241.13	3.22232e-08
2249.81	7.15914e-08
2258.49	-6.79516e-08
2267.17	-8.92119e-08
2275.85	-1.38677e-07
2284.52	-1.5796e-07
2293.2	-1.43226e-07
2301.88	-9.88397e-08
2310.56	-1.07773e-07
2319.24	-4.13527e-08
2327.92	-9.2557e-08
2336.59	-1.06812e-07
2345.27	-1.36989e-07
2353.95	-9.69553e-08
2362.63	1.54262e-07
2371.31	3.63396e-08
2379.98	-1.20191e-07
2388.66	-1.16928e-07
2397.34	-1.33184e-07
2406.02	-1.11956e-07
2414.7	-1.5135e-07
2423.37	-8.64397e-08
2432.05	-1.53669e-07
2440.73	-1.91222e-07
2449.41	-1.14072e-07
2458.09	-1.02691e-07
2466.77	-1.25984e-07
2475.44	-1.113e-07
2484.12	-1.97123e-07
2492.8	-1.97046e-07
2501.48	-2.26754e-07
2510.16	-1.96119e-07
2518.83	-1.99682e-07
2527.51	-2.31192e-07
2536.19	-2.13044e-07
2544.87	-2.08479e-07
2553.55	-2.37417e-07
2562.23	-2.22105e-07
2570.9	-1.70211e-07
2579.58	-2.58228e-07
2588.26	-2.25852e-07
2596.94	-2.10609e-07
2605.62	-2.0045e-07
2614.29	-2.18138e-07
2622.97	-2.23491e-07
2631.65	-2.04119e-07
2640.33	-2.02103e-07
2649.01	-2.07269e-07
2657.68	-2.19695e-07
2666.36	-2.21801e-07
2675.04	-2.19582e-07
2683.72	-2.42741e-07
2692.4	-2.31609e-07
2701.08	-2.59836e-07
2709.75	-2.3962e-07
2718.43	-2.46521e-07
2727.11	-2.43909e-07
2735.79	-2.48731e-07
2744.47	-2.58643e-07
2753.14	-2.31294e-07
2761.82	-2.48502e-07
2770.5	-2.654e-07
2779.18	-3.11097e-07
2787.86	-2.84729e-07
2796.54	-3.56884e-07
2805.21	-3.60009e-07
2813.89	-3.43562e-07
2822.57	-3.84601e-07
2831.25	-4.64224e-07
2839.93	-5.49903e-07
2848.6	-3.89498e-07
2857.28	-3.41246e-07
2865.96	-3.42274e-07
2874.64	-2.21197e-07
2883.32	-2.78579e-07
2892	-4.84614e-07
2900.67	-2.7292e-07
2909.35	-2.395e-07
2918.03	4.7861e-08
2926.71	8.45553e-07
2935.39	2.82789e-06
2944.06	5.21799e-06
2952.74	1.8197e-05
2961.42	2.09183e-05
2970.1	4.24731e-05
2978.78	8.3555e-06
2987.45	8.21121e-05
2996.13	1.63431e-05
3004.81	4.59219e-05
3013.49	5.4064e-05
3022.17	2.28181e-05
3030.85	2.09671e-05
3039.52	1.60843e-05
3048.2	2.0034e-05
3056.88	2.49958e-05
3065.56	2.22501e-05
3074.24	3.69459e-05
3082.91	3.54959e-05
3091.59	3.50425e-05
3100.27	3.35578e-05
3108.95	3.03257e-05
3117.63	3.03695e-05
3126.31	4.64151e-05
3134.98	3.68459e-05
3143.66	2.29614e-05
3152.34	2.4944e-05
3161.02	1.4424e-05
3169.7	4.76292e-05
3178.37	1.28983e-05
3187.05	8.28607e-06
3195.73	1.22972e-05
3204.41	6.78592e-06
3213.09	3.88044e-06
3221.77	1.43811e-06
3230.44	7.4815e-07
3239.12	5.2491e-07
3247.8	1.76534e-07
3256.48	1.6098e-08
3265.16	-9.49726e-08
3273.83	-1.2862e-07
3282.51	-1.7748e-07
3291.19	-1.49698e-07
3299.87	-1.8925e-07
3308.55	-2.01474e-07
3317.22	-2.01014e-07
3325.9	-2.02565e-07
3334.58	-2.51581e-07
3343.26	-1.55295e-07
3351.94	-1.71879e-07
3360.62	-1.64543e-07
3369.29	-1.31079e-07
3377.97	-1.47492e-07
3386.65	-1.63394e-07
3395.33	-2.27658e-07
3404.01	-2.47825e-07
3412.68	-2.23976e-07
3421.36	-2.61899e-07
3430.04	-2.18309e-07
3438.72	-2.98553e-07
3447.4	-2.23314e-07
3456.08	-2.46612e-07
3464.75	-2.32942e-07
3473.43	-2.07411e-07
3482.11	-1.72667e-07
3490.79	-2.11282e-07
3499.47	-2.33753e-07
3508.14	-2.64763e-07
3516.82	-1.5712e-07
3525.5	-1.48449e-07
3534.18	-1.41826e-07
3542.86	-1.82955e-07
3551.53	-2.01307e-07
3560.21	-2.51769e-07
3568.89	-2.24713e-07
3577.57	-2.36822e-07
3586.25	-2.18116e-07
3594.93	-1.95659e-07
3603.6	-2.34217e-07
3612.28	-2.33402e-07
3620.96	-2.06978e-07
3629.64	-3.30769e-07
3638.32	-2.05015e-07
3646.99	-2.29979e-07
3655.67	-2.32507e-07
3664.35	-2.26059e-07
3673.03	-2.31247e-07
3681.71	-2.34046e-07
3690.39	-2.21135e-07
3699.06	-2.36731e-07
3707.74	-3.02587e-07
3716.42	-4.22667e-07
3725.1	-2.15193e-07
3733.78	-1.84757e-07
3742.45	-3.2816e-07
3751.13	-2.77809e-07
3759.81	-2.4569e-07
3768.49	-1.44782e-07
3777.17	-6.7182e-07
3785.85	-1.85378e-07
3794.52	-1.90105e-07
3803.2	-2.21446e-07
3811.88	-2.07056e-07
3820.56	-3.48104e-07
3829.24	-2.15696e-07
3837.91	-1.92945e-07
3846.59	-2.61742e-07
3855.27	-1.48145e-07
3863.95	-1.07083e-08
3872.63	-9.29662e-08
3881.3	-1.19012e-07
3889.98	-1.46331e-07
3898.66	-5.6352e-08
3907.34	-1.09381e-07
3916.02	-1.48361e-07
3924.7	-1.13812e-07
3933.37	-2.07284e-07
3942.05	-1.86995e-07
3950.73	-1.6279e-07
3959.41	-1.03433e-07
3968.09	-1.12178e-07
