Infrared Spectrum: Bromomethane
Formula: C H3 Br
CAS: 74-83-9
State: gas
Melting point: -93.6 C
Boiling point: 3.56 C
Class: IUPAC A
Instrument: IFS66V (Bruker)
Instrument parameters: KBr Beam splitter; MCT Detector; Multipass cell
Sampling: 1 L/min Flow
Resolution: 1.9290
Temperature: 23 C
Pressure: 101.3 kPa
Origin: NIST, Anayltical Chemistry Division, 301-975-3108
cm-1	(micromol/mol)-1m-1 (base 10)
574.687	6.17223e-06
583.365	1.76725e-05
592.043	3.44935e-05
600.721	3.74431e-05
609.4	4.13663e-05
618.078	4.42167e-05
626.756	4.23037e-05
635.434	9.0073e-06
644.112	2.05217e-07
652.79	4.55426e-08
661.469	7.93476e-08
670.147	1.30144e-08
678.825	2.95963e-08
687.503	6.74222e-08
696.181	4.16934e-08
704.859	1.52452e-08
713.537	4.80318e-08
722.216	2.99577e-08
730.894	3.64172e-08
739.572	5.45771e-08
748.25	4.33681e-08
756.928	5.47992e-08
765.606	1.69911e-08
774.285	3.15002e-08
782.963	7.48428e-08
791.641	6.39725e-08
800.319	4.89797e-08
808.997	6.46736e-08
817.675	3.95616e-09
826.353	4.10212e-08
835.032	5.47273e-08
843.71	1.24349e-07
852.388	1.97293e-07
861.066	3.80696e-07
869.744	7.34899e-07
878.422	1.51169e-06
887.101	1.81591e-06
895.779	2.22067e-06
904.457	4.27577e-06
913.135	1.18032e-05
921.813	6.70913e-06
930.491	6.86798e-06
939.169	6.61533e-06
947.848	1.12356e-05
956.526	3.11458e-05
965.204	1.62907e-05
973.882	8.39989e-06
982.56	6.4664e-06
991.238	6.62918e-06
999.917	6.22887e-06
1008.59	5.77238e-06
1017.27	5.18751e-06
1025.95	5.32594e-06
1034.63	2.81328e-06
1043.31	1.51284e-06
1051.99	7.89952e-07
1060.66	5.55593e-07
1069.34	2.85265e-07
1078.02	1.42183e-07
1086.7	1.20191e-07
1095.38	6.19152e-08
1104.05	4.34038e-08
1112.73	3.21794e-08
1121.41	4.55058e-08
1130.09	2.9154e-08
1138.77	1.24585e-08
1147.45	1.6864e-08
1156.12	5.63376e-08
1164.8	6.03865e-08
1173.48	7.48927e-08
1182.16	1.11516e-07
1190.84	1.57484e-07
1199.51	2.22154e-07
1208.19	2.06425e-07
1216.87	1.4815e-07
1225.55	3.6779e-07
1234.23	1.37982e-07
1242.9	1.47289e-07
1251.58	3.31953e-07
1260.26	1.56547e-06
1268.94	6.31816e-06
1277.62	2.04817e-05
1286.3	4.61208e-05
1294.97	5.97904e-05
1303.65	1.78171e-05
1312.33	5.07458e-05
1321.01	6.88207e-05
1329.69	2.21014e-05
1338.36	6.16091e-06
1347.04	1.29484e-06
1355.72	2.52412e-06
1364.4	8.81689e-06
1373.08	3.25115e-06
1381.76	3.12421e-06
1390.43	1.03305e-05
1399.11	6.59961e-06
1407.79	5.8753e-06
1416.47	6.67027e-06
1425.15	1.79282e-05
1433.82	7.76906e-06
1442.5	6.87941e-06
1451.18	3.07729e-05
1459.86	8.85348e-06
1468.54	7.68729e-06
1477.22	7.13823e-06
1485.89	3.752e-05
1494.57	7.67919e-06
1503.25	6.61811e-06
1511.93	4.47083e-06
1520.61	1.82535e-05
1529.28	4.73258e-06
1537.96	4.0393e-06
1546.64	2.02074e-06
1555.32	3.62839e-06
1564	2.58112e-06
1572.67	1.34403e-06
1581.35	7.01602e-07
1590.03	5.08235e-07
1598.71	6.06741e-07
1607.39	5.39722e-07
1616.07	3.48311e-07
1624.74	2.37554e-07
1633.42	2.09758e-07
1642.1	1.28098e-07
1650.78	1.04246e-07
1659.46	5.33291e-08
1668.13	5.99565e-08
1676.81	4.38327e-08
1685.49	8.04617e-08
1694.17	4.12739e-08
1702.85	1.92502e-08
1711.53	2.26766e-08
1720.2	3.47268e-08
1728.88	2.30032e-08
1737.56	2.59292e-08
1746.24	3.17636e-08
1754.92	4.32028e-08
1763.59	4.45299e-08
1772.27	5.65962e-08
1780.95	1.23992e-08
1789.63	2.5559e-08
1798.31	1.72137e-08
1806.98	1.46622e-08
1815.66	1.19341e-08
1824.34	-6.57048e-09
1833.02	2.24702e-08
1841.7	1.02208e-08
1850.38	3.80153e-08
1859.05	2.63505e-08
1867.73	-1.28369e-08
1876.41	1.38999e-07
1885.09	2.24054e-07
1893.77	4.04844e-07
1902.44	3.66939e-07
1911.12	3.38062e-07
1919.8	5.19273e-07
1928.48	3.69449e-07
1937.16	3.36561e-08
1945.84	1.50536e-08
1954.51	-7.34434e-09
1963.19	3.04008e-08
1971.87	-7.75873e-09
1980.55	1.89997e-08
1989.23	-2.57528e-08
1997.9	8.2677e-09
2006.58	2.01367e-08
2015.26	7.37663e-09
2023.94	1.12173e-08
2032.62	1.05673e-08
2041.3	8.8616e-09
2049.97	-2.45107e-10
2058.65	2.43849e-08
2067.33	1.33342e-09
2076.01	1.38694e-08
2084.69	1.58674e-08
2093.36	2.50853e-08
2102.04	1.59298e-08
2110.72	4.41489e-08
2119.4	5.39357e-08
2128.08	3.16493e-08
2136.75	1.9517e-08
2145.43	1.64845e-08
2154.11	5.96302e-08
2162.79	8.79935e-08
2171.47	1.18412e-07
2180.15	2.12851e-07
2188.82	2.70201e-07
2197.5	3.09924e-07
2206.18	4.58457e-07
2214.86	8.71873e-07
2223.54	6.49681e-07
2232.21	7.35949e-07
2240.89	7.21851e-07
2249.57	9.98023e-07
2258.25	1.8402e-06
2266.93	1.08283e-06
2275.61	7.47824e-07
2284.28	5.12996e-07
2292.96	4.91063e-07
2301.64	4.17465e-07
2310.32	3.55896e-07
2319	4.47754e-07
2327.67	5.24654e-07
2336.35	6.6492e-07
2345.03	8.39019e-07
2353.71	8.24804e-07
2362.39	8.27236e-07
2371.06	6.55685e-07
2379.74	5.49605e-07
2388.42	5.52752e-07
2397.1	5.65108e-07
2405.78	6.58572e-07
2414.46	9.20025e-07
2423.13	1.56204e-06
2431.81	5.94233e-07
2440.49	3.32635e-07
2449.17	2.35298e-07
2457.85	2.18026e-07
2466.52	1.83143e-07
2475.2	1.73097e-07
2483.88	1.34685e-07
2492.56	1.45148e-07
2501.24	1.17679e-07
2509.92	9.01097e-08
2518.59	1.55062e-07
2527.27	2.29446e-08
2535.95	-9.29929e-09
2544.63	-1.08267e-08
2553.31	-1.1243e-08
2561.98	9.71746e-08
2570.66	3.41492e-07
2579.34	7.09485e-07
2588.02	7.80085e-07
2596.7	6.41913e-07
2605.38	1.40084e-06
2614.05	1.27785e-06
2622.73	-1.82527e-07
2631.41	-3.35743e-07
2640.09	-2.99927e-07
2648.77	-2.51404e-07
2657.44	-1.60786e-07
2666.12	2.02314e-08
2674.8	3.78847e-09
2683.48	1.5481e-08
2692.16	6.92058e-08
2700.83	3.33806e-08
2709.51	5.75913e-08
2718.19	5.70276e-08
2726.87	5.11058e-08
2735.55	6.35232e-08
2744.23	6.79627e-08
2752.9	-8.45455e-08
2761.58	6.99378e-08
2770.26	4.97342e-08
2778.94	-3.09599e-08
2787.62	1.47472e-07
2796.29	6.09512e-08
2804.97	7.55222e-08
2813.65	1.23224e-07
2822.33	3.76753e-07
2831.01	1.33361e-06
2839.69	5.75423e-06
2848.36	1.12064e-05
2857.04	5.94134e-06
2865.72	6.31561e-06
2874.4	9.948e-06
2883.08	6.15019e-06
2891.75	2.29503e-06
2900.43	3.37627e-07
2909.11	1.4371e-07
2917.79	1.43909e-07
2926.47	7.19781e-07
2935.14	3.81813e-06
2943.82	1.71727e-05
2952.5	4.71484e-05
2961.18	6.06391e-05
2969.86	4.38375e-05
2978.54	5.8414e-05
2987.21	6.51649e-05
2995.89	3.30258e-05
3004.57	1.26292e-05
3013.25	4.77539e-06
3021.93	3.79385e-06
3030.6	3.53465e-06
3039.28	3.37333e-06
3047.96	4.04191e-06
3056.64	3.65766e-06
3065.32	4.06808e-06
3074	4.43716e-06
3082.67	3.72702e-06
3091.35	4.34973e-06
3100.03	4.09418e-06
3108.71	2.9979e-06
3117.39	2.79462e-06
3126.06	2.34692e-06
3134.74	1.49676e-06
3143.42	1.00635e-06
3152.1	9.49065e-07
3160.78	5.84987e-07
3169.46	3.41174e-07
3178.13	3.33571e-07
3186.81	3.05286e-07
3195.49	1.6376e-07
3204.17	1.21213e-07
3212.85	1.34323e-07
3221.52	1.48373e-07
3230.2	2.37515e-08
3238.88	1.60683e-08
3247.56	4.05983e-08
3256.24	2.74893e-09
3264.91	1.59414e-08
3273.59	3.57163e-08
3282.27	2.75351e-08
3290.95	3.78361e-08
3299.63	3.71419e-08
3308.31	-1.28674e-08
3316.98	3.16575e-08
3325.66	4.6456e-08
3334.34	4.55964e-08
3343.02	3.83581e-08
3351.7	3.70027e-08
3360.37	1.10333e-08
3369.05	3.62044e-09
3377.73	4.19518e-08
3386.41	7.77646e-09
3395.09	3.0014e-08
3403.77	3.33595e-08
3412.44	3.79537e-08
3421.12	2.58426e-08
3429.8	3.99257e-08
3438.48	4.83648e-08
3447.16	5.24838e-08
3455.83	8.18703e-08
3464.51	8.80789e-08
3473.19	8.56426e-08
3481.87	5.64949e-08
3490.55	5.49309e-08
3499.22	5.14542e-08
3507.9	4.57409e-08
3516.58	2.02138e-08
3525.26	3.97298e-08
3533.94	6.79037e-08
3542.62	1.03218e-07
3551.29	2.13729e-07
3559.97	4.00388e-07
3568.65	5.76852e-07
3577.33	4.46295e-07
3586.01	5.03536e-07
3594.68	6.895e-07
3603.36	4.50809e-07
3612.04	1.53379e-07
3620.72	9.43911e-08
3629.4	1.43906e-07
3638.08	9.03833e-08
3646.75	1.89866e-07
3655.43	1.89869e-07
3664.11	2.48596e-07
3672.79	3.72075e-07
3681.47	2.83151e-07
3690.14	2.62179e-07
3698.82	2.97609e-07
3707.5	1.72462e-07
3716.18	1.52963e-07
3724.86	1.6967e-07
3733.54	1.25939e-07
3742.21	8.76392e-08
3750.89	9.17146e-08
3759.57	6.73961e-08
3768.25	7.76562e-08
3776.93	4.87638e-08
3785.6	7.56668e-08
3794.28	1.05999e-07
3802.96	1.07476e-07
3811.64	1.06841e-07
3820.32	1.87309e-07
3828.99	1.49124e-07
3837.67	1.95965e-07
3846.35	1.67833e-07
3855.03	2.6858e-07
3863.71	3.04024e-07
3872.39	2.29486e-07
3881.06	4.02141e-07
3889.74	5.72826e-07
3898.42	2.36197e-07
3907.1	2.36324e-07
3915.78	2.61806e-07
3924.45	2.00898e-07
3933.13	1.66646e-07
3941.81	2.9896e-07
3950.49	2.52764e-07
3959.17	1.98691e-07
3967.85	3.46148e-07
