Infrared Spectrum: Bromomethane
Formula: C H3 Br
CAS: 74-83-9
State: gas
Melting point: -93.6 C
Boiling point: 3.56 C
Class: IUPAC A
Instrument: IFS66V (Bruker)
Instrument parameters: KBr Beam splitter; MCT Detector; Multipass cell
Sampling: 1 L/min Flow
Resolution: 0.4820
Temperature: 23 C
Pressure: 101.3 kPa
Origin: NIST, Anayltical Chemistry Division, 301-975-3108
cm-1	(micromol/mol)-1m-1 (base 10)
574.928	7.86494e-06
583.606	1.6467e-05
592.284	3.43774e-05
600.962	3.75788e-05
609.641	5.84714e-05
618.319	4.74559e-05
626.997	4.1425e-05
635.675	8.4314e-06
644.353	2.56255e-07
653.031	1.70801e-07
661.71	1.08037e-07
670.388	-9.61164e-09
679.066	6.17198e-08
687.744	1.76327e-08
696.422	1.02891e-07
705.1	3.33314e-08
713.778	6.41328e-08
722.457	4.45023e-08
731.135	2.45294e-08
739.813	1.13091e-08
748.491	5.39014e-08
757.169	4.74641e-08
765.847	5.18585e-09
774.526	5.96468e-08
783.204	1.06019e-07
791.882	1.19124e-07
800.56	8.07676e-08
809.238	9.74076e-08
817.916	-7.37272e-08
826.594	1.06052e-07
835.273	8.58625e-09
843.951	1.04666e-07
852.629	2.38394e-07
861.307	4.18968e-07
869.985	8.23653e-07
878.663	1.7778e-06
887.342	1.81891e-06
896.02	2.00986e-06
904.698	4.18129e-06
913.376	1.99288e-05
922.054	5.40138e-06
930.732	8.7775e-06
939.41	6.64682e-06
948.089	1.05167e-05
956.767	4.52574e-05
965.445	9.53898e-06
974.123	7.03213e-06
982.801	7.01149e-06
991.479	6.85751e-06
1000.16	6.14158e-06
1008.84	5.83269e-06
1017.51	5.07614e-06
1026.19	7.31234e-06
1034.87	2.55838e-06
1043.55	1.23515e-06
1052.23	7.44972e-07
1060.9	5.94969e-07
1069.58	2.93845e-07
1078.26	1.28671e-07
1086.94	1.18641e-07
1095.62	8.01055e-08
1104.3	5.3857e-08
1112.97	6.17519e-08
1121.65	3.8274e-08
1130.33	6.28641e-08
1139.01	2.36298e-08
1147.69	-1.18627e-08
1156.36	7.89951e-08
1165.04	8.17166e-08
1173.72	7.19815e-08
1182.4	1.62044e-07
1191.08	1.39828e-07
1199.76	2.12348e-07
1208.43	2.30358e-07
1217.11	1.54094e-07
1225.79	4.16356e-07
1234.47	1.76971e-07
1243.15	1.4065e-07
1251.82	4.3314e-07
1260.5	1.80729e-06
1269.18	8.16616e-06
1277.86	1.90951e-05
1286.54	5.20528e-05
1295.21	6.26671e-05
1303.89	1.44415e-05
1312.57	5.23489e-05
1321.25	6.72353e-05
1329.93	2.07981e-05
1338.61	9.20529e-06
1347.28	1.3412e-06
1355.96	2.65969e-06
1364.64	9.31626e-06
1373.32	2.55995e-06
1382	3.064e-06
1390.67	6.6448e-06
1399.35	6.40166e-06
1408.03	6.2265e-06
1416.71	4.87008e-06
1425.39	1.02202e-05
1434.07	7.58217e-06
1442.74	7.43226e-06
1451.42	9.50403e-06
1460.1	8.46686e-06
1468.78	8.29497e-06
1477.46	6.66555e-06
1486.13	9.38246e-05
1494.81	7.95339e-06
1503.49	6.07559e-06
1512.17	4.16545e-06
1520.85	3.77437e-05
1529.52	4.97633e-06
1538.2	4.36625e-06
1546.88	1.90359e-06
1555.56	1.6759e-06
1564.24	2.2583e-06
1572.92	1.25284e-06
1581.59	6.99205e-07
1590.27	4.88047e-07
1598.95	5.282e-07
1607.63	7.72346e-07
1616.31	3.34472e-07
1624.98	2.51486e-07
1633.66	2.14659e-07
1642.34	1.41851e-07
1651.02	1.00364e-07
1659.7	4.0323e-08
1668.38	4.07834e-08
1677.05	3.93969e-08
1685.73	5.76123e-08
1694.41	4.92266e-08
1703.09	2.69544e-08
1711.77	8.43301e-09
1720.44	2.11531e-08
1729.12	3.38087e-08
1737.8	3.03901e-08
1746.48	3.139e-08
1755.16	4.50289e-08
1763.84	4.77158e-08
1772.51	6.3548e-08
1781.19	-1.13832e-08
1789.87	3.34472e-08
1798.55	9.82991e-09
1807.23	1.80108e-08
1815.9	6.91197e-09
1824.58	-4.07393e-08
1833.26	2.09853e-10
1841.94	3.58238e-08
1850.62	4.43723e-08
1859.29	2.69767e-08
1867.97	-1.01803e-08
1876.65	1.3784e-07
1885.33	2.28131e-07
1894.01	3.99517e-07
1902.69	3.39912e-07
1911.36	4.23536e-07
1920.04	5.5274e-07
1928.72	3.33433e-07
1937.4	4.62453e-08
1946.08	-7.63429e-09
1954.75	-2.46092e-08
1963.43	-1.73271e-09
1972.11	-1.54516e-08
1980.79	-2.63965e-10
1989.47	-5.12845e-08
1998.15	-1.15556e-08
2006.82	4.08357e-08
2015.5	2.80721e-09
2024.18	1.99911e-08
2032.86	2.11693e-08
2041.54	-1.58424e-09
2050.21	1.57206e-08
2058.89	1.00329e-08
2067.57	-5.98457e-09
2076.25	1.08958e-08
2084.93	2.16424e-09
2093.6	2.63124e-09
2102.28	-1.29413e-08
2110.96	2.97739e-08
2119.64	1.77544e-07
2128.32	1.28188e-08
2137	6.20193e-09
2145.67	1.9339e-08
2154.35	1.07382e-07
2163.03	5.79093e-08
2171.71	1.17726e-07
2180.39	1.75306e-07
2189.06	2.72179e-07
2197.74	2.56773e-07
2206.42	4.60199e-07
2215.1	9.72715e-07
2223.78	5.22466e-07
2232.46	7.57278e-07
2241.13	7.23504e-07
2249.81	9.85078e-07
2258.49	2.0854e-06
2267.17	1.1488e-06
2275.85	5.05103e-07
2284.52	4.54456e-07
2293.2	4.87547e-07
2301.88	3.80893e-07
2310.56	3.06792e-07
2319.24	6.00047e-07
2327.92	4.1281e-07
2336.59	3.36721e-07
2345.27	1.10007e-06
2353.95	6.62657e-07
2362.63	9.60637e-07
2371.31	7.71753e-07
2379.98	5.68393e-07
2388.66	5.31667e-07
2397.34	6.00828e-07
2406.02	5.25017e-07
2414.7	4.2615e-07
2423.37	4.26308e-06
2432.05	3.91566e-07
2440.73	3.69312e-07
2449.41	2.48976e-07
2458.09	2.07137e-07
2466.77	1.97792e-07
2475.44	1.71017e-07
2484.12	1.38929e-07
2492.8	1.21091e-07
2501.48	1.22934e-07
2510.16	6.9325e-08
2518.83	1.70395e-07
2527.51	2.31471e-08
2536.19	-2.3005e-08
2544.87	-4.91673e-08
2553.55	3.06534e-08
2562.23	1.65129e-08
2570.9	4.23991e-07
2579.58	7.99923e-07
2588.26	8.1469e-07
2596.94	1.01972e-06
2605.62	1.49738e-06
2614.29	1.27665e-06
2622.97	-2.22695e-07
2631.65	-3.46091e-07
2640.33	-2.66095e-07
2649.01	-2.41558e-07
2657.68	-1.84963e-07
2666.36	1.80708e-08
2675.04	2.08776e-08
2683.72	5.34341e-09
2692.4	4.89843e-08
2701.08	6.4585e-08
2709.75	9.33517e-08
2718.43	4.89392e-08
2727.11	2.71995e-08
2735.79	6.37647e-08
2744.47	8.55135e-08
2753.14	-1.87201e-07
2761.82	6.08042e-08
2770.5	5.93173e-08
2779.18	2.75992e-08
2787.86	1.7334e-07
2796.54	5.1477e-08
2805.21	9.12021e-08
2813.89	1.41876e-07
2822.57	4.45687e-07
2831.25	1.34813e-06
2839.93	5.97812e-06
2848.6	1.20718e-05
2857.28	4.98363e-06
2865.96	7.01161e-06
2874.64	1.07075e-05
2883.32	6.45566e-06
2892	2.50796e-06
2900.67	6.34642e-07
2909.35	1.26254e-07
2918.03	1.27892e-07
2926.71	7.66092e-07
2935.39	4.20208e-06
2944.06	1.80074e-05
2952.74	4.71174e-05
2961.42	5.94615e-05
2970.1	2.73989e-05
2978.78	5.96065e-05
2987.45	6.77581e-05
2996.13	3.18704e-05
3004.81	1.0882e-05
3013.49	4.47442e-06
3022.17	3.97783e-06
3030.85	3.73254e-06
3039.52	3.45449e-06
3048.2	4.067e-06
3056.88	3.65407e-06
3065.56	4.41325e-06
3074.24	4.07165e-06
3082.91	3.90528e-06
3091.59	4.50895e-06
3100.27	3.98063e-06
3108.95	3.45899e-06
3117.63	3.56949e-06
3126.31	2.05916e-06
3134.98	1.47778e-06
3143.66	8.98885e-07
3152.34	1.0078e-06
3161.02	5.21102e-07
3169.7	3.58647e-07
3178.37	3.33615e-07
3187.05	4.83356e-07
3195.73	1.42109e-07
3204.41	1.26469e-07
3213.09	1.41778e-07
3221.77	1.65299e-07
3230.44	1.32544e-08
3239.12	1.17409e-08
3247.8	3.9361e-08
3256.48	2.06306e-09
3265.16	-1.82206e-08
3273.83	6.92234e-08
3282.51	-2.64192e-10
3291.19	6.59899e-08
3299.87	4.32673e-08
3308.55	-1.52636e-08
3317.22	2.16219e-10
3325.9	6.6458e-08
3334.58	1.71511e-08
3343.26	7.49806e-08
3351.94	2.60568e-08
3360.62	4.18333e-08
3369.29	4.04178e-09
3377.97	6.32822e-08
3386.65	1.37585e-08
3395.33	-9.88357e-09
3404.01	-4.12974e-08
3412.68	2.4298e-08
3421.36	-1.91405e-08
3430.04	7.74538e-08
3438.72	1.53482e-08
3447.4	7.09613e-09
3456.08	2.70638e-08
3464.75	7.68263e-08
3473.43	8.52657e-08
3482.11	8.09722e-08
3490.79	7.44784e-08
3499.47	7.68838e-08
3508.14	3.66366e-08
3516.82	-1.06043e-08
3525.5	4.13954e-08
3534.18	1.80672e-08
3542.86	1.18736e-07
3551.53	1.96564e-07
3560.21	3.94742e-07
3568.89	5.80976e-07
3577.57	4.8249e-07
3586.25	4.35684e-07
3594.93	6.34705e-07
3603.6	4.95638e-07
3612.28	1.56214e-07
3620.96	1.04587e-07
3629.64	2.33162e-07
3638.32	8.79099e-08
3646.99	1.77862e-07
3655.67	2.29486e-07
3664.35	2.88958e-07
3673.03	3.44944e-07
3681.71	3.01019e-07
3690.39	2.6274e-07
3699.06	3.33261e-07
3707.74	1.43339e-07
3716.42	1.24599e-07
3725.1	2.10113e-07
3733.78	1.22972e-07
3742.45	1.01327e-07
3751.13	4.74664e-08
3759.81	1.30322e-07
3768.49	8.62185e-08
3777.17	4.50898e-08
3785.85	1.21309e-07
3794.52	1.28556e-07
3803.2	1.02743e-07
3811.88	8.38013e-08
3820.56	2.6926e-07
3829.24	1.38064e-07
3837.91	3.50292e-07
3846.59	2.03349e-07
3855.27	2.40115e-07
3863.95	3.14049e-07
3872.63	2.26168e-07
3881.3	3.78391e-07
3889.98	4.97084e-07
3898.66	2.74004e-07
3907.34	2.74267e-07
3916.02	1.71288e-07
3924.7	2.00456e-07
3933.37	1.64425e-07
3942.05	4.00337e-07
3950.73	3.22704e-07
3959.41	2.01495e-07
3968.09	3.8827e-07
