Infrared Spectrum: Ethene
Formula: C H2: C H2
CAS: 74-85-1
State: gas
Melting point: -169.15 C
Boiling point: -103.71 C
Class: IUPAC A
Instrument: IFS66V (Bruker)
Instrument parameters: KBr Beam splitter; MCT Detector; Multipass cell
Sampling: 1 L/min Flow
Resolution: 0.4820
Temperature: 23 C
Pressure: 101.3 kPa
Origin: NIST, Anayltical Chemistry Division, 301-975-3108
cm-1	(micromol/mol)-1m-1 (base 10)
574.928	-6.78825e-08
583.606	-1.87928e-07
592.284	-4.23395e-07
600.962	-4.08828e-07
609.641	-3.42758e-07
618.319	-2.73133e-07
626.997	-2.14507e-07
635.675	-3.25608e-07
644.353	-1.53435e-07
653.031	-1.16578e-07
661.71	-2.13959e-07
670.388	-1.34419e-07
679.066	-9.77865e-08
687.744	2.31283e-07
696.422	1.50768e-07
705.1	1.69203e-07
713.778	8.48445e-07
722.457	4.62159e-07
731.135	8.61258e-07
739.813	1.18878e-06
748.491	1.08159e-06
757.169	1.3752e-06
765.847	1.30022e-06
774.526	5.78683e-07
783.204	9.25733e-08
791.882	2.09146e-07
800.56	1.495e-07
809.238	5.20654e-07
817.916	9.47619e-07
826.594	8.44843e-07
835.273	4.39755e-06
843.951	1.13292e-05
852.629	9.38373e-06
861.307	2.00042e-05
869.985	2.53892e-05
878.663	6.27754e-05
887.342	3.99182e-05
896.02	8.71311e-05
904.698	4.8163e-05
913.376	8.13552e-05
922.054	0.000171487
930.732	6.72114e-05
939.41	0.000102687
948.089	0.000312618
956.767	8.83397e-05
965.445	9.7407e-05
974.123	5.12931e-05
982.801	6.50071e-05
991.479	7.25471e-05
1000.16	5.2043e-05
1008.84	5.33116e-05
1017.51	6.86823e-05
1026.19	4.96964e-05
1034.87	2.31352e-05
1043.55	2.93448e-05
1052.23	1.07044e-05
1060.9	1.26343e-05
1069.58	1.01066e-05
1078.26	3.8506e-06
1086.94	2.39822e-06
1095.62	2.57083e-06
1104.3	1.36689e-06
1112.97	2.1842e-06
1121.65	8.46337e-07
1130.33	5.44475e-07
1139.01	1.74125e-07
1147.69	3.6372e-07
1156.36	-9.52782e-08
1165.04	-1.39268e-07
1173.72	-1.58155e-07
1182.4	-2.08701e-07
1191.08	-2.31451e-07
1199.76	-2.26861e-07
1208.43	-2.41673e-07
1217.11	-2.53806e-07
1225.79	-2.38603e-07
1234.47	-2.53418e-07
1243.15	-2.4607e-07
1251.82	-2.5762e-07
1260.5	-2.63921e-07
1269.18	-2.28327e-07
1277.86	-2.33479e-07
1286.54	-2.69462e-07
1295.21	-2.55538e-07
1303.89	-2.20304e-07
1312.57	-2.41539e-07
1321.25	-2.238e-07
1329.93	-2.21646e-07
1338.61	-2.34259e-07
1347.28	-2.24231e-07
1355.96	-2.2684e-07
1364.64	-1.48989e-07
1373.32	-2.29573e-08
1382	3.43402e-07
1390.67	2.6509e-06
1399.35	1.04099e-05
1408.03	1.82564e-05
1416.71	3.35398e-05
1425.39	2.79879e-05
1434.07	9.57402e-06
1442.74	3.58648e-05
1451.42	1.36346e-05
1460.1	2.98408e-05
1468.78	1.41287e-05
1477.46	1.38266e-05
1486.13	8.10238e-06
1494.81	2.73137e-06
1503.49	1.28254e-06
1512.17	3.8335e-08
1520.85	-2.24571e-07
1529.52	-2.40145e-07
1538.2	-2.73744e-07
1546.88	-2.4142e-07
1555.56	-2.4414e-07
1564.24	-2.3329e-07
1572.92	-2.27871e-07
1581.59	-2.57717e-07
1590.27	-1.9351e-07
1598.95	-2.40929e-07
1607.63	-2.30809e-07
1616.31	-2.81418e-07
1624.98	-2.38121e-07
1633.66	-2.38423e-07
1642.34	-2.54681e-07
1651.02	-2.6727e-07
1659.7	-2.45257e-07
1668.38	-2.58857e-07
1677.05	-2.58466e-07
1685.73	-2.40882e-07
1694.41	-2.18931e-07
1703.09	-1.99717e-07
1711.77	-1.33944e-07
1720.44	-1.48161e-07
1729.12	-1.55277e-07
1737.8	-7.45418e-09
1746.48	8.46553e-08
1755.16	-5.1961e-08
1763.84	-1.378e-07
1772.51	-2.2245e-07
1781.19	1.00228e-07
1789.87	1.0732e-08
1798.55	-2.20204e-07
1807.23	-1.89101e-07
1815.9	-1.29255e-07
1824.58	2.92487e-07
1833.26	8.6194e-07
1841.94	2.18497e-06
1850.62	7.76397e-06
1859.29	4.9189e-06
1867.97	1.1607e-05
1876.65	5.05874e-06
1885.33	3.51286e-06
1894.01	2.42312e-06
1902.69	4.96509e-06
1911.36	1.11926e-05
1920.04	1.33405e-05
1928.72	6.94867e-06
1937.4	2.15374e-06
1946.08	8.00027e-07
1954.75	-8.44807e-08
1963.43	-8.86189e-08
1972.11	-3.26516e-07
1980.79	-1.51597e-07
1989.47	2.75728e-07
1998.15	-1.32311e-07
2006.82	5.21598e-07
2015.5	6.30688e-07
2024.18	1.56334e-06
2032.86	8.37682e-07
2041.54	-3.04643e-08
2050.21	-1.79273e-07
2058.89	3.08601e-07
2067.57	1.02725e-06
2076.25	1.34638e-06
2084.93	7.72621e-07
2093.6	8.55612e-08
2102.28	-9.09872e-08
2110.96	-5.00474e-08
2119.64	1.53504e-08
2128.32	-1.00255e-07
2137	-1.71197e-07
2145.67	1.07716e-07
2154.35	2.10472e-07
2163.03	2.75615e-07
2171.71	1.23287e-07
2180.39	5.24281e-07
2189.06	5.80005e-07
2197.74	4.71771e-07
2206.42	4.74837e-07
2215.1	4.66286e-07
2223.78	2.361e-07
2232.46	8.82096e-08
2241.13	1.91539e-08
2249.81	6.94341e-08
2258.49	-6.79826e-08
2267.17	-9.01905e-08
2275.85	-1.40529e-07
2284.52	-1.52772e-07
2293.2	-1.49045e-07
2301.88	-9.26661e-08
2310.56	-1.14658e-07
2319.24	-5.32215e-08
2327.92	-1.10809e-07
2336.59	-1.17124e-07
2345.27	-1.51234e-07
2353.95	-7.89747e-08
2362.63	1.46815e-07
2371.31	2.11329e-08
2379.98	-1.14816e-07
2388.66	-1.11354e-07
2397.34	-1.36765e-07
2406.02	-1.22696e-07
2414.7	-1.5163e-07
2423.37	-9.87542e-08
2432.05	-1.5736e-07
2440.73	-1.94382e-07
2449.41	-1.10889e-07
2458.09	-1.02221e-07
2466.77	-1.22996e-07
2475.44	-1.13583e-07
2484.12	-1.98729e-07
2492.8	-1.96584e-07
2501.48	-2.28628e-07
2510.16	-1.96644e-07
2518.83	-2.05359e-07
2527.51	-2.31289e-07
2536.19	-2.16118e-07
2544.87	-2.09365e-07
2553.55	-2.40662e-07
2562.23	-2.24568e-07
2570.9	-1.7549e-07
2579.58	-2.53027e-07
2588.26	-2.26448e-07
2596.94	-2.11937e-07
2605.62	-2.09317e-07
2614.29	-2.18623e-07
2622.97	-2.19096e-07
2631.65	-2.08857e-07
2640.33	-2.02056e-07
2649.01	-2.05385e-07
2657.68	-2.22416e-07
2666.36	-2.25006e-07
2675.04	-2.18845e-07
2683.72	-2.42958e-07
2692.4	-2.28266e-07
2701.08	-2.59039e-07
2709.75	-2.45017e-07
2718.43	-2.45502e-07
2727.11	-2.44842e-07
2735.79	-2.47561e-07
2744.47	-2.5535e-07
2753.14	-2.36506e-07
2761.82	-2.56001e-07
2770.5	-2.65202e-07
2779.18	-3.12875e-07
2787.86	-2.90135e-07
2796.54	-3.53008e-07
2805.21	-3.65711e-07
2813.89	-3.39274e-07
2822.57	-3.88063e-07
2831.25	-4.67965e-07
2839.93	-5.56129e-07
2848.6	-3.96725e-07
2857.28	-3.44189e-07
2865.96	-3.43971e-07
2874.64	-2.35449e-07
2883.32	-2.80656e-07
2892	-5.06144e-07
2900.67	-2.94778e-07
2909.35	-2.65526e-07
2918.03	4.964e-08
2926.71	8.86656e-07
2935.39	2.99099e-06
2944.06	5.74667e-06
2952.74	1.95945e-05
2961.42	1.89493e-05
2970.1	4.14544e-05
2978.78	7.55327e-06
2987.45	8.36865e-05
2996.13	1.64316e-05
3004.81	4.44026e-05
3013.49	5.51171e-05
3022.17	2.21471e-05
3030.85	2.06234e-05
3039.52	1.53252e-05
3048.2	1.89948e-05
3056.88	2.42686e-05
3065.56	2.32476e-05
3074.24	3.75967e-05
3082.91	3.52905e-05
3091.59	3.39817e-05
3100.27	3.46727e-05
3108.95	3.04194e-05
3117.63	3.12442e-05
3126.31	4.58593e-05
3134.98	3.71244e-05
3143.66	2.25646e-05
3152.34	2.71071e-05
3161.02	1.48311e-05
3169.7	4.7139e-05
3178.37	1.29764e-05
3187.05	8.48638e-06
3195.73	1.18951e-05
3204.41	7.63724e-06
3213.09	3.78347e-06
3221.77	1.27551e-06
3230.44	7.03321e-07
3239.12	4.69155e-07
3247.8	2.07082e-07
3256.48	2.63334e-08
3265.16	-1.10312e-07
3273.83	-1.41468e-07
3282.51	-1.90269e-07
3291.19	-1.64287e-07
3299.87	-1.94589e-07
3308.55	-1.98856e-07
3317.22	-2.07218e-07
3325.9	-2.11913e-07
3334.58	-2.56478e-07
3343.26	-1.6118e-07
3351.94	-1.70997e-07
3360.62	-1.69687e-07
3369.29	-1.30626e-07
3377.97	-1.54079e-07
3386.65	-1.64361e-07
3395.33	-2.28031e-07
3404.01	-2.39034e-07
3412.68	-2.32879e-07
3421.36	-2.66662e-07
3430.04	-2.23884e-07
3438.72	-2.97734e-07
3447.4	-2.33433e-07
3456.08	-2.40536e-07
3464.75	-2.36118e-07
3473.43	-2.12229e-07
3482.11	-1.91375e-07
3490.79	-2.10434e-07
3499.47	-2.4458e-07
3508.14	-2.61979e-07
3516.82	-1.65151e-07
3525.5	-1.37653e-07
3534.18	-1.35043e-07
3542.86	-1.97041e-07
3551.53	-2.06007e-07
3560.21	-2.49266e-07
3568.89	-2.30738e-07
3577.57	-2.3345e-07
3586.25	-2.24195e-07
3594.93	-1.98573e-07
3603.6	-2.34403e-07
3612.28	-2.39361e-07
3620.96	-2.10956e-07
3629.64	-3.21057e-07
3638.32	-2.06751e-07
3646.99	-2.28297e-07
3655.67	-2.26512e-07
3664.35	-2.30174e-07
3673.03	-2.34288e-07
3681.71	-2.4579e-07
3690.39	-2.27609e-07
3699.06	-2.49304e-07
3707.74	-2.99877e-07
3716.42	-4.36279e-07
3725.1	-2.15702e-07
3733.78	-1.75975e-07
3742.45	-3.1381e-07
3751.13	-2.74564e-07
3759.81	-2.54999e-07
3768.49	-1.47985e-07
3777.17	-7.07327e-07
3785.85	-1.83637e-07
3794.52	-1.94755e-07
3803.2	-2.0326e-07
3811.88	-2.11e-07
3820.56	-3.44464e-07
3829.24	-2.07884e-07
3837.91	-1.62884e-07
3846.59	-2.77465e-07
3855.27	-1.5402e-07
3863.95	-1.20362e-08
3872.63	-9.73664e-08
3881.3	-1.28405e-07
3889.98	-1.39503e-07
3898.66	-6.38626e-08
3907.34	-1.05188e-07
3916.02	-1.48674e-07
3924.7	-1.10883e-07
3933.37	-2.02336e-07
3942.05	-1.90029e-07
3950.73	-1.65283e-07
3959.41	-9.35229e-08
3968.09	-1.09735e-07
