Infrared Spectrum: Bromomethane
Formula: C H3 Br
CAS: 74-83-9
State: gas
Melting point: -93.6 C
Boiling point: 3.56 C
Class: IUPAC A
Instrument: IFS66V (Bruker)
Instrument parameters: KBr Beam splitter; MCT Detector; Multipass cell
Sampling: 1 L/min Flow
Resolution: 0.2410
Temperature: 23 C
Pressure: 101.3 kPa
Origin: NIST, Anayltical Chemistry Division, 301-975-3108
cm-1	(micromol/mol)-1m-1 (base 10)
575.048	9.03664e-06
583.606	1.55884e-05
592.163	3.59242e-05
600.721	3.26552e-05
609.279	5.10023e-05
617.836	4.65924e-05
626.394	4.4235e-05
634.951	1.03075e-05
643.509	1.85157e-07
652.067	1.44178e-07
660.624	7.29121e-08
669.182	6.19661e-08
677.74	1.33223e-07
686.297	1.28964e-09
694.855	-1.38751e-07
703.412	8.7301e-09
711.97	-3.55511e-08
720.528	1.48226e-07
729.085	-1.13144e-08
737.643	1.24761e-07
746.201	9.64867e-08
754.758	-6.46649e-08
763.316	2.39234e-08
771.873	4.53831e-08
780.431	7.00545e-08
788.989	1.1574e-08
797.546	-2.66559e-08
806.104	8.01989e-08
814.662	-8.80377e-09
823.219	5.7275e-08
831.777	1.46163e-08
840.334	8.25467e-08
848.892	1.10767e-07
857.45	3.1649e-07
866.007	5.29005e-07
874.565	6.88214e-07
883.123	1.77957e-06
891.68	4.33335e-06
900.238	2.72877e-06
908.795	4.97676e-06
917.353	4.51221e-06
925.911	6.43595e-06
934.468	2.96634e-05
943.026	6.71784e-06
951.584	7.18567e-06
960.141	6.91868e-06
968.699	8.01869e-06
977.256	7.4168e-06
985.814	9.68589e-06
994.372	1.11272e-05
1002.93	2.75688e-05
1011.49	4.12998e-06
1020.04	2.74718e-06
1028.6	1.72466e-06
1037.16	1.37339e-06
1045.72	8.88618e-07
1054.28	4.13364e-07
1062.83	3.42742e-07
1071.39	2.77294e-07
1079.95	1.23628e-07
1088.51	1.02496e-07
1097.06	5.90112e-08
1105.62	-2.34282e-08
1114.18	7.44841e-08
1122.74	6.51524e-08
1131.29	2.87423e-08
1139.85	3.41069e-08
1148.41	3.07027e-08
1156.97	7.05011e-08
1165.52	3.97161e-08
1174.08	7.21618e-08
1182.64	1.76515e-07
1191.2	1.05082e-07
1199.75	1.96843e-07
1208.31	1.9073e-07
1216.87	1.43614e-07
1225.43	4.11181e-07
1233.99	1.11228e-07
1242.54	2.02203e-07
1251.1	3.15804e-07
1259.66	1.73695e-06
1268.22	6.61753e-06
1276.77	1.82939e-05
1285.33	3.82252e-05
1293.89	7.28858e-05
1302.45	2.1396e-05
1311	4.32238e-05
1319.56	7.68626e-05
1328.12	2.8974e-05
1336.68	3.73563e-06
1345.23	2.03474e-06
1353.79	3.04159e-06
1362.35	2.55934e-06
1370.91	3.08305e-06
1379.46	3.85871e-06
1388.02	4.63573e-06
1396.58	4.3324e-06
1405.14	4.7951e-06
1413.7	0.000101151
1422.25	6.25011e-06
1430.81	6.33797e-06
1439.37	1.12224e-05
1447.93	6.14133e-06
1456.48	7.40913e-06
1465.04	6.37828e-06
1473.6	9.92715e-06
1482.16	9.89795e-06
1490.71	6.63675e-06
1499.27	7.19532e-06
1507.83	7.24917e-06
1516.39	8.30413e-06
1524.94	6.08024e-06
1533.5	3.77398e-06
1542.06	3.5426e-06
1550.62	2.2385e-06
1559.18	1.19672e-06
1567.73	1.25744e-06
1576.29	1.26377e-06
1584.85	1.01503e-06
1593.41	3.65109e-07
1601.96	5.24728e-07
1610.52	4.47938e-07
1619.08	2.78563e-07
1627.64	1.87231e-07
1636.19	8.93751e-08
1644.75	7.45478e-08
1653.31	2.72253e-07
1661.87	1.9447e-08
1670.42	6.02076e-10
1678.98	2.50716e-08
1687.54	4.60779e-08
1696.1	1.33488e-07
1704.65	6.39906e-08
1713.21	1.54475e-08
1721.77	6.27123e-08
1730.33	5.45306e-08
1738.89	-2.11154e-08
1747.44	-1.22089e-08
1756	4.45386e-08
1764.56	2.48747e-08
1773.12	3.27677e-08
1781.67	6.41956e-09
1790.23	3.53783e-08
1798.79	1.59023e-08
1807.35	2.62612e-08
1815.9	4.1154e-09
1824.46	-4.97699e-08
1833.02	2.1793e-08
1841.58	3.00233e-08
1850.13	4.68973e-08
1858.69	3.55402e-08
1867.25	2.02268e-09
1875.81	9.08998e-08
1884.36	1.55145e-07
1892.92	5.2367e-07
1901.48	3.77126e-07
1910.04	2.3043e-07
1918.6	4.13456e-07
1927.15	4.0608e-07
1935.71	4.9608e-08
1944.27	-5.02629e-08
1952.83	-6.13808e-09
1961.38	3.01174e-08
1969.94	1.17564e-08
1978.5	6.41456e-09
1987.06	-6.56645e-10
1995.61	3.42933e-08
2004.17	-3.31901e-08
2012.73	-1.17778e-08
2021.29	-3.77152e-08
2029.84	1.18869e-09
2038.4	2.19453e-08
2046.96	1.92878e-08
2055.52	6.23194e-08
2064.08	3.33665e-08
2072.63	-9.09253e-09
2081.19	1.11916e-08
2089.75	2.39375e-08
2098.31	-2.06998e-09
2106.86	5.9812e-09
2115.42	1.20619e-07
2123.98	1.23189e-08
2132.54	8.71646e-09
2141.09	4.10248e-08
2149.65	-5.1854e-09
2158.21	2.12233e-07
2166.77	5.51713e-08
2175.32	9.66304e-08
2183.88	1.49041e-07
2192.44	2.85313e-07
2201	4.02637e-07
2209.55	5.50819e-07
2218.11	4.00542e-07
2226.67	6.47393e-07
2235.23	1.357e-06
2243.79	1.33449e-06
2252.34	7.12987e-07
2260.9	6.14979e-07
2269.46	6.64615e-07
2278.02	6.77806e-07
2286.57	6.40547e-07
2295.13	7.4868e-07
2303.69	6.26795e-07
2312.25	4.19409e-07
2320.8	5.19679e-07
2329.36	3.94084e-07
2337.92	5.39311e-07
2346.48	3.62016e-07
2355.03	1.88033e-06
2363.59	6.72105e-07
2372.15	5.73662e-07
2380.71	5.66407e-07
2389.26	5.26754e-07
2397.82	5.40696e-07
2406.38	5.65683e-07
2414.94	3.56763e-07
2423.5	5.34356e-06
2432.05	3.41625e-07
2440.61	3.32001e-07
2449.17	2.54543e-07
2457.73	1.87779e-07
2466.28	1.74804e-07
2474.84	2.02351e-07
2483.4	1.07858e-07
2491.96	1.60124e-07
2500.51	1.14632e-07
2509.07	8.98689e-08
2517.63	1.88134e-07
2526.19	2.12295e-08
2534.74	-4.94866e-08
2543.3	-7.1225e-08
2551.86	-3.39282e-09
2560.42	1.40326e-07
2568.98	3.81397e-07
2577.53	4.73041e-07
2586.09	6.94965e-07
2594.65	3.13179e-08
2603.21	9.46811e-07
2611.76	1.18614e-06
2620.32	-1.30065e-08
2628.88	-2.91359e-07
2637.44	-3.34338e-07
2645.99	-2.88072e-07
2654.55	-1.54007e-07
2663.11	-2.77873e-08
2671.67	5.92708e-08
2680.22	2.87691e-08
2688.78	4.67423e-08
2697.34	4.82293e-08
2705.9	1.94119e-08
2714.45	1.11624e-07
2723.01	7.31495e-08
2731.57	2.1732e-08
2740.13	1.9052e-07
2748.69	4.11503e-08
2757.24	6.99831e-08
2765.8	1.57481e-08
2774.36	1.51657e-07
2782.92	9.73198e-08
2791.47	9.31303e-08
2800.03	1.58259e-07
2808.59	1.46328e-07
2817.15	1.80992e-07
2825.7	3.9225e-07
2834.26	2.29819e-06
2842.82	7.72035e-06
2851.38	9.6085e-06
2859.93	7.48982e-06
2868.49	1.01144e-05
2877.05	9.14312e-06
2885.61	4.9424e-06
2894.16	1.81432e-06
2902.72	3.9842e-07
2911.28	2.46028e-07
2919.84	2.36855e-07
2928.4	1.02616e-06
2936.95	5.2526e-06
2945.51	2.03997e-05
2954.07	5.18758e-05
2962.63	5.45805e-05
2971.18	2.68779e-05
2979.74	5.96216e-05
2988.3	6.23552e-05
2996.86	3.4527e-05
3005.41	1.07296e-05
3013.97	4.32945e-06
3022.53	3.85259e-06
3031.09	3.55347e-06
3039.64	3.51132e-06
3048.2	3.93158e-06
3056.76	3.96724e-06
3065.32	3.05286e-06
3073.88	5.08998e-06
3082.43	3.65998e-06
3090.99	4.61067e-06
3099.55	3.82959e-06
3108.11	2.57651e-06
3116.66	2.21666e-06
3125.22	2.71595e-06
3133.78	1.65366e-06
3142.34	1.01017e-06
3150.89	7.09301e-07
3159.45	7.72119e-07
3168.01	2.75017e-07
3176.57	4.27346e-07
3185.12	2.52815e-07
3193.68	1.75787e-07
3202.24	1.15671e-07
3210.8	1.08827e-07
3219.35	1.39213e-07
3227.91	3.26726e-08
3236.47	3.64347e-08
3245.03	3.74651e-08
3253.59	8.13644e-08
3262.14	4.06187e-08
3270.7	-6.45685e-08
3279.26	3.02388e-08
3287.82	2.47965e-08
3296.37	7.94185e-08
3304.93	1.34776e-08
3313.49	6.9758e-08
3322.05	1.09599e-07
3330.6	1.16182e-07
3339.16	8.01138e-08
3347.72	-1.18923e-07
3356.28	2.02332e-08
3364.83	8.94469e-08
3373.39	7.96891e-08
3381.95	8.32338e-08
3390.51	1.26272e-08
3399.06	4.75021e-09
3407.62	8.08796e-08
3416.18	-2.21877e-08
3424.74	1.34224e-07
3433.3	6.96266e-08
3441.85	5.205e-08
3450.41	1.13368e-07
3458.97	8.82819e-08
3467.53	6.04017e-08
3476.08	-1.47181e-08
3484.64	-2.72162e-08
3493.2	4.88682e-08
3501.76	-6.31061e-08
3510.31	4.0099e-08
3518.87	1.14886e-07
3527.43	1.79254e-08
3535.99	8.91918e-08
3544.54	1.04376e-07
3553.1	3.46637e-07
3561.66	4.22578e-07
3570.22	5.59327e-07
3578.78	4.47768e-07
3587.33	4.58431e-07
3595.89	7.10993e-07
3604.45	4.20661e-07
3613.01	2.39952e-07
3621.56	3.54001e-08
3630.12	7.19967e-08
3638.68	3.44875e-08
3647.24	1.0742e-07
3655.79	2.11739e-07
3664.35	3.0334e-07
3672.91	3.87816e-07
3681.47	3.28011e-07
3690.02	2.7416e-07
3698.58	3.64703e-07
3707.14	1.91027e-07
3715.7	1.90167e-07
3724.25	2.03235e-07
3732.81	1.00121e-07
3741.37	1.21779e-07
3749.93	1.29264e-07
3758.49	-1.08919e-08
3767.04	1.61507e-07
3775.6	6.53716e-08
3784.16	7.64927e-08
3792.72	7.69434e-08
3801.27	2.24824e-07
3809.83	1.5648e-07
3818.39	1.24624e-07
3826.95	2.81871e-07
3835.5	1.67429e-07
3844.06	7.68961e-08
3852.62	1.24215e-07
3861.18	2.40608e-07
3869.73	2.96712e-07
3878.29	2.68243e-07
3886.85	6.53916e-07
3895.41	1.42108e-07
3903.96	2.77284e-07
3912.52	2.29421e-07
3921.08	3.26842e-07
3929.64	3.79501e-07
3938.2	3.01774e-07
3946.75	2.23753e-07
3955.31	9.58051e-08
3963.87	3.45895e-07
3972.43	5.86512e-07
