Infrared Spectrum: Ethene
Formula: C H2: C H2
CAS: 74-85-1
State: gas
Melting point: -169.15 C
Boiling point: -103.71 C
Class: IUPAC A
Instrument: IFS66V (Bruker)
Instrument parameters: KBr Beam splitter; MCT Detector; Multipass cell
Sampling: 1 L/min Flow
Resolution: 1.9290
Temperature: 23 C
Pressure: 101.3 kPa
Origin: NIST, Anayltical Chemistry Division, 301-975-3108
cm-1	(micromol/mol)-1m-1 (base 10)
574.687	-2.54243e-07
583.365	-3.49255e-07
592.043	-3.38124e-07
600.721	-3.42054e-07
609.4	-2.53954e-07
618.078	-2.16022e-07
626.756	-2.22619e-07
635.434	-2.45113e-07
644.112	-1.49508e-07
652.79	-1.86398e-07
661.469	-1.32272e-07
670.147	-8.05199e-08
678.825	-4.93266e-08
687.503	4.56013e-09
696.181	3.11263e-07
704.859	1.54261e-07
713.537	4.25652e-07
722.216	6.57347e-07
730.894	6.47815e-07
739.572	1.32563e-06
748.25	1.07896e-06
756.928	1.50965e-06
765.606	9.62943e-07
774.285	6.36648e-07
782.963	2.7128e-07
791.641	2.11751e-07
800.319	3.20526e-07
808.997	4.29054e-07
817.675	7.82011e-07
826.353	1.59181e-06
835.032	4.12937e-06
843.71	8.52845e-06
852.388	1.27458e-05
861.066	2.07075e-05
869.744	2.88052e-05
878.422	4.3481e-05
887.101	5.6807e-05
895.779	8.5021e-05
904.457	5.49778e-05
913.135	5.22252e-05
921.813	0.000142114
930.491	8.55128e-05
939.169	9.71301e-05
947.848	0.000321039
956.526	0.000103189
965.204	8.31923e-05
973.882	6.12815e-05
982.56	5.51986e-05
991.238	5.82468e-05
999.917	6.76689e-05
1008.59	6.87198e-05
1017.27	5.59963e-05
1025.95	4.75839e-05
1034.63	3.40431e-05
1043.31	2.97034e-05
1051.99	2.03956e-05
1060.66	1.5249e-05
1069.34	1.88112e-05
1078.02	7.95703e-06
1086.7	5.7222e-06
1095.38	5.06342e-06
1104.05	2.34222e-06
1112.73	1.60786e-06
1121.41	1.41324e-06
1130.09	4.48363e-07
1138.77	2.39062e-07
1147.45	9.23095e-08
1156.12	-8.85106e-09
1164.8	-1.75743e-07
1173.48	-1.14865e-07
1182.16	-2.3484e-07
1190.84	-2.05603e-07
1199.51	-2.59728e-07
1208.19	-2.1564e-07
1216.87	-2.73603e-07
1225.55	-2.26323e-07
1234.23	-2.69363e-07
1242.9	-2.16668e-07
1251.58	-2.67578e-07
1260.26	-2.39629e-07
1268.94	-2.59662e-07
1277.62	-2.16268e-07
1286.3	-2.59436e-07
1294.97	-2.30228e-07
1303.65	-2.42928e-07
1312.33	-2.28996e-07
1321.01	-2.27249e-07
1329.69	-2.22181e-07
1338.36	-2.2239e-07
1347.04	-2.07697e-07
1355.72	-2.20167e-07
1364.4	-1.31155e-07
1373.08	-2.19103e-08
1381.76	7.03164e-07
1390.43	3.05733e-06
1399.11	9.1678e-06
1407.79	1.8038e-05
1416.47	2.91232e-05
1425.15	2.78583e-05
1433.82	1.03309e-05
1442.5	2.81392e-05
1451.18	1.35322e-05
1459.86	1.99961e-05
1468.54	2.34093e-05
1477.22	1.50449e-05
1485.89	8.37154e-06
1494.57	3.43248e-06
1503.25	1.12595e-06
1511.93	6.72124e-08
1520.61	-1.7911e-07
1529.28	-2.67212e-07
1537.96	-2.42791e-07
1546.64	-2.81598e-07
1555.32	-2.24212e-07
1564	-2.75302e-07
1572.67	-2.11503e-07
1581.35	-2.69256e-07
1590.03	-2.02156e-07
1598.71	-2.68921e-07
1607.39	-2.17555e-07
1616.07	-3.00689e-07
1624.74	-2.14665e-07
1633.42	-2.60053e-07
1642.1	-2.26558e-07
1650.78	-2.79919e-07
1659.46	-2.29815e-07
1668.13	-2.7779e-07
1676.81	-2.36336e-07
1685.49	-2.87819e-07
1694.17	-2.13269e-07
1702.85	-2.27137e-07
1711.53	-1.52721e-07
1720.2	-1.48014e-07
1728.88	-7.32968e-08
1737.56	-4.246e-08
1746.24	4.47701e-08
1754.92	1.00252e-08
1763.59	-1.01218e-07
1772.27	-1.34561e-07
1780.95	2.83585e-08
1789.63	-1.10933e-07
1798.31	-1.89165e-07
1806.98	-2.21126e-07
1815.66	-1.63119e-07
1824.34	1.69342e-07
1833.02	9.36897e-07
1841.7	2.59867e-06
1850.38	5.5262e-06
1859.05	8.39435e-06
1867.73	1.04768e-05
1876.41	7.21742e-06
1885.09	2.32052e-06
1893.77	2.76833e-06
1902.44	9.2272e-06
1911.12	1.40006e-05
1919.8	1.13867e-05
1928.48	6.62624e-06
1937.16	2.37034e-06
1945.84	6.6636e-07
1954.51	-8.82205e-08
1963.19	-9.04514e-08
1971.87	-2.59075e-07
1980.55	-4.87427e-08
1989.23	2.28305e-07
1997.9	5.35047e-08
2006.58	3.19604e-07
2015.26	6.7364e-07
2023.94	8.75884e-07
2032.62	8.13511e-07
2041.3	2.17519e-07
2049.97	-9.2244e-08
2058.65	7.64994e-07
2067.33	1.76668e-06
2076.01	1.63873e-06
2084.69	8.73988e-07
2093.36	1.15259e-07
2102.04	-6.7809e-08
2110.72	-7.73549e-08
2119.4	-3.97816e-08
2128.08	-1.75293e-08
2136.75	-1.46099e-08
2145.43	1.29673e-07
2154.11	2.22323e-07
2162.79	1.8223e-07
2171.47	8.59841e-08
2180.15	4.89197e-07
2188.82	7.93978e-07
2197.5	4.94966e-07
2206.18	5.29582e-07
2214.86	3.72696e-07
2223.54	1.80824e-07
2232.21	1.17903e-07
2240.89	5.63514e-09
2249.57	8.98939e-08
2258.25	-5.92035e-08
2266.93	-1.25929e-07
2275.61	-1.18726e-07
2284.28	-1.46062e-07
2292.96	-1.22797e-07
2301.64	-1.23174e-07
2310.32	-9.86986e-08
2319	-9.11217e-08
2327.67	-5.15357e-08
2336.35	-3.61937e-08
2345.03	-5.10737e-08
2353.71	-4.19479e-08
2362.39	6.24067e-08
2371.06	-7.71603e-09
2379.74	-8.83505e-08
2388.42	-1.07951e-07
2397.1	-1.18106e-07
2405.78	-1.32819e-07
2414.46	-1.32077e-07
2423.13	-1.32986e-07
2431.81	-1.56299e-07
2440.49	-1.85393e-07
2449.17	-8.37158e-08
2457.85	-9.23422e-08
2466.52	-1.01487e-07
2475.2	-1.37814e-07
2483.88	-1.80397e-07
2492.56	-1.95438e-07
2501.24	-2.16999e-07
2509.92	-2.11033e-07
2518.59	-2.1587e-07
2527.27	-2.3159e-07
2535.95	-2.18544e-07
2544.63	-2.18882e-07
2553.31	-2.31775e-07
2561.98	-2.32298e-07
2570.66	-1.611e-07
2579.34	-2.40263e-07
2588.02	-2.19218e-07
2596.7	-2.27157e-07
2605.38	-2.12159e-07
2614.05	-2.28291e-07
2622.73	-2.00868e-07
2631.41	-2.21285e-07
2640.09	-2.05253e-07
2648.77	-2.16463e-07
2657.44	-2.10737e-07
2666.12	-2.39079e-07
2674.8	-2.16383e-07
2683.48	-2.48103e-07
2692.16	-2.23587e-07
2700.83	-2.63122e-07
2709.51	-2.41906e-07
2718.19	-2.67186e-07
2726.87	-2.27196e-07
2735.55	-2.57644e-07
2744.23	-2.2939e-07
2752.9	-2.69e-07
2761.58	-2.48156e-07
2770.26	-2.77069e-07
2778.94	-2.65955e-07
2787.62	-2.97989e-07
2796.29	-2.89522e-07
2804.97	-3.66557e-07
2813.65	-3.14552e-07
2822.33	-4.3286e-07
2831.01	-4.10832e-07
2839.69	-5.41281e-07
2848.36	-4.23398e-07
2857.04	-4.07566e-07
2865.72	-2.87267e-07
2874.4	-3.0653e-07
2883.08	-2.42543e-07
2891.75	-5.41127e-07
2900.43	-2.88818e-07
2909.11	-3.6069e-07
2917.79	1.38797e-07
2926.47	8.15483e-07
2935.14	3.71501e-06
2943.82	9.63892e-06
2952.5	1.77731e-05
2961.18	3.01154e-05
2969.86	2.90112e-05
2978.54	1.58019e-05
2987.21	8.54064e-05
2995.89	1.21306e-05
3004.57	3.44041e-05
3013.25	4.37487e-05
3021.93	3.07098e-05
3030.6	2.30002e-05
3039.28	1.69311e-05
3047.96	1.67544e-05
3056.64	1.97367e-05
3065.32	2.32217e-05
3074	3.30115e-05
3082.67	3.4148e-05
3091.35	3.35007e-05
3100.03	3.81258e-05
3108.71	2.60747e-05
3117.39	3.33784e-05
3126.06	4.84044e-05
3134.74	3.58668e-05
3143.42	2.70856e-05
3152.1	2.37839e-05
3160.78	2.11643e-05
3169.46	2.95811e-05
3178.13	1.46442e-05
3186.81	1.15877e-05
3195.49	8.45796e-06
3204.17	6.39769e-06
3212.85	4.47769e-06
3221.52	2.34941e-06
3230.2	1.54005e-06
3238.88	7.65879e-07
3247.56	4.18887e-07
3256.24	1.21195e-07
3264.91	-2.52071e-08
3273.59	-9.7509e-08
3282.27	-1.53459e-07
3290.95	-1.68573e-07
3299.63	-1.54328e-07
3308.31	-2.01747e-07
3316.98	-2.04323e-07
3325.66	-1.96159e-07
3334.34	-2.09099e-07
3343.02	-1.89661e-07
3351.7	-1.53741e-07
3360.37	-1.99627e-07
3369.05	-1.5114e-07
3377.73	-1.98905e-07
3386.41	-1.68185e-07
3395.09	-2.06161e-07
3403.77	-2.31632e-07
3412.44	-2.54161e-07
3421.12	-2.35866e-07
3429.8	-2.43696e-07
3438.48	-2.42155e-07
3447.16	-2.32251e-07
3455.83	-2.30244e-07
3464.51	-2.263e-07
3473.19	-2.07596e-07
3481.87	-1.79572e-07
3490.55	-2.02743e-07
3499.22	-2.24461e-07
3507.9	-2.44238e-07
3516.58	-2.09119e-07
3525.26	-1.33818e-07
3533.94	-1.68113e-07
3542.62	-2.1171e-07
3551.29	-2.25527e-07
3559.97	-2.29771e-07
3568.65	-2.45611e-07
3577.33	-2.25168e-07
3586.01	-2.24437e-07
3594.68	-2.30075e-07
3603.36	-2.23956e-07
3612.04	-2.32448e-07
3620.72	-2.32723e-07
3629.4	-2.59194e-07
3638.08	-2.27481e-07
3646.75	-2.19563e-07
3655.43	-2.63652e-07
3664.11	-2.14066e-07
3672.79	-2.26251e-07
3681.47	-2.38625e-07
3690.14	-2.68167e-07
3698.82	-2.37498e-07
3707.5	-3.07274e-07
3716.18	-3.1955e-07
3724.86	-2.70302e-07
3733.54	-2.32399e-07
3742.21	-2.61451e-07
3750.89	-2.7918e-07
3759.57	-2.80153e-07
3768.25	-1.48301e-07
3776.93	-5.70685e-07
3785.6	-1.88847e-07
3794.28	-1.87214e-07
3802.96	-1.79075e-07
3811.64	-1.37773e-07
3820.32	-2.5526e-07
3828.99	-1.66099e-07
3837.67	-2.07706e-07
3846.35	-2.17325e-07
3855.03	-1.73951e-07
3863.71	-9.62766e-08
3872.39	-9.5278e-08
3881.06	-1.36327e-07
3889.74	-9.80019e-08
3898.42	-1.21889e-07
3907.1	-1.12407e-07
3915.78	-1.56663e-07
3924.45	-9.49406e-08
3933.13	-1.65276e-07
3941.81	-1.43433e-07
3950.49	-2.0098e-07
3959.17	-9.01931e-08
3967.85	-1.19696e-07
