Infrared Spectrum: Bromomethane
Formula: C H3 Br
CAS: 74-83-9
State: gas
Melting point: -93.6 C
Boiling point: 3.56 C
Class: IUPAC A
Instrument: IFS66V (Bruker)
Instrument parameters: KBr Beam splitter; MCT Detector; Multipass cell
Sampling: 1 L/min Flow
Resolution: 0.2410
Temperature: 23 C
Pressure: 101.3 kPa
Origin: NIST, Anayltical Chemistry Division, 301-975-3108
cm-1	(micromol/mol)-1m-1 (base 10)
575.048	9.11205e-06
583.606	1.56742e-05
592.163	3.7053e-05
600.721	3.19979e-05
609.279	5.00013e-05
617.836	4.70945e-05
626.394	4.41557e-05
634.951	1.0515e-05
643.509	2.3357e-07
652.067	1.7785e-07
660.624	7.43996e-08
669.182	8.82109e-08
677.74	1.48728e-07
686.297	1.59805e-08
694.855	-1.19355e-07
703.412	4.33276e-09
711.97	-3.91358e-08
720.528	1.72619e-07
729.085	-4.73885e-09
737.643	1.3461e-07
746.201	1.00244e-07
754.758	-7.5495e-08
763.316	-4.99305e-10
771.873	4.26914e-08
780.431	6.47932e-08
788.989	-3.3096e-09
797.546	-4.46691e-09
806.104	1.00774e-07
814.662	-2.62444e-08
823.219	4.61284e-08
831.777	1.36577e-08
840.334	8.3699e-08
848.892	1.2357e-07
857.45	2.99228e-07
866.007	5.44331e-07
874.565	6.7865e-07
883.123	1.82049e-06
891.68	4.22581e-06
900.238	2.80501e-06
908.795	4.90163e-06
917.353	4.57135e-06
925.911	6.52845e-06
934.468	2.90932e-05
943.026	7.05204e-06
951.584	7.4236e-06
960.141	6.93508e-06
968.699	8.02245e-06
977.256	7.56718e-06
985.814	9.87422e-06
994.372	1.09499e-05
1002.93	2.6718e-05
1011.49	4.19275e-06
1020.04	2.76293e-06
1028.6	1.75288e-06
1037.16	1.3604e-06
1045.72	8.59815e-07
1054.28	4.08756e-07
1062.83	3.33736e-07
1071.39	2.89685e-07
1079.95	1.39617e-07
1088.51	1.12731e-07
1097.06	7.07307e-08
1105.62	-2.24369e-08
1114.18	7.02291e-08
1122.74	7.43227e-08
1131.29	2.60048e-08
1139.85	3.94655e-08
1148.41	3.53892e-08
1156.97	6.87799e-08
1165.52	4.0486e-08
1174.08	6.71037e-08
1182.64	1.67528e-07
1191.2	1.07222e-07
1199.75	2.07366e-07
1208.31	1.95943e-07
1216.87	1.56901e-07
1225.43	4.19751e-07
1233.99	1.20227e-07
1242.54	2.15832e-07
1251.1	3.31223e-07
1259.66	1.76751e-06
1268.22	6.57571e-06
1276.77	1.82994e-05
1285.33	3.78818e-05
1293.89	7.3947e-05
1302.45	2.12727e-05
1311	4.37485e-05
1319.56	7.74892e-05
1328.12	2.84301e-05
1336.68	3.88728e-06
1345.23	2.13264e-06
1353.79	3.07115e-06
1362.35	2.58581e-06
1370.91	3.01226e-06
1379.46	4.0031e-06
1388.02	5.01664e-06
1396.58	4.2856e-06
1405.14	4.78258e-06
1413.7	0.000100436
1422.25	6.19307e-06
1430.81	6.36071e-06
1439.37	1.16668e-05
1447.93	6.37121e-06
1456.48	7.41068e-06
1465.04	6.43255e-06
1473.6	1.1008e-05
1482.16	9.37337e-06
1490.71	6.50633e-06
1499.27	7.49206e-06
1507.83	7.67967e-06
1516.39	8.56582e-06
1524.94	6.21405e-06
1533.5	3.76918e-06
1542.06	3.68331e-06
1550.62	2.25191e-06
1559.18	1.20099e-06
1567.73	1.21333e-06
1576.29	1.37213e-06
1584.85	1.05585e-06
1593.41	3.7013e-07
1601.96	5.26939e-07
1610.52	4.53079e-07
1619.08	2.73996e-07
1627.64	1.82249e-07
1636.19	1.00188e-07
1644.75	8.33861e-08
1653.31	2.68475e-07
1661.87	2.87582e-08
1670.42	1.25736e-09
1678.98	3.15262e-08
1687.54	4.63698e-08
1696.1	1.04883e-07
1704.65	6.3916e-08
1713.21	1.59609e-08
1721.77	5.83518e-08
1730.33	5.93436e-08
1738.89	-2.72189e-08
1747.44	-7.11486e-09
1756	4.5504e-08
1764.56	1.85184e-08
1773.12	2.48197e-08
1781.67	8.86561e-09
1790.23	3.36026e-08
1798.79	1.62965e-08
1807.35	2.65009e-08
1815.9	4.91347e-09
1824.46	-4.54804e-08
1833.02	2.61462e-08
1841.58	3.98507e-08
1850.13	5.02383e-08
1858.69	4.28597e-08
1867.25	1.33084e-08
1875.81	9.54927e-08
1884.36	1.56967e-07
1892.92	5.18873e-07
1901.48	3.85909e-07
1910.04	2.3198e-07
1918.6	4.05137e-07
1927.15	4.0793e-07
1935.71	4.90583e-08
1944.27	-4.24286e-08
1952.83	-3.21046e-10
1961.38	2.54404e-08
1969.94	1.17723e-08
1978.5	6.73015e-09
1987.06	-1.18778e-09
1995.61	3.43488e-08
2004.17	-3.05412e-08
2012.73	-4.65154e-09
2021.29	-3.54506e-08
2029.84	7.41499e-09
2038.4	1.49523e-08
2046.96	1.95629e-08
2055.52	6.3559e-08
2064.08	3.66307e-08
2072.63	-7.31586e-09
2081.19	1.18282e-08
2089.75	2.36997e-08
2098.31	-3.10951e-09
2106.86	1.25476e-08
2115.42	9.15587e-08
2123.98	3.14225e-10
2132.54	9.64094e-09
2141.09	4.75144e-08
2149.65	-2.87396e-09
2158.21	2.02061e-07
2166.77	5.74068e-08
2175.32	1.0638e-07
2183.88	1.48993e-07
2192.44	2.89581e-07
2201	4.00176e-07
2209.55	5.64014e-07
2218.11	4.09539e-07
2226.67	6.52999e-07
2235.23	1.33499e-06
2243.79	1.29285e-06
2252.34	7.37237e-07
2260.9	6.30005e-07
2269.46	6.63958e-07
2278.02	6.819e-07
2286.57	6.49012e-07
2295.13	7.66945e-07
2303.69	6.28927e-07
2312.25	4.14275e-07
2320.8	5.17495e-07
2329.36	4.05177e-07
2337.92	5.05172e-07
2346.48	3.74194e-07
2355.03	1.8323e-06
2363.59	7.07805e-07
2372.15	5.84988e-07
2380.71	5.72928e-07
2389.26	5.48941e-07
2397.82	5.47696e-07
2406.38	5.6566e-07
2414.94	3.86169e-07
2423.5	5.35917e-06
2432.05	3.51383e-07
2440.61	3.24928e-07
2449.17	2.63548e-07
2457.73	1.88703e-07
2466.28	1.75687e-07
2474.84	1.9584e-07
2483.4	1.06947e-07
2491.96	1.58731e-07
2500.51	1.11815e-07
2509.07	8.71164e-08
2517.63	1.95218e-07
2526.19	2.2059e-08
2534.74	-4.67932e-08
2543.3	-7.11918e-08
2551.86	1.19733e-09
2560.42	1.45537e-07
2568.98	3.86814e-07
2577.53	4.80446e-07
2586.09	7.18589e-07
2594.65	5.17235e-08
2603.21	9.56515e-07
2611.76	1.18159e-06
2620.32	1.55976e-09
2628.88	-2.90949e-07
2637.44	-3.43196e-07
2645.99	-2.82604e-07
2654.55	-1.59295e-07
2663.11	-2.67132e-08
2671.67	6.37827e-08
2680.22	3.502e-08
2688.78	4.99018e-08
2697.34	5.67743e-08
2705.9	2.24555e-08
2714.45	1.27272e-07
2723.01	8.13703e-08
2731.57	2.2511e-08
2740.13	1.93038e-07
2748.69	4.37387e-08
2757.24	8.54602e-08
2765.8	1.10006e-08
2774.36	1.61753e-07
2782.92	1.09648e-07
2791.47	9.09362e-08
2800.03	1.74603e-07
2808.59	1.44379e-07
2817.15	1.85018e-07
2825.7	3.91136e-07
2834.26	2.31097e-06
2842.82	7.591e-06
2851.38	9.50684e-06
2859.93	7.6225e-06
2868.49	1.02317e-05
2877.05	9.14393e-06
2885.61	4.90356e-06
2894.16	1.85159e-06
2902.72	4.10931e-07
2911.28	2.56442e-07
2919.84	2.4188e-07
2928.4	1.06982e-06
2936.95	5.28155e-06
2945.51	2.02748e-05
2954.07	5.18658e-05
2962.63	5.39451e-05
2971.18	2.80073e-05
2979.74	5.94143e-05
2988.3	6.2643e-05
2996.86	3.39009e-05
3005.41	1.11925e-05
3013.97	4.47752e-06
3022.53	3.91078e-06
3031.09	3.66423e-06
3039.64	3.56636e-06
3048.2	4.0099e-06
3056.76	4.07822e-06
3065.32	3.05192e-06
3073.88	5.2294e-06
3082.43	3.71323e-06
3090.99	4.74276e-06
3099.55	3.81276e-06
3108.11	2.58284e-06
3116.66	2.3669e-06
3125.22	2.80706e-06
3133.78	1.68691e-06
3142.34	9.96702e-07
3150.89	7.15032e-07
3159.45	7.73737e-07
3168.01	2.59346e-07
3176.57	4.56997e-07
3185.12	2.60837e-07
3193.68	1.6955e-07
3202.24	1.1489e-07
3210.8	1.08737e-07
3219.35	1.42626e-07
3227.91	4.08161e-08
3236.47	2.67524e-08
3245.03	6.24363e-08
3253.59	7.10231e-08
3262.14	4.17106e-08
3270.7	-6.60201e-08
3279.26	4.48074e-08
3287.82	2.00554e-08
3296.37	7.20772e-08
3304.93	2.41922e-09
3313.49	5.27417e-08
3322.05	1.10462e-07
3330.6	1.01084e-07
3339.16	9.60702e-08
3347.72	-1.28176e-07
3356.28	1.98685e-08
3364.83	9.26801e-08
3373.39	7.74472e-08
3381.95	8.97639e-08
3390.51	1.65516e-08
3399.06	-2.35555e-09
3407.62	8.5015e-08
3416.18	-1.70109e-08
3424.74	1.39741e-07
3433.3	6.95029e-08
3441.85	4.30821e-08
3450.41	1.24274e-07
3458.97	9.17365e-08
3467.53	6.13981e-08
3476.08	-3.11429e-08
3484.64	-2.57674e-08
3493.2	3.30578e-08
3501.76	-5.86301e-08
3510.31	4.0686e-08
3518.87	1.31735e-07
3527.43	3.73296e-08
3535.99	1.05535e-07
3544.54	9.87991e-08
3553.1	3.35693e-07
3561.66	4.24835e-07
3570.22	5.50552e-07
3578.78	4.43208e-07
3587.33	4.57867e-07
3595.89	7.1474e-07
3604.45	4.18848e-07
3613.01	2.61904e-07
3621.56	3.08973e-08
3630.12	6.58113e-08
3638.68	3.6226e-08
3647.24	1.02869e-07
3655.79	2.09557e-07
3664.35	2.98345e-07
3672.91	3.85473e-07
3681.47	3.251e-07
3690.02	2.80012e-07
3698.58	3.59093e-07
3707.14	1.74925e-07
3715.7	2.07511e-07
3724.25	1.96799e-07
3732.81	1.13915e-07
3741.37	1.26945e-07
3749.93	1.47562e-07
3758.49	-6.00666e-09
3767.04	1.6393e-07
3775.6	7.12482e-08
3784.16	6.93538e-08
3792.72	7.59961e-08
3801.27	2.16489e-07
3809.83	1.47233e-07
3818.39	1.15761e-07
3826.95	2.79482e-07
3835.5	1.72416e-07
3844.06	7.67919e-08
3852.62	1.35503e-07
3861.18	2.33398e-07
3869.73	2.99968e-07
3878.29	2.76766e-07
3886.85	6.56687e-07
3895.41	1.40395e-07
3903.96	2.77006e-07
3912.52	2.18544e-07
3921.08	3.25252e-07
3929.64	3.8774e-07
3938.2	3.10994e-07
3946.75	2.28718e-07
3955.31	9.08675e-08
3963.87	3.37614e-07
3972.43	5.99059e-07
