Infrared Spectrum: Ethene
Formula: C H2: C H2
CAS: 74-85-1
State: gas
Melting point: -169.15 C
Boiling point: -103.71 C
Class: IUPAC A
Instrument: IFS66V (Bruker)
Instrument parameters: KBr Beam splitter; MCT Detector; Multipass cell
Sampling: 1 L/min Flow
Resolution: 0.1250
Temperature: 23 C
Pressure: 101.3 kPa
Origin: NIST, Anayltical Chemistry Division, 301-975-3108
cm-1	(micromol/mol)-1m-1 (base 10)
574.988	-2.92185e-07
583.546	1.91422e-07
592.103	-4.25996e-07
600.661	-3.07397e-07
609.219	-5.63731e-07
617.776	-6.80499e-08
626.334	-4.31888e-07
634.891	-6.86265e-08
643.449	-1.82767e-07
652.007	-3.5025e-07
660.564	-1.60047e-07
669.122	7.48146e-08
677.68	4.21754e-07
686.237	1.02598e-07
694.795	-5.05003e-08
703.352	8.5073e-07
711.91	1.15627e-06
720.468	4.83669e-07
729.025	1.56059e-06
737.583	9.88723e-07
746.141	4.89091e-07
754.698	1.85896e-06
763.256	2.89429e-07
771.813	1.90866e-07
780.371	9.7159e-08
788.929	1.87299e-07
797.486	4.14793e-07
806.044	4.89411e-07
814.602	5.57012e-07
823.159	9.03868e-07
831.717	1.35816e-06
840.274	8.87123e-06
848.832	1.03506e-05
857.39	3.13914e-05
865.947	4.50749e-05
874.505	3.23241e-05
883.063	3.78531e-05
891.62	5.35012e-05
900.178	3.22582e-05
908.735	0.000226231
917.293	3.37004e-05
925.851	5.37236e-05
934.408	7.57153e-05
942.966	8.07257e-05
951.524	0.000277899
960.081	5.8562e-05
968.639	5.04987e-05
977.196	0.000124299
985.754	6.31863e-05
994.312	6.29279e-05
1002.87	4.4896e-05
1011.43	0.000136796
1019.98	9.02811e-05
1028.54	2.5619e-05
1037.1	4.08022e-05
1045.66	2.61931e-05
1054.22	5.41014e-06
1062.77	8.61802e-06
1071.33	4.09299e-06
1079.89	3.921e-06
1088.45	1.75094e-06
1097	8.47846e-06
1105.56	7.01988e-06
1114.12	1.07643e-06
1122.68	3.28619e-07
1131.23	6.2578e-07
1139.79	1.73849e-07
1148.35	8.30619e-08
1156.91	-2.09148e-07
1165.46	7.79397e-08
1174.02	-2.56332e-07
1182.58	-2.37595e-07
1191.14	-2.28784e-07
1199.69	-2.20571e-07
1208.25	-2.02853e-07
1216.81	-2.6532e-07
1225.37	-2.45615e-07
1233.93	-2.58763e-07
1242.48	-2.67696e-07
1251.04	-2.34788e-07
1259.6	-2.36458e-07
1268.16	-2.7971e-07
1276.71	-2.1882e-07
1285.27	-1.89212e-07
1293.83	-2.47247e-07
1302.39	-2.25184e-07
1310.94	-2.07655e-07
1319.5	-2.27136e-07
1328.06	-1.85483e-07
1336.62	-2.19575e-07
1345.17	-1.59967e-07
1353.73	-2.11273e-07
1362.29	-2.2545e-07
1370.85	-2.61515e-08
1379.4	8.40756e-07
1387.96	4.29301e-06
1396.52	1.09273e-05
1405.08	2.12356e-05
1413.64	1.95087e-05
1422.19	3.58961e-05
1430.75	1.37762e-05
1439.31	3.33278e-06
1447.87	1.77359e-05
1456.42	2.1346e-05
1464.98	3.85712e-05
1473.54	1.97135e-05
1482.1	1.63669e-05
1490.65	1.28892e-05
1499.21	6.64004e-07
1507.77	3.54355e-07
1516.33	-5.92205e-08
1524.88	-1.78551e-07
1533.44	-2.81665e-07
1542	-4.23493e-07
1550.56	-2.4197e-07
1559.11	-2.50004e-07
1567.67	-2.07338e-07
1576.23	-5.26897e-07
1584.79	-2.7887e-07
1593.35	-2.77691e-07
1601.9	-2.61835e-07
1610.46	-2.16517e-07
1619.02	-2.75257e-07
1627.58	-2.67945e-07
1636.13	-2.56949e-07
1644.69	-2.47625e-07
1653.25	-5.79329e-07
1661.81	-2.68991e-07
1670.36	-2.49015e-07
1678.92	-2.13805e-07
1687.48	-2.55734e-07
1696.04	-3.24491e-07
1704.59	-1.64157e-07
1713.15	-1.86731e-07
1721.71	-1.00902e-07
1730.27	6.1396e-08
1738.83	-3.08281e-08
1747.38	3.55993e-08
1755.94	-6.2562e-08
1764.5	-1.72367e-07
1773.06	-6.67111e-08
1781.61	-3.07353e-08
1790.17	-4.43267e-08
1798.73	-2.00952e-07
1807.29	-1.87444e-07
1815.84	-9.10872e-08
1824.4	2.36367e-07
1832.96	1.13031e-06
1841.52	2.52736e-06
1850.07	5.87229e-06
1858.63	1.11957e-05
1867.19	4.76453e-06
1875.75	6.35263e-06
1884.3	1.31797e-06
1892.86	2.24409e-06
1901.42	1.26552e-05
1909.98	8.50583e-06
1918.54	1.2944e-05
1927.09	4.39422e-06
1935.65	1.75532e-06
1944.21	1.02034e-06
1952.77	1.56785e-07
1961.32	-3.63105e-07
1969.88	-1.38757e-07
1978.44	2.10876e-07
1987	-1.03293e-07
1995.55	2.83468e-07
2004.11	3.28264e-07
2012.67	9.68789e-08
2021.23	2.35152e-07
2029.78	1.20326e-06
2038.34	1.47374e-06
2046.9	5.23625e-06
2055.46	-1.13339e-07
2064.01	6.66165e-07
2072.57	2.12408e-06
2081.13	1.02737e-06
2089.69	3.6681e-07
2098.25	-6.49194e-08
2106.8	-2.89025e-07
2115.36	-1.83462e-07
2123.92	2.66522e-07
2132.48	4.93226e-07
2141.03	3.20652e-07
2149.59	1.37762e-07
2158.15	5.51429e-07
2166.71	2.00046e-07
2175.26	1.583e-07
2183.82	1.79939e-07
2192.38	5.73384e-07
2200.94	7.82816e-07
2209.49	2.31809e-07
2218.05	1.99984e-07
2226.61	1.16509e-07
2235.17	7.82343e-08
2243.72	1.01048e-07
2252.28	4.97844e-07
2260.84	-1.27438e-08
2269.4	-1.6801e-07
2277.96	-1.53849e-07
2286.51	-1.55836e-07
2295.07	-1.60869e-07
2303.63	-1.11182e-07
2312.19	-1.04197e-07
2320.74	-1.48634e-07
2329.3	-1.07855e-07
2337.86	2.56513e-08
2346.42	-5.67231e-08
2354.97	-1.38694e-07
2363.53	-1.62973e-07
2372.09	-3.64214e-08
2380.65	-8.71128e-08
2389.2	-1.1262e-07
2397.76	-1.60891e-07
2406.32	-1.86451e-07
2414.88	-1.45337e-07
2423.44	-8.68217e-08
2431.99	-1.31751e-07
2440.55	-2.35747e-07
2449.11	-8.92701e-08
2457.67	-6.03247e-08
2466.22	-9.60458e-08
2474.78	-1.18879e-07
2483.34	-1.3459e-07
2491.9	-1.99207e-07
2500.45	-2.14369e-07
2509.01	-2.71896e-07
2517.57	-2.72814e-07
2526.13	-2.3925e-07
2534.68	-1.8063e-07
2543.24	-1.53411e-07
2551.8	-2.38135e-07
2560.36	-2.30565e-07
2568.91	-3.7993e-08
2577.47	-2.03493e-07
2586.03	-2.41597e-07
2594.59	-2.55649e-07
2603.15	-1.56929e-07
2611.7	-2.63528e-07
2620.26	-2.05217e-07
2628.82	-2.21368e-07
2637.38	-2.0652e-07
2645.93	-2.18683e-07
2654.49	-1.86891e-07
2663.05	-1.94227e-07
2671.61	-1.92255e-07
2680.16	-2.84867e-07
2688.72	-2.64591e-07
2697.28	-2.57335e-07
2705.84	-2.72227e-07
2714.39	-2.27805e-07
2722.95	-2.53011e-07
2731.51	-2.20557e-07
2740.07	-2.43551e-07
2748.62	-3.13025e-07
2757.18	-2.93047e-07
2765.74	-3.03435e-07
2774.3	-2.72389e-07
2782.86	-3.639e-07
2791.41	-4.00661e-07
2799.97	-4.01936e-07
2808.53	-3.83265e-07
2817.09	-2.24553e-07
2825.64	-3.80696e-07
2834.2	-4.38101e-07
2842.76	-3.52531e-07
2851.32	-4.04636e-07
2859.87	-5.13114e-07
2868.43	-2.4669e-07
2876.99	-3.01605e-07
2885.55	-7.25788e-07
2894.1	-5.27888e-07
2902.66	-3.14232e-07
2911.22	-2.82746e-07
2919.78	7.73485e-08
2928.34	1.0223e-06
2936.89	4.14755e-06
2945.45	2.41273e-05
2954.01	1.45792e-05
2962.57	7.62194e-05
2971.12	2.12736e-05
2979.68	1.50713e-05
2988.24	0.000299508
2996.8	6.28456e-06
3005.35	2.48444e-05
3013.91	6.35825e-05
3022.47	3.48892e-05
3031.03	1.466e-05
3039.58	1.55979e-05
3048.14	2.73083e-05
3056.7	2.14452e-05
3065.26	2.42918e-05
3073.81	4.44616e-05
3082.37	2.62532e-05
3090.93	2.87168e-05
3099.49	4.83662e-05
3108.05	1.59997e-05
3116.6	4.01867e-05
3125.16	7.42276e-05
3133.72	4.66207e-05
3142.28	2.34065e-05
3150.83	4.35378e-05
3159.39	1.48768e-05
3167.95	4.14839e-05
3176.51	1.15468e-05
3185.06	3.70782e-06
3193.62	1.91978e-05
3202.18	6.03902e-06
3210.74	2.63968e-06
3219.29	3.50549e-06
3227.85	3.06995e-06
3236.41	1.04702e-06
3244.97	9.12182e-08
3253.52	1.13306e-07
3262.08	-6.75205e-08
3270.64	-8.36331e-08
3279.2	-1.39816e-07
3287.76	-1.67939e-07
3296.31	-1.99508e-07
3304.87	-2.17286e-07
3313.43	-1.01848e-07
3321.99	-1.93108e-07
3330.54	-2.96989e-07
3339.1	-2.1212e-07
3347.66	-2.37346e-07
3356.22	-2.48154e-07
3364.77	-2.11009e-07
3373.33	-2.10123e-07
3381.89	-1.40351e-07
3390.45	-2.47334e-07
3399	-1.87892e-07
3407.56	-1.99084e-07
3416.12	-2.55847e-07
3424.68	-2.99024e-07
3433.23	-1.39494e-07
3441.79	-2.75828e-07
3450.35	-3.54396e-07
3458.91	-2.65189e-07
3467.47	-1.76883e-07
3476.02	-1.69327e-07
3484.58	-1.8276e-07
3493.14	-1.51734e-07
3501.7	-2.59086e-07
3510.25	-1.85347e-07
3518.81	-2.1628e-07
3527.37	-2.35962e-07
3535.93	-1.72387e-07
3544.48	-2.58377e-07
3553.04	-2.1817e-07
3561.6	-2.17637e-07
3570.16	-1.75806e-07
3578.71	-1.50575e-07
3587.27	-2.89591e-07
3595.83	-2.70719e-07
3604.39	-2.40171e-07
3612.95	-2.63077e-07
3621.5	-2.15591e-07
3630.06	-2.15444e-07
3638.62	-1.96757e-07
3647.18	-3.0789e-07
3655.73	-2.52478e-07
3664.29	-2.20215e-07
3672.85	-2.43903e-07
3681.41	-2.48795e-07
3689.96	-2.67716e-07
3698.52	-2.66983e-07
3707.08	-3.74279e-07
3715.64	-2.72891e-07
3724.19	-2.49122e-07
3732.75	-4.23453e-07
3741.31	-1.43468e-07
3749.87	-1.90138e-07
3758.42	-3.19542e-07
3766.98	-2.41299e-07
3775.54	-5.00676e-07
3784.1	-2.29513e-07
3792.66	-1.2975e-07
3801.21	-2.26478e-07
3809.77	-3.22216e-07
3818.33	-8.01279e-08
3826.89	-2.78373e-07
3835.44	-1.64356e-07
3844	-1.32635e-07
3852.56	-2.34117e-07
3861.12	-4.95308e-09
3869.67	-1.41055e-07
3878.23	-1.48587e-07
3886.79	-1.35547e-07
3895.35	-1.90513e-07
3903.9	-2.28346e-07
3912.46	-1.55601e-07
3921.02	1.24364e-07
3929.58	-2.96257e-08
3938.13	-1.29571e-07
3946.69	-8.14576e-08
3955.25	-1.32091e-07
3963.81	-2.22831e-07
3972.37	-1.29839e-07
