Infrared Spectrum: Ethene
Formula: C H2: C H2
CAS: 74-85-1
State: gas
Melting point: -169.15 C
Boiling point: -103.71 C
Class: IUPAC A
Instrument: IFS66V (Bruker)
Instrument parameters: KBr Beam splitter; MCT Detector; Multipass cell
Sampling: 1 L/min Flow
Resolution: 0.9640
Temperature: 23 C
Pressure: 101.3 kPa
Origin: NIST, Anayltical Chemistry Division, 301-975-3108
cm-1	(micromol/mol)-1m-1 (base 10)
575.169	2.68216e-07
583.847	2.24899e-08
592.525	-1.2004e-07
601.203	-1.36262e-07
609.882	1.0261e-07
618.56	8.24816e-08
627.238	1.82478e-07
635.916	3.44187e-08
644.594	2.69449e-07
653.272	2.22614e-07
661.951	1.42684e-07
670.629	2.62806e-07
679.307	3.13312e-07
687.985	7.79951e-07
696.663	4.16712e-07
705.341	8.32856e-07
714.019	1.68865e-06
722.698	8.00766e-07
731.376	1.42432e-06
740.054	6.41545e-07
748.732	2.06206e-06
757.41	1.2373e-06
766.088	2.27131e-06
774.767	1.39936e-06
783.445	6.43199e-07
792.123	8.61636e-07
800.801	7.01506e-07
809.479	1.16111e-06
818.157	1.70855e-06
826.835	1.34052e-06
835.514	3.96709e-06
844.192	1.28268e-05
852.87	1.06822e-05
861.548	1.49455e-05
870.226	1.83897e-05
878.904	6.2671e-05
887.583	4.04984e-05
896.261	0.000115385
904.939	3.29235e-05
913.617	8.6124e-05
922.295	0.00032275
930.973	6.04108e-05
939.651	0.000117027
948.33	0.000413552
957.008	8.34443e-05
965.686	9.65639e-05
974.364	3.87515e-05
983.042	4.95828e-05
991.72	5.35954e-05
1000.4	8.99418e-05
1009.08	4.33608e-05
1017.75	6.53713e-05
1026.43	3.6863e-05
1035.11	3.29695e-05
1043.79	5.34777e-05
1052.47	-1.28296e-06
1061.15	2.03258e-05
1069.82	1.0072e-05
1078.5	2.97351e-06
1087.18	-1.1631e-06
1095.86	-1.6868e-06
1104.54	-6.00094e-07
1113.21	3.00439e-07
1121.89	1.04262e-06
1130.57	-7.82816e-08
1139.25	-7.36001e-07
1147.93	-4.01305e-07
1156.61	-9.36653e-07
1165.28	-6.96356e-07
1173.96	-8.74315e-07
1182.64	-7.66915e-07
1191.32	-8.09202e-07
1200	-8.0133e-07
1208.67	-7.91196e-07
1217.35	-7.81661e-07
1226.03	-7.38397e-07
1234.71	-7.5776e-07
1243.39	-7.07807e-07
1252.07	-7.0579e-07
1260.74	-6.95201e-07
1269.42	-6.62101e-07
1278.1	-6.63813e-07
1286.78	-6.74116e-07
1295.46	-6.53128e-07
1304.13	-6.25605e-07
1312.81	-6.32801e-07
1321.49	-5.93075e-07
1330.17	-6.22777e-07
1338.85	-6.40497e-07
1347.52	-5.97017e-07
1356.2	-6.19632e-07
1364.88	-4.75438e-07
1373.56	-4.97053e-07
1382.24	-1.84268e-07
1390.92	3.15293e-06
1399.59	1.08634e-05
1408.27	2.02266e-05
1416.95	3.00213e-05
1425.63	1.8589e-05
1434.31	3.14561e-06
1442.98	4.37391e-05
1451.66	1.54267e-05
1460.34	1.74838e-05
1469.02	9.39797e-06
1477.7	2.06785e-05
1486.38	5.52669e-06
1495.05	3.42258e-06
1503.73	1.14237e-06
1512.41	-1.13197e-07
1521.09	-3.76904e-07
1529.77	-3.27797e-07
1538.44	-3.57446e-07
1547.12	-3.50667e-07
1555.8	-3.26863e-07
1564.48	-3.53211e-07
1573.16	-3.35955e-07
1581.83	-3.75343e-07
1590.51	-2.94256e-07
1599.19	-3.52748e-07
1607.87	-3.58874e-07
1616.55	-4.79481e-07
1625.23	-3.40942e-07
1633.9	-3.45355e-07
1642.58	-3.50763e-07
1651.26	-3.99966e-07
1659.94	-3.3922e-07
1668.62	-3.56144e-07
1677.29	-3.57581e-07
1685.97	-3.61708e-07
1694.65	-3.38841e-07
1703.33	-3.00274e-07
1712.01	-1.89549e-07
1720.69	-2.69193e-07
1729.36	-1.84064e-07
1738.04	-3.64087e-08
1746.72	1.02072e-07
1755.4	-1.54863e-07
1764.08	-1.61214e-07
1772.75	-3.34958e-07
1781.43	3.82477e-08
1790.11	-1.05866e-07
1798.79	-2.47672e-07
1807.47	-2.70264e-07
1816.15	-2.32011e-07
1824.82	2.62553e-07
1833.5	4.05161e-07
1842.18	1.06533e-06
1850.86	6.24566e-06
1859.54	6.96589e-06
1868.21	1.95295e-05
1876.89	1.6465e-06
1885.57	2.83208e-06
1894.25	4.74339e-06
1902.93	8.63765e-06
1911.6	1.21907e-05
1920.28	1.9229e-05
1928.96	1.66899e-06
1937.64	1.74791e-06
1946.32	2.84037e-07
1955	-2.6984e-07
1963.67	-1.65094e-07
1972.35	-3.2286e-07
1981.03	-2.46039e-07
1989.71	-9.93181e-08
1998.39	-5.25685e-08
2007.06	5.89542e-07
2015.74	9.12728e-07
2024.42	1.6431e-06
2033.1	4.558e-07
2041.78	-1.11769e-07
2050.46	-3.36126e-07
2059.13	-2.16621e-07
2067.81	1.65396e-06
2076.49	7.15723e-07
2085.17	8.88261e-07
2093.85	-5.77963e-08
2102.52	-2.66737e-07
2111.2	-5.72306e-08
2119.88	-7.83089e-08
2128.56	-2.1671e-07
2137.24	-1.54137e-07
2145.91	-4.48524e-08
2154.59	3.50397e-07
2163.27	1.44985e-07
2171.95	-3.34347e-08
2180.63	4.30369e-07
2189.31	8.19385e-07
2197.98	3.30143e-07
2206.66	1.87784e-07
2215.34	3.45208e-07
2224.02	2.11222e-07
2232.7	3.06462e-08
2241.37	-4.11071e-08
2250.05	6.18617e-08
2258.73	-1.77893e-07
2267.41	-1.63979e-07
2276.09	-2.2842e-07
2284.77	-2.53415e-07
2293.44	-2.43363e-07
2302.12	-1.74318e-07
2310.8	-2.26192e-07
2319.48	-1.98236e-07
2328.16	-1.94682e-07
2336.83	-3.26227e-07
2345.51	-2.1478e-07
2354.19	-2.71956e-08
2362.87	2.12084e-07
2371.55	-2.56567e-08
2380.23	-1.46159e-07
2388.9	-1.78093e-07
2397.58	-2.18509e-07
2406.26	-2.24042e-07
2414.94	-1.79652e-07
2423.62	-2.19436e-07
2432.29	-2.25725e-07
2440.97	-2.49951e-07
2449.65	-1.52793e-07
2458.33	-1.67632e-07
2467.01	-2.27873e-07
2475.68	-1.97398e-07
2484.36	-2.50017e-07
2493.04	-2.95732e-07
2501.72	-3.15482e-07
2510.4	-2.56369e-07
2519.08	-2.99051e-07
2527.75	-2.89101e-07
2536.43	-2.9955e-07
2545.11	-2.81676e-07
2553.79	-3.01361e-07
2562.47	-2.71783e-07
2571.14	-2.54406e-07
2579.82	-3.19176e-07
2588.5	-2.93731e-07
2597.18	-2.95653e-07
2605.86	-3.08655e-07
2614.54	-2.97047e-07
2623.21	-2.90256e-07
2631.89	-3.09798e-07
2640.57	-2.85805e-07
2649.25	-2.93014e-07
2657.93	-3.12084e-07
2666.6	-3.22023e-07
2675.28	-3.18456e-07
2683.96	-3.50026e-07
2692.64	-2.96155e-07
2701.32	-3.48648e-07
2709.99	-3.41946e-07
2718.67	-3.30183e-07
2727.35	-3.24955e-07
2736.03	-3.66373e-07
2744.71	-3.53017e-07
2753.39	-3.45239e-07
2762.06	-3.73255e-07
2770.74	-3.71499e-07
2779.42	-4.14762e-07
2788.1	-4.18204e-07
2796.78	-4.53377e-07
2805.45	-4.7582e-07
2814.13	-4.72304e-07
2822.81	-5.58754e-07
2831.49	-5.68509e-07
2840.17	-6.96818e-07
2848.85	-6.10231e-07
2857.52	-5.06882e-07
2866.2	-4.89096e-07
2874.88	-3.39127e-07
2883.56	-4.10969e-07
2892.24	-8.14496e-07
2900.91	-4.8078e-07
2909.59	-3.59721e-07
2918.27	-2.08146e-08
2926.95	9.62795e-07
2935.63	4.49498e-06
2944.31	2.96069e-06
2952.98	2.34089e-05
2961.66	1.46701e-05
2970.34	2.35377e-05
2979.02	1.25629e-05
2987.7	0.000104802
2996.37	1.4415e-05
3005.05	4.17982e-05
3013.73	7.09016e-05
3022.41	2.79421e-05
3031.09	2.05194e-05
3039.76	1.12354e-05
3048.44	1.66255e-05
3057.12	1.6252e-05
3065.8	3.42568e-05
3074.48	2.4287e-05
3083.16	4.10188e-05
3091.83	3.01639e-05
3100.51	3.3208e-05
3109.19	3.16326e-05
3117.87	4.40333e-05
3126.55	4.43588e-05
3135.22	4.29088e-05
3143.9	1.82726e-05
3152.58	3.47384e-05
3161.26	2.31093e-05
3169.94	4.51099e-05
3178.62	1.69509e-05
3187.29	7.34033e-06
3195.97	7.97947e-06
3204.65	1.08147e-05
3213.33	5.10998e-06
3222.01	1.591e-06
3230.68	6.14633e-07
3239.36	3.75223e-07
3248.04	1.09694e-07
3256.72	3.58339e-08
3265.4	-3.83077e-08
3274.07	-1.5636e-08
3282.75	-5.79218e-08
3291.43	-5.87658e-08
3300.11	-8.50846e-08
3308.79	-8.44461e-08
3317.47	-5.53279e-08
3326.14	-1.02956e-07
3334.82	-1.21824e-07
3343.5	-7.82307e-08
3352.18	-6.15034e-08
3360.86	-4.24132e-08
3369.53	-5.91423e-08
3378.21	-6.4099e-08
3386.89	-4.47724e-08
3395.57	-1.24895e-07
3404.25	-7.16951e-08
3412.93	-1.34686e-07
3421.6	-1.49871e-07
3430.28	-1.33086e-07
3438.96	-1.68481e-07
3447.64	-1.59314e-07
3456.32	-1.08466e-07
3464.99	-1.51166e-07
3473.67	-1.31363e-07
3482.35	-1.37175e-07
3491.03	-4.4505e-08
3499.71	-2.02991e-07
3508.39	-1.40447e-07
3517.06	-7.89419e-08
3525.74	-4.68533e-08
3534.42	-1.53868e-08
3543.1	-1.28224e-07
3551.78	-1.76783e-07
3560.45	-1.38403e-07
3569.13	-1.29759e-07
3577.81	-1.01879e-07
3586.49	-1.6226e-07
3595.17	-1.22303e-07
3603.84	-1.58913e-07
3612.52	-1.6988e-07
3621.2	-1.11576e-07
3629.88	-1.82084e-07
3638.56	-9.10108e-08
3647.24	-1.31141e-07
3655.91	-1.33666e-07
3664.59	-1.32116e-07
3673.27	-1.18534e-07
3681.95	-1.92728e-07
3690.63	-1.49024e-07
3699.3	-1.36156e-07
3707.98	-2.08097e-07
3716.66	-3.94308e-07
3725.34	-1.54431e-09
3734.02	-1.04775e-07
3742.7	-1.89963e-07
3751.37	-2.16169e-07
3760.05	-1.11012e-07
3768.73	-5.69432e-08
3777.41	-6.18249e-07
3786.09	-6.89957e-08
3794.76	-1.55083e-07
3803.44	2.65262e-08
3812.12	-1.98132e-07
3820.8	-6.39171e-08
3829.48	-2.97167e-08
3838.16	2.12311e-08
3846.83	-1.78078e-07
3855.51	-8.01461e-08
3864.19	1.93303e-08
3872.87	-1.25964e-08
3881.55	-4.69551e-08
3890.22	-2.99095e-08
3898.9	-5.18591e-09
3907.58	2.91255e-08
3916.26	-4.09907e-08
3924.94	1.86045e-08
3933.61	-3.24197e-08
3942.29	-1.14789e-07
3950.97	-3.29763e-08
3959.65	1.11667e-08
3968.33	3.16994e-08
