Infrared Spectrum: Bromomethane
Formula: C H3 Br
CAS: 74-83-9
State: gas
Melting point: -93.6 C
Boiling point: 3.56 C
Class: IUPAC A
Instrument: IFS66V (Bruker)
Instrument parameters: KBr Beam splitter; MCT Detector; Multipass cell
Sampling: 1 L/min Flow
Resolution: 0.9640
Temperature: 23 C
Pressure: 101.3 kPa
Origin: NIST, Anayltical Chemistry Division, 301-975-3108
cm-1	(micromol/mol)-1m-1 (base 10)
575.169	6.52932e-06
583.847	1.85583e-05
592.525	3.54846e-05
601.203	3.71754e-05
609.882	4.95659e-05
618.56	4.65295e-05
627.238	4.05172e-05
635.916	7.65593e-06
644.594	1.80296e-07
653.272	5.0134e-08
661.951	8.20687e-08
670.629	-1.26586e-08
679.307	3.54058e-08
687.985	7.74443e-08
696.663	5.55339e-08
705.341	1.56125e-08
714.019	4.10021e-08
722.698	2.47964e-08
731.376	4.75755e-08
740.054	5.7859e-08
748.732	3.65146e-08
757.41	5.59772e-08
766.088	5.12344e-08
774.767	5.29845e-08
783.445	5.29536e-08
792.123	7.60691e-08
800.801	8.05202e-08
809.479	3.45811e-08
818.157	-2.91e-08
826.835	5.13538e-08
835.514	4.15744e-08
844.192	1.14599e-07
852.87	1.98266e-07
861.548	3.79997e-07
870.226	8.01993e-07
878.904	1.64634e-06
887.583	1.64154e-06
896.261	2.22355e-06
904.939	4.70984e-06
913.617	1.36525e-05
922.295	5.18128e-06
930.973	7.1281e-06
939.651	6.52236e-06
948.33	1.25171e-05
957.008	4.816e-05
965.686	9.23625e-06
974.364	6.81347e-06
983.042	7.0448e-06
991.72	7.03966e-06
1000.4	6.30669e-06
1009.08	5.99664e-06
1017.75	5.92231e-06
1026.43	6.73489e-06
1035.11	2.40663e-06
1043.79	1.21281e-06
1052.47	6.63695e-07
1061.15	5.2936e-07
1069.82	2.67689e-07
1078.5	1.36658e-07
1087.18	1.30455e-07
1095.86	6.41328e-08
1104.54	3.97156e-08
1113.21	3.93391e-08
1121.89	4.06897e-08
1130.57	3.08351e-08
1139.25	1.51417e-08
1147.93	1.8754e-08
1156.61	7.18858e-08
1165.28	5.76084e-08
1173.96	7.69031e-08
1182.64	1.23837e-07
1191.32	1.42115e-07
1200	2.26205e-07
1208.67	2.12783e-07
1217.35	1.49248e-07
1226.03	3.92153e-07
1234.71	1.28607e-07
1243.39	1.3842e-07
1252.07	3.39357e-07
1260.74	1.66492e-06
1269.42	6.76331e-06
1278.1	2.16104e-05
1286.78	4.76053e-05
1295.46	5.9454e-05
1304.13	1.37185e-05
1312.81	5.45402e-05
1321.49	6.70256e-05
1330.17	1.97095e-05
1338.85	8.40594e-06
1347.52	1.21648e-06
1356.2	2.50581e-06
1364.88	8.54507e-06
1373.56	2.75231e-06
1382.24	3.19209e-06
1390.92	5.94362e-06
1399.59	6.02769e-06
1408.27	6.01464e-06
1416.95	4.82586e-06
1425.63	2.73611e-05
1434.31	7.62366e-06
1442.98	6.92567e-06
1451.66	7.62876e-06
1460.34	7.86716e-06
1469.02	7.56747e-06
1477.7	6.97945e-06
1486.38	5.35703e-05
1495.05	7.08987e-06
1503.73	6.42964e-06
1512.41	4.39048e-06
1521.09	2.25939e-05
1529.77	4.55972e-06
1538.44	4.18837e-06
1547.12	1.91302e-06
1555.8	1.55589e-06
1564.48	2.89072e-06
1573.16	1.34654e-06
1581.83	6.36434e-07
1590.51	5.00187e-07
1599.19	5.6442e-07
1607.87	5.85681e-07
1616.55	3.78937e-07
1625.23	2.32032e-07
1633.9	1.9533e-07
1642.58	1.25603e-07
1651.26	8.33093e-08
1659.94	3.64031e-08
1668.62	5.90769e-08
1677.29	4.25286e-08
1685.97	5.60596e-08
1694.65	4.246e-08
1703.33	1.24507e-08
1712.01	2.42849e-08
1720.69	2.61898e-08
1729.36	3.1662e-08
1738.04	3.01866e-08
1746.72	3.664e-08
1755.4	3.69763e-08
1764.08	4.09874e-08
1772.75	7.1513e-08
1781.43	3.30883e-09
1790.11	3.55789e-08
1798.79	1.94733e-08
1807.47	1.16815e-08
1816.15	6.96713e-09
1824.82	-1.52257e-08
1833.5	9.98675e-09
1842.18	2.03981e-08
1850.86	3.86487e-08
1859.54	2.00203e-08
1868.21	-2.36185e-08
1876.89	1.57867e-07
1885.57	2.59359e-07
1894.25	3.88017e-07
1902.93	3.54578e-07
1911.6	4.11527e-07
1920.28	5.60316e-07
1928.96	3.40914e-07
1937.64	3.48442e-08
1946.32	7.83285e-09
1955	-9.20356e-09
1963.67	2.07852e-08
1972.35	-2.79299e-08
1981.03	6.71543e-09
1989.71	-3.19884e-08
1998.39	5.20591e-09
2007.06	4.30766e-08
2015.74	1.37307e-08
2024.42	6.38097e-09
2033.1	2.83335e-08
2041.78	1.15181e-08
2050.46	3.24301e-09
2059.13	2.51139e-08
2067.81	7.86093e-09
2076.49	4.77129e-09
2085.17	1.39202e-08
2093.85	1.61812e-08
2102.52	2.34036e-08
2111.2	7.69023e-08
2119.88	8.06187e-08
2128.56	1.41666e-08
2137.24	1.87683e-08
2145.91	2.42712e-08
2154.59	9.38704e-08
2163.27	5.55702e-08
2171.95	1.14969e-07
2180.63	2.01137e-07
2189.31	2.74115e-07
2197.98	2.82216e-07
2206.66	4.85568e-07
2215.34	9.74369e-07
2224.02	5.69405e-07
2232.7	7.82219e-07
2241.37	7.56984e-07
2250.05	1.09596e-06
2258.73	2.25256e-06
2267.41	9.06956e-07
2276.09	5.23581e-07
2284.77	4.73608e-07
2293.44	4.94672e-07
2302.12	4.26359e-07
2310.8	3.60051e-07
2319.48	4.78996e-07
2328.16	5.22174e-07
2336.83	3.82915e-07
2345.51	8.36095e-07
2354.19	1.01792e-06
2362.87	8.33938e-07
2371.55	6.62978e-07
2380.23	5.55246e-07
2388.9	4.97483e-07
2397.58	5.57615e-07
2406.26	5.58845e-07
2414.94	4.28593e-07
2423.62	2.39074e-06
2432.29	6.8874e-07
2440.97	3.282e-07
2449.65	2.37425e-07
2458.33	2.2124e-07
2467.01	1.95535e-07
2475.68	1.52336e-07
2484.36	1.31879e-07
2493.04	1.42571e-07
2501.72	1.14414e-07
2510.4	1.03278e-07
2519.08	1.60711e-07
2527.75	2.58642e-08
2536.43	-2.47015e-08
2545.11	-9.53996e-09
2553.79	7.23077e-09
2562.47	8.98611e-08
2571.14	3.56695e-07
2579.82	7.29937e-07
2588.5	7.55274e-07
2597.18	9.69815e-07
2605.86	1.52793e-06
2614.54	1.27317e-06
2623.21	-2.20814e-07
2631.89	-3.4928e-07
2640.57	-2.93689e-07
2649.25	-2.40031e-07
2657.93	-1.60427e-07
2666.6	4.59498e-08
2675.28	-1.75599e-09
2683.96	5.72636e-09
2692.64	4.63418e-08
2701.32	2.44608e-08
2709.99	7.54544e-08
2718.67	5.82789e-08
2727.35	4.45311e-08
2736.03	6.75029e-08
2744.71	8.35889e-08
2753.39	-1.57996e-07
2762.06	7.25231e-08
2770.74	5.41825e-08
2779.42	3.41107e-08
2788.1	1.23173e-07
2796.78	6.93167e-08
2805.45	7.7963e-08
2814.13	1.62555e-07
2822.81	4.00997e-07
2831.49	1.4294e-06
2840.17	6.13165e-06
2848.85	1.14582e-05
2857.52	5.67775e-06
2866.2	6.90854e-06
2874.88	9.83715e-06
2883.56	5.88856e-06
2892.24	2.13601e-06
2900.91	5.71411e-07
2909.59	1.14589e-07
2918.27	1.54219e-07
2926.95	8.06751e-07
2935.63	4.16126e-06
2944.31	1.83576e-05
2952.98	4.8735e-05
2961.66	5.98856e-05
2970.34	4.58036e-05
2979.02	6.0402e-05
2987.7	6.45936e-05
2996.37	3.33703e-05
3005.05	1.19706e-05
3013.73	4.28885e-06
3022.41	3.71957e-06
3031.09	3.61745e-06
3039.76	3.36072e-06
3048.44	4.02489e-06
3057.12	3.61807e-06
3065.8	4.08787e-06
3074.48	4.39144e-06
3083.16	3.60744e-06
3091.83	4.23943e-06
3100.51	3.98215e-06
3109.19	3.18659e-06
3117.87	3.26854e-06
3126.55	2.41957e-06
3135.22	1.44004e-06
3143.9	9.37357e-07
3152.58	9.461e-07
3161.26	5.14754e-07
3169.94	2.93714e-07
3178.62	3.63591e-07
3187.29	3.41354e-07
3195.97	1.64296e-07
3204.65	1.33659e-07
3213.33	1.22048e-07
3222.01	1.23776e-07
3230.68	1.37892e-08
3239.36	2.01207e-08
3248.04	4.19572e-08
3256.72	-5.09677e-09
3265.4	-1.05519e-08
3274.07	2.80433e-08
3282.75	3.22957e-08
3291.43	6.23063e-08
3300.11	5.78687e-08
3308.79	-5.72341e-09
3317.47	4.0923e-08
3326.14	5.76569e-08
3334.82	4.62492e-08
3343.5	5.2101e-08
3352.18	3.38185e-08
3360.86	1.76362e-08
3369.53	3.18276e-08
3378.21	5.88804e-08
3386.89	3.48396e-08
3395.57	-1.46038e-08
3404.25	9.72243e-09
3412.93	3.78331e-08
3421.6	3.24512e-08
3430.28	5.52985e-08
3438.96	4.05134e-08
3447.64	5.27513e-08
3456.32	6.28894e-08
3464.99	6.72961e-08
3473.67	9.0531e-08
3482.35	8.31288e-08
3491.03	5.74466e-08
3499.71	6.91895e-08
3508.39	7.06337e-08
3517.06	1.98282e-08
3525.74	4.07405e-08
3534.42	4.25506e-08
3543.1	1.1025e-07
3551.78	2.08541e-07
3560.45	4.3388e-07
3569.13	5.72354e-07
3577.81	4.54615e-07
3586.49	4.91277e-07
3595.17	6.94602e-07
3603.84	4.57354e-07
3612.52	1.52936e-07
3621.2	9.14874e-08
3629.88	1.53292e-07
3638.56	6.38705e-08
3647.24	1.61473e-07
3655.91	1.90644e-07
3664.59	2.49899e-07
3673.27	3.59564e-07
3681.95	2.97706e-07
3690.63	2.71985e-07
3699.3	3.18346e-07
3707.98	1.45916e-07
3716.66	1.56949e-07
3725.34	1.63932e-07
3734.02	1.21931e-07
3742.7	6.89155e-08
3751.37	7.76819e-08
3760.05	6.9985e-08
3768.73	6.35438e-08
3777.41	3.45127e-08
3786.09	8.81786e-08
3794.76	1.05081e-07
3803.44	9.93092e-08
3812.12	1.08919e-07
3820.8	2.21189e-07
3829.48	1.36381e-07
3838.16	2.44046e-07
3846.83	1.90726e-07
3855.51	2.4631e-07
3864.19	2.98286e-07
3872.87	1.90115e-07
3881.55	3.81598e-07
3890.22	5.24322e-07
3898.9	2.58942e-07
3907.58	2.05889e-07
3916.26	1.86595e-07
3924.94	2.05099e-07
3933.61	1.69521e-07
3942.29	3.50841e-07
3950.97	2.8594e-07
3959.65	1.72178e-07
3968.33	3.70706e-07
