Infrared Spectrum: Bromomethane
Formula: C H3 Br
CAS: 74-83-9
State: gas
Melting point: -93.6 C
Boiling point: 3.56 C
Class: IUPAC A
Instrument: IFS66V (Bruker)
Instrument parameters: KBr Beam splitter; MCT Detector; Multipass cell
Sampling: 1 L/min Flow
Resolution: 1.9290
Temperature: 23 C
Pressure: 101.3 kPa
Origin: NIST, Anayltical Chemistry Division, 301-975-3108
cm-1	(micromol/mol)-1m-1 (base 10)
574.687	6.18891e-06
583.365	1.76343e-05
592.043	3.45423e-05
600.721	3.74013e-05
609.4	4.42834e-05
618.078	4.43798e-05
626.756	4.2392e-05
635.434	8.91531e-06
644.112	2.03956e-07
652.79	3.92504e-08
661.469	8.46074e-08
670.147	-1.00953e-08
678.825	2.23401e-08
687.503	6.87247e-08
696.181	5.33526e-08
704.859	1.89995e-08
713.537	6.23659e-08
722.216	1.87859e-08
730.894	4.24349e-08
739.572	4.67351e-08
748.25	5.2887e-08
756.928	5.80002e-08
765.606	2.16512e-08
774.285	2.72373e-08
782.963	8.50175e-08
791.641	6.10528e-08
800.319	5.74019e-08
808.997	7.28345e-08
817.675	-5.99682e-09
826.353	3.36885e-08
835.032	5.46768e-08
843.71	1.18444e-07
852.388	2.05921e-07
861.066	3.67257e-07
869.744	7.16963e-07
878.422	1.58355e-06
887.101	1.79082e-06
895.779	2.14375e-06
904.457	4.08277e-06
913.135	1.33526e-05
921.813	6.07354e-06
930.491	7.03825e-06
939.169	6.44197e-06
947.848	1.01904e-05
956.526	3.49764e-05
965.204	1.68937e-05
973.882	7.19136e-06
982.56	6.40587e-06
991.238	6.66828e-06
999.917	6.1384e-06
1008.59	5.64699e-06
1017.27	5.1921e-06
1025.95	5.82719e-06
1034.63	2.97038e-06
1043.31	1.4697e-06
1051.99	7.49952e-07
1060.66	5.44848e-07
1069.34	2.92717e-07
1078.02	1.36546e-07
1086.7	1.28602e-07
1095.38	5.95093e-08
1104.05	5.24868e-08
1112.73	2.73025e-08
1121.41	5.23463e-08
1130.09	2.67958e-08
1138.77	1.24731e-08
1147.45	1.18656e-08
1156.12	6.01958e-08
1164.8	5.75792e-08
1173.48	8.06768e-08
1182.16	1.08512e-07
1190.84	1.57574e-07
1199.51	2.1945e-07
1208.19	2.08558e-07
1216.87	1.46583e-07
1225.55	3.73003e-07
1234.23	1.41384e-07
1242.9	1.43942e-07
1251.58	3.29877e-07
1260.26	1.555e-06
1268.94	6.3075e-06
1277.62	2.04385e-05
1286.3	4.61592e-05
1294.97	5.99255e-05
1303.65	1.58222e-05
1312.33	5.08172e-05
1321.01	6.89147e-05
1329.69	2.20235e-05
1338.36	6.43862e-06
1347.04	1.28048e-06
1355.72	2.48533e-06
1364.4	9.82649e-06
1373.08	3.01102e-06
1381.76	3.05194e-06
1390.43	9.7135e-06
1399.11	6.37544e-06
1407.79	6.00478e-06
1416.47	5.65481e-06
1425.15	1.66684e-05
1433.82	7.76732e-06
1442.5	6.89563e-06
1451.18	2.77298e-05
1459.86	8.65031e-06
1468.54	7.73729e-06
1477.22	6.92309e-06
1485.89	4.52551e-05
1494.57	7.7044e-06
1503.25	6.50959e-06
1511.93	4.37359e-06
1520.61	2.1939e-05
1529.28	4.71781e-06
1537.96	4.09035e-06
1546.64	1.9763e-06
1555.32	3.26275e-06
1564	2.49716e-06
1572.67	1.34971e-06
1581.35	6.96764e-07
1590.03	4.95339e-07
1598.71	5.88406e-07
1607.39	5.60778e-07
1616.07	3.49144e-07
1624.74	2.2799e-07
1633.42	2.12113e-07
1642.1	1.23479e-07
1650.78	1.02779e-07
1659.46	5.06984e-08
1668.13	6.08563e-08
1676.81	3.69663e-08
1685.49	8.90419e-08
1694.17	3.54479e-08
1702.85	1.71525e-08
1711.53	1.80382e-08
1720.2	3.62041e-08
1728.88	1.83796e-08
1737.56	2.85946e-08
1746.24	2.86011e-08
1754.92	4.66532e-08
1763.59	4.4034e-08
1772.27	6.05098e-08
1780.95	8.03271e-09
1789.63	2.57732e-08
1798.31	1.15961e-08
1806.98	1.61031e-08
1815.66	1.01851e-08
1824.34	-7.16631e-09
1833.02	2.06763e-08
1841.7	1.40842e-08
1850.38	4.06934e-08
1859.05	2.82884e-08
1867.73	-1.69098e-08
1876.41	1.38573e-07
1885.09	2.25094e-07
1893.77	4.07633e-07
1902.44	3.60132e-07
1911.12	3.50226e-07
1919.8	5.14808e-07
1928.48	3.64692e-07
1937.16	3.25694e-08
1945.84	1.83167e-08
1954.51	-7.07639e-09
1963.19	2.54617e-08
1971.87	-8.42993e-09
1980.55	1.94773e-08
1989.23	-3.18249e-08
1997.9	6.44031e-09
2006.58	2.50108e-08
2015.26	5.44545e-09
2023.94	1.13573e-08
2032.62	1.16846e-08
2041.3	8.70244e-09
2049.97	-6.76886e-10
2058.65	2.3814e-08
2067.33	-1.86081e-09
2076.01	1.27495e-08
2084.69	1.34627e-08
2093.36	2.03557e-08
2102.04	9.98209e-09
2110.72	4.44038e-08
2119.4	6.47238e-08
2128.08	3.58583e-08
2136.75	1.48625e-08
2145.43	1.30339e-08
2154.11	6.39632e-08
2162.79	8.79759e-08
2171.47	1.11756e-07
2180.15	2.24729e-07
2188.82	2.68792e-07
2197.5	3.07441e-07
2206.18	4.50423e-07
2214.86	9.24372e-07
2223.54	6.31083e-07
2232.21	7.2774e-07
2240.89	7.14049e-07
2249.57	9.80156e-07
2258.25	1.94302e-06
2266.93	1.14065e-06
2275.61	7.00444e-07
2284.28	4.57468e-07
2292.96	4.75945e-07
2301.64	4.04362e-07
2310.32	3.44133e-07
2319	4.4967e-07
2327.67	5.1825e-07
2336.35	6.03207e-07
2345.03	9.2458e-07
2353.71	7.94569e-07
2362.39	7.85915e-07
2371.06	6.58506e-07
2379.74	5.40455e-07
2388.42	5.60036e-07
2397.1	5.48371e-07
2405.78	5.74654e-07
2414.46	9.35952e-07
2423.13	1.84803e-06
2431.81	5.44034e-07
2440.49	3.14878e-07
2449.17	2.3683e-07
2457.85	2.11158e-07
2466.52	1.85807e-07
2475.2	1.65125e-07
2483.88	1.31709e-07
2492.56	1.44329e-07
2501.24	1.20987e-07
2509.92	9.00968e-08
2518.59	1.51717e-07
2527.27	2.20748e-08
2535.95	-1.22631e-08
2544.63	-9.26666e-09
2553.31	-9.84487e-09
2561.98	9.39916e-08
2570.66	3.38654e-07
2579.34	7.09336e-07
2588.02	7.77905e-07
2596.7	6.73565e-07
2605.38	1.41625e-06
2614.05	1.29982e-06
2622.73	-1.88908e-07
2631.41	-3.40124e-07
2640.09	-3.00144e-07
2648.77	-2.4934e-07
2657.44	-1.62228e-07
2666.12	3.00312e-08
2674.8	5.57675e-09
2683.48	1.32743e-08
2692.16	6.26398e-08
2700.83	3.17126e-08
2709.51	5.55349e-08
2718.19	6.01128e-08
2726.87	4.56176e-08
2735.55	6.90761e-08
2744.23	7.04672e-08
2752.9	-1.24885e-07
2761.58	6.18253e-08
2770.26	5.50496e-08
2778.94	-2.68915e-08
2787.62	1.6482e-07
2796.29	5.10532e-08
2804.97	8.74233e-08
2813.65	1.17642e-07
2822.33	3.81561e-07
2831.01	1.32168e-06
2839.69	5.75332e-06
2848.36	1.12829e-05
2857.04	5.85814e-06
2865.72	6.34309e-06
2874.4	9.99883e-06
2883.08	6.14512e-06
2891.75	2.31182e-06
2900.43	3.01422e-07
2909.11	1.50993e-07
2917.79	1.23244e-07
2926.47	7.52275e-07
2935.14	3.78907e-06
2943.82	1.71477e-05
2952.5	4.70827e-05
2961.18	6.07154e-05
2969.86	4.50163e-05
2978.54	5.89359e-05
2987.21	6.56018e-05
2995.89	3.30697e-05
3004.57	1.18412e-05
3013.25	4.29601e-06
3021.93	3.74108e-06
3030.6	3.52547e-06
3039.28	3.29683e-06
3047.96	3.882e-06
3056.64	3.68252e-06
3065.32	4.20825e-06
3074	4.47675e-06
3082.67	3.80851e-06
3091.35	4.37312e-06
3100.03	4.0863e-06
3108.71	3.09048e-06
3117.39	2.84297e-06
3126.06	2.33074e-06
3134.74	1.46766e-06
3143.42	9.43576e-07
3152.1	9.28676e-07
3160.78	5.65856e-07
3169.46	3.21421e-07
3178.13	3.24936e-07
3186.81	3.19167e-07
3195.49	1.60886e-07
3204.17	1.19207e-07
3212.85	1.32548e-07
3221.52	1.50619e-07
3230.2	2.20032e-08
3238.88	8.58534e-09
3247.56	4.48845e-08
3256.24	-3.95821e-09
3264.91	1.53485e-08
3273.59	3.32787e-08
3282.27	2.90087e-08
3290.95	4.37491e-08
3299.63	3.90937e-08
3308.31	-2.07289e-08
3316.98	3.01383e-08
3325.66	4.67764e-08
3334.34	4.65646e-08
3343.02	3.77781e-08
3351.7	4.2987e-08
3360.37	9.0618e-09
3369.05	2.02975e-09
3377.73	4.19794e-08
3386.41	6.50886e-09
3395.09	2.63242e-08
3403.77	2.97544e-08
3412.44	4.33127e-08
3421.12	2.67753e-08
3429.8	4.4191e-08
3438.48	4.76853e-08
3447.16	4.83321e-08
3455.83	8.36416e-08
3464.51	8.43195e-08
3473.19	7.98378e-08
3481.87	5.88486e-08
3490.55	5.71759e-08
3499.22	5.12391e-08
3507.9	4.85909e-08
3516.58	8.23678e-09
3525.26	3.45894e-08
3533.94	6.84572e-08
3542.62	1.02845e-07
3551.29	2.13477e-07
3559.97	4.02885e-07
3568.65	5.81755e-07
3577.33	4.40888e-07
3586.01	4.9377e-07
3594.68	6.99761e-07
3603.36	4.49061e-07
3612.04	1.56567e-07
3620.72	9.28918e-08
3629.4	1.51438e-07
3638.08	8.116e-08
3646.75	1.89104e-07
3655.43	1.88498e-07
3664.11	2.53069e-07
3672.79	3.85869e-07
3681.47	2.95289e-07
3690.14	2.58991e-07
3698.82	3.1438e-07
3707.5	1.77456e-07
3716.18	1.48899e-07
3724.86	1.76342e-07
3733.54	1.2347e-07
3742.21	8.42582e-08
3750.89	7.35168e-08
3759.57	7.04533e-08
3768.25	7.75168e-08
3776.93	4.38156e-08
3785.6	8.04455e-08
3794.28	1.06044e-07
3802.96	1.00021e-07
3811.64	1.00466e-07
3820.32	2.0406e-07
3828.99	1.40875e-07
3837.67	2.08302e-07
3846.35	1.67471e-07
3855.03	2.70459e-07
3863.71	3.07907e-07
3872.39	2.26993e-07
3881.06	3.95832e-07
3889.74	5.70549e-07
3898.42	2.45202e-07
3907.1	2.49644e-07
3915.78	2.63722e-07
3924.45	1.83829e-07
3933.13	1.59383e-07
3941.81	3.25404e-07
3950.49	2.66045e-07
3959.17	1.90849e-07
3967.85	3.33365e-07
