Infrared Spectrum: Bromomethane
Formula: C H3 Br
CAS: 74-83-9
State: gas
Melting point: -93.6 C
Boiling point: 3.56 C
Class: IUPAC A
Instrument: IFS66V (Bruker)
Instrument parameters: KBr Beam splitter; MCT Detector; Multipass cell
Sampling: 1 L/min Flow
Resolution: 0.1250
Temperature: 23 C
Pressure: 101.3 kPa
Origin: NIST, Anayltical Chemistry Division, 301-975-3108
cm-1	(micromol/mol)-1m-1 (base 10)
3975.02	9.87367e-07
3966.46	3.97386e-07
3957.9	2.66991e-07
3949.34	1.79994e-07
3940.79	5.13683e-07
3932.23	2.61391e-07
3923.67	1.04996e-07
3915.11	5.43882e-07
3906.56	1.38395e-07
3898	4.03186e-07
3889.44	5.8788e-07
3880.88	3.88787e-07
3872.33	4.17386e-07
3863.77	2.27892e-07
3855.21	8.87868e-08
3846.65	3.50688e-07
3838.09	2.9749e-07
3829.54	1.02496e-07
3820.98	2.7899e-07
3812.42	7.70473e-08
3803.86	4.85781e-08
3795.31	1.08996e-07
3786.75	9.73864e-08
3778.19	1.41395e-07
3769.63	2.64091e-07
3761.08	1.21696e-07
3752.52	-1.01296e-08
3743.96	-7.29062e-09
3735.4	1.85594e-07
3726.85	-8.04071e-08
3718.29	-1.28055e-09
3709.73	1.37495e-07
3701.17	2.03793e-07
3692.62	2.9969e-07
3684.06	7.96363e-09
3675.5	2.39792e-07
3666.94	1.87694e-07
3658.38	2.25292e-07
3649.83	7.46972e-08
3641.27	1.29195e-07
3632.71	1.10996e-07
3624.15	1.24395e-07
3615.6	1.21896e-07
3607.04	3.56688e-07
3598.48	7.09776e-07
3589.92	5.71581e-07
3581.37	3.93087e-07
3572.81	5.66081e-07
3564.25	4.82084e-07
3555.69	-4.23483e-08
3547.14	1.01396e-07
3538.58	9.30866e-08
3530.02	2.58291e-07
3521.46	-1.24196e-07
3512.91	2.64391e-07
3504.35	9.82764e-08
3495.79	-2.41892e-07
3487.23	1.57995e-07
3478.67	2.60791e-07
3470.12	1.78492e-08
3461.56	5.60679e-08
3453	1.9429e-08
3444.44	2.39492e-07
3435.89	3.24789e-07
3427.33	6.37977e-08
3418.77	1.48795e-07
3410.21	2.05793e-07
3401.66	-1.52195e-07
3393.1	-1.11196e-07
3384.54	-2.09393e-07
3375.98	7.78972e-08
3367.43	-3.45887e-08
3358.87	7.12873e-08
3350.31	-2.45691e-07
3341.75	8.2697e-08
3333.2	-6.21877e-08
3324.64	1.49295e-07
3316.08	1.73094e-07
3307.52	-2.25292e-07
3298.96	-4.51782e-08
3290.41	-2.85188e-08
3281.85	1.17996e-07
3273.29	-3.63885e-08
3264.73	-8.44868e-08
3256.18	-2.03093e-07
3247.62	-9.12968e-08
3239.06	-9.15369e-08
3230.5	-7.26272e-08
3221.95	1.50595e-07
3213.39	3.69085e-08
3204.83	2.11093e-07
3196.27	1.07696e-07
3187.72	4.11686e-07
3179.16	1.31896e-06
3170.6	1.55495e-07
3162.04	9.11169e-07
3153.48	7.26676e-07
3144.93	1.92194e-06
3136.37	2.05293e-06
3127.81	3.23289e-06
3119.25	2.61791e-06
3110.7	2.59791e-06
3102.14	3.30989e-06
3093.58	4.92284e-06
3085.02	3.20389e-06
3076.47	5.03983e-06
3067.91	3.1039e-06
3059.35	4.65484e-06
3050.79	4.94984e-06
3042.24	7.52475e-06
3033.68	4.69584e-05
3025.12	4.74184e-06
3016.56	3.42489e-06
3008.01	7.99473e-06
2999.45	1.97593e-05
2990.89	4.89584e-05
2982.33	6.0908e-05
2973.77	3.22589e-05
2965.22	3.89687e-05
2956.66	6.29479e-05
2948.1	3.12689e-05
2939.54	7.43175e-06
2930.99	1.65294e-06
2922.43	3.02486e-08
2913.87	6.15477e-08
2905.31	1.01596e-07
2896.76	9.56868e-07
2888.2	3.72287e-06
2879.64	9.89867e-06
2871.08	1.02197e-05
2862.53	2.9549e-06
2853.97	1.05396e-05
2845.41	1.04497e-05
2836.85	2.9519e-06
2828.3	5.50681e-07
2819.74	2.68691e-07
2811.18	3.32289e-07
2802.62	-4.54185e-07
2794.06	3.25887e-08
2785.51	8.85668e-08
2776.95	-1.67592e-08
2768.39	-6.84074e-08
2759.83	1.01496e-07
2751.28	2.51191e-07
2742.72	2.3099e-08
2734.16	-7.20149e-09
2725.6	1.01396e-07
2717.05	3.24487e-08
2708.49	-2.4719e-08
2699.93	1.66394e-07
2691.37	6.88574e-08
2682.82	1.1107e-09
2674.26	1.48895e-07
2665.7	1.52295e-07
2657.14	-6.86873e-08
2648.59	-2.04293e-07
2640.03	-1.99693e-07
2631.47	-3.27489e-07
2622.91	-1.95993e-07
2614.35	1.23796e-06
2605.8	1.44295e-06
2597.24	1.21996e-06
2588.68	8.46872e-07
2580.12	6.50378e-07
2571.57	7.29273e-08
2563.01	1.27696e-07
2554.45	-8.2767e-08
2545.89	4.77382e-08
2537.34	-3.26888e-08
2528.78	-1.00896e-07
2520.22	8.89269e-08
2511.66	1.43695e-07
2503.11	1.79994e-07
2494.55	2.47892e-07
2485.99	2.42692e-07
2477.43	2.34192e-07
2468.87	2.30092e-07
2460.32	2.13893e-07
2451.76	1.68494e-07
2443.2	3.0929e-07
2434.64	2.72691e-07
2426.09	5.79081e-07
2417.53	3.19689e-07
2408.97	5.29682e-07
2400.41	5.63781e-07
2391.86	4.07886e-07
2383.3	4.95583e-07
2374.74	3.0959e-06
2366.18	3.25089e-07
2357.63	7.00277e-07
2349.07	2.8089e-07
2340.51	4.04286e-07
2331.95	2.19392e-07
2323.4	4.02186e-07
2314.84	7.24576e-07
2306.28	8.61071e-07
2297.72	6.79777e-07
2289.16	7.12576e-07
2280.61	1.12796e-06
2272.05	8.14672e-07
2263.49	7.19376e-07
2254.93	8.32772e-07
2246.38	6.61478e-07
2237.82	4.22786e-07
2229.26	1.35995e-06
2220.7	7.10276e-07
2212.15	8.19972e-07
2203.59	4.57385e-07
2195.03	4.70884e-07
2186.47	2.29192e-07
2177.92	8.85367e-08
2169.36	1.76294e-07
2160.8	1.76091e-08
2152.24	6.47377e-08
2143.69	8.31369e-08
2135.13	1.70991e-08
2126.57	-9.50657e-09
2118.01	1.25596e-07
2109.45	3.67387e-08
2100.9	-5.52977e-08
2092.34	-2.03592e-08
2083.78	5.23481e-08
2075.22	4.53783e-08
2066.67	-5.70878e-08
2058.11	7.92173e-08
2049.55	5.44078e-08
2040.99	2.19292e-08
2032.44	6.12762e-09
2023.88	6.28564e-09
2015.32	-4.11983e-08
2006.76	7.98371e-08
1998.21	-2.0479e-08
1989.65	-3.11388e-08
1981.09	7.31222e-10
1972.53	-5.35681e-08
1963.97	4.15282e-08
1955.42	6.69577e-08
1946.86	-4.12449e-09
1938.3	3.5015e-09
1929.74	3.91487e-07
1921.19	7.12276e-07
1912.63	4.28886e-07
1904.07	4.87883e-07
1895.51	4.45185e-07
1886.96	2.34992e-07
1878.4	3.0919e-07
1869.84	-2.0499e-08
1861.28	1.03496e-07
1852.73	9.62639e-09
1844.17	1.88094e-07
1835.61	9.73848e-09
1827.05	1.61492e-08
1818.5	9.50766e-08
1809.94	1.00796e-07
1801.38	8.46248e-09
1792.82	5.73577e-08
1784.26	5.51679e-08
1775.71	-3.03766e-09
1767.15	2.72587e-08
1758.59	6.19676e-08
1750.03	-7.78572e-08
1741.48	2.49991e-08
1732.92	5.28481e-08
1724.36	1.49391e-08
1715.8	3.75085e-08
1707.25	3.80754e-09
1698.69	2.49591e-08
1690.13	7.54873e-08
1681.57	9.44368e-08
1673.02	1.05596e-07
1664.46	-4.73282e-08
1655.9	2.61889e-08
1647.34	1.76294e-07
1638.79	1.61894e-07
1630.23	2.14093e-07
1621.67	3.96486e-07
1613.11	3.36589e-07
1604.55	4.07586e-07
1596	5.8288e-07
1587.44	8.9047e-07
1578.88	9.0177e-07
1570.32	1.01097e-06
1561.77	3.41389e-06
1553.21	2.47592e-06
1544.65	3.0659e-06
1536.09	2.71691e-06
1527.54	7.40475e-06
1518.98	3.23189e-06
1510.42	7.02076e-06
1501.86	8.08573e-06
1493.31	5.41982e-06
1484.75	5.00783e-06
1476.19	5.76381e-06
1467.63	6.95277e-06
1459.08	1.32996e-05
1450.52	1.76394e-05
1441.96	7.21776e-06
1433.4	6.31079e-06
1424.84	5.50182e-06
1416.29	5.9938e-06
1407.73	4.94683e-06
1399.17	7.30876e-06
1390.61	7.14776e-06
1382.06	2.37392e-06
1373.5	2.83491e-06
1364.94	7.98473e-06
1356.38	2.18593e-06
1347.83	1.74894e-06
1339.27	8.60771e-06
1330.71	1.92494e-05
1322.15	7.05876e-05
1313.6	5.03483e-05
1305.04	1.81294e-05
1296.48	4.71284e-05
1287.92	5.39982e-05
1279.36	1.94994e-05
1270.81	1.27096e-05
1262.25	2.63891e-06
1253.69	5.09483e-07
1245.13	2.47091e-07
1236.58	2.7629e-07
1228.02	1.94893e-07
1219.46	6.49378e-08
1210.9	1.46995e-07
1202.35	2.66191e-07
1193.79	1.21596e-07
1185.23	2.63391e-07
1176.67	-7.81744e-09
1168.12	4.56182e-08
1159.56	-4.61266e-09
1151	1.30995e-07
1142.44	7.80673e-08
1133.89	9.27667e-08
1125.33	-1.16696e-07
1116.77	6.44276e-08
1108.21	3.73385e-08
1099.65	-1.51295e-07
1091.1	7.55573e-08
1082.54	7.53873e-08
1073.98	2.9819e-07
1065.42	2.04193e-07
1056.87	6.25879e-07
1048.31	1.31896e-06
1039.75	1.92294e-06
1031.19	1.63695e-06
1022.64	1.93494e-06
1014.08	2.9649e-06
1005.52	2.77291e-06
996.963	6.16679e-06
988.406	5.18683e-06
979.848	5.63281e-05
971.29	1.70494e-05
962.733	9.75968e-06
954.175	6.19579e-06
945.618	9.52568e-06
937.06	4.72384e-06
928.502	5.39182e-06
919.945	1.12196e-05
911.387	4.42985e-06
902.829	2.74691e-06
894.272	2.67591e-06
885.714	3.34489e-06
877.157	7.87273e-07
868.599	6.67077e-07
860.041	3.62288e-07
851.484	2.55591e-07
842.926	-4.41257e-09
834.368	3.1039e-07
825.811	1.81694e-07
817.253	2.31492e-07
808.696	3.49988e-07
800.138	-8.96167e-08
791.58	5.89677e-08
783.023	-5.55679e-08
774.465	5.70978e-08
765.907	1.73894e-07
757.35	-1.10996e-07
748.792	-3.26788e-08
740.235	2.12893e-07
731.677	3.70987e-07
723.119	-2.47791e-07
714.562	1.84092e-08
706.004	-3.50988e-07
697.446	2.01493e-07
688.889	-1.01096e-07
680.331	1.21096e-07
671.774	1.38295e-07
663.216	-1.43895e-07
654.658	-1.35895e-07
646.101	1.90293e-07
637.543	4.32886e-06
628.985	3.62988e-05
620.428	5.21983e-05
611.87	1.30996e-05
603.313	3.83587e-05
594.755	4.04787e-05
586.197	1.60595e-05
577.64	1.21696e-05
