Infrared Spectrum: Bromomethane
Formula: C H3 Br
CAS: 74-83-9
State: gas
Melting point: -93.6 C
Boiling point: 3.56 C
Class: IUPAC A
Instrument: IFS66V (Bruker)
Instrument parameters: KBr Beam splitter; MCT Detector; Multipass cell
Sampling: 1 L/min Flow
Resolution: 0.1250
Temperature: 23 C
Pressure: 101.3 kPa
Origin: NIST, Anayltical Chemistry Division, 301-975-3108
cm-1	(micromol/mol)-1m-1 (base 10)
574.988	1.02586e-05
583.546	1.75705e-05
592.103	3.74509e-05
600.661	3.33135e-05
609.219	4.936e-05
617.776	5.58742e-05
626.334	4.30333e-05
634.891	9.42633e-06
643.449	6.00916e-08
652.007	9.9659e-08
660.564	-5.52686e-08
669.122	1.7417e-07
677.68	1.35834e-07
686.237	1.17868e-07
694.795	-1.8678e-07
703.352	6.53448e-08
711.91	8.89044e-08
720.468	1.26677e-07
729.025	6.47413e-09
737.583	2.0151e-07
746.141	1.45467e-07
754.698	-5.63568e-08
763.256	-1.00593e-07
771.813	8.61464e-08
780.371	9.02877e-08
788.929	-5.33551e-08
797.486	6.77881e-09
806.044	2.95576e-08
814.602	9.84649e-09
823.159	2.64818e-08
831.717	1.07637e-09
840.274	1.30925e-07
848.832	7.87951e-08
857.39	4.36932e-07
865.947	5.37072e-07
874.505	5.87282e-07
883.063	2.17824e-06
891.62	4.34491e-06
900.178	3.06724e-06
908.735	5.10081e-06
917.293	4.75361e-06
925.851	5.56207e-06
934.408	2.78958e-05
942.966	7.18708e-06
951.524	6.93895e-06
960.081	7.51726e-06
968.639	8.31845e-06
977.196	7.05352e-06
985.754	1.02633e-05
994.312	1.02175e-05
1002.87	2.74325e-05
1011.43	4.89158e-06
1019.98	2.35697e-06
1028.54	1.87713e-06
1037.1	1.26523e-06
1045.66	8.95415e-07
1054.22	3.89869e-07
1062.77	3.77753e-07
1071.33	3.8479e-07
1079.89	9.0863e-08
1088.45	1.909e-07
1097	7.2084e-08
1105.56	-6.47868e-08
1114.12	1.01044e-07
1122.68	1.51989e-07
1131.23	-1.08887e-08
1139.79	6.63179e-08
1148.35	-1.43398e-08
1156.91	7.80752e-08
1165.46	2.98964e-08
1174.02	4.96644e-08
1182.58	1.73522e-07
1191.14	7.84254e-08
1199.69	1.95254e-07
1208.25	2.34281e-07
1216.81	1.03907e-07
1225.37	4.22306e-07
1233.93	1.18482e-07
1242.48	2.18661e-07
1251.04	3.56235e-07
1259.6	1.5121e-06
1268.16	5.05843e-06
1276.71	1.9544e-05
1285.27	4.09648e-05
1293.83	7.94031e-05
1302.39	2.11795e-05
1310.94	4.6032e-05
1319.5	8.40414e-05
1328.06	2.88224e-05
1336.62	3.83128e-06
1345.17	2.36471e-06
1353.73	3.35782e-06
1362.29	2.48174e-06
1370.85	2.28027e-06
1379.4	4.46429e-06
1387.96	4.41987e-06
1396.52	3.73304e-06
1405.08	4.05016e-06
1413.64	9.73725e-05
1422.19	5.94937e-06
1430.75	6.60238e-06
1439.31	1.11261e-05
1447.87	6.34478e-06
1456.42	6.96062e-06
1464.98	5.52357e-06
1473.54	7.87554e-06
1482.1	6.26635e-06
1490.65	5.00561e-06
1499.21	5.92518e-06
1507.77	8.43542e-06
1516.33	1.13554e-05
1524.88	5.15632e-06
1533.44	4.2389e-06
1542	3.66021e-06
1550.56	1.91537e-06
1559.11	1.30587e-06
1567.67	1.30478e-06
1576.23	1.16001e-06
1584.79	1.18113e-06
1593.35	3.28067e-07
1601.9	6.16126e-07
1610.46	4.57459e-07
1619.02	2.75411e-07
1627.58	1.19318e-07
1636.13	5.82558e-08
1644.69	8.388e-08
1653.25	3.02846e-07
1661.81	2.93207e-08
1670.36	-7.72512e-09
1678.92	1.90336e-08
1687.48	3.28923e-08
1696.04	1.85426e-07
1704.59	7.14628e-08
1713.15	4.53881e-08
1721.71	4.87818e-08
1730.27	7.53504e-08
1738.83	-8.11202e-08
1747.38	4.15132e-09
1755.94	8.61459e-08
1764.5	1.06541e-08
1773.06	3.19141e-08
1781.61	6.02985e-09
1790.17	4.48524e-08
1798.73	1.07623e-08
1807.29	5.18454e-08
1815.84	1.38746e-08
1824.4	-4.36941e-08
1832.96	2.48934e-08
1841.52	3.39673e-08
1850.07	4.32076e-08
1858.63	5.98479e-08
1867.19	1.2288e-08
1875.75	7.27498e-08
1884.3	1.67417e-07
1892.86	5.04333e-07
1901.42	3.57265e-07
1909.98	2.38551e-07
1918.54	3.92196e-07
1927.09	4.18348e-07
1935.65	6.40042e-08
1944.21	-7.32968e-08
1952.77	-1.0389e-08
1961.32	3.15803e-08
1969.88	8.90426e-09
1978.44	-1.21625e-08
1987	-4.78341e-09
1995.55	1.16745e-08
2004.11	-2.12786e-08
2012.67	-4.33003e-09
2021.23	-2.2496e-08
2029.78	-1.84393e-08
2038.34	3.03766e-10
2046.9	1.2238e-08
2055.46	9.74967e-08
2064.01	-2.89742e-08
2072.57	-6.95525e-09
2081.13	1.17723e-08
2089.69	4.29607e-08
2098.25	2.40971e-08
2106.8	-2.94858e-08
2115.36	6.96666e-08
2123.92	5.23724e-09
2132.48	2.50644e-08
2141.03	5.6968e-08
2149.59	-1.2464e-08
2158.15	1.0738e-07
2166.71	4.42608e-08
2175.26	9.38151e-08
2183.82	1.23013e-07
2192.38	3.30928e-07
2200.94	3.39637e-07
2209.49	6.41021e-07
2218.05	4.17923e-07
2226.61	5.75478e-07
2235.17	1.31642e-06
2243.72	1.23741e-06
2252.28	7.60318e-07
2260.84	6.2694e-07
2269.4	6.5734e-07
2277.96	6.47686e-07
2286.51	7.78325e-07
2295.07	7.87026e-07
2303.63	6.48863e-07
2312.19	4.07633e-07
2320.74	4.83367e-07
2329.3	3.9957e-07
2337.86	5.25589e-07
2346.42	2.91535e-07
2354.97	1.87486e-06
2363.53	5.84211e-07
2372.09	5.09679e-07
2380.65	6.16108e-07
2389.2	4.7175e-07
2397.76	6.14866e-07
2406.32	5.19003e-07
2414.88	3.74493e-07
2423.44	6.68068e-06
2431.99	3.37619e-07
2440.55	2.74218e-07
2449.11	2.83374e-07
2457.67	1.94344e-07
2466.22	1.55378e-07
2474.78	2.30007e-07
2483.34	9.07711e-08
2491.9	1.04009e-07
2500.45	1.00977e-07
2509.01	9.82957e-08
2517.57	2.04911e-07
2526.13	4.05969e-08
2534.68	-5.30045e-08
2543.24	-6.97821e-08
2551.8	1.47936e-08
2560.36	1.28366e-07
2568.91	3.15457e-07
2577.47	4.41545e-07
2586.03	7.21346e-07
2594.59	-1.22066e-08
2603.15	8.85608e-07
2611.7	1.17708e-06
2620.26	-4.47828e-09
2628.82	-2.69613e-07
2637.38	-3.47085e-07
2645.93	-2.94711e-07
2654.49	-1.09264e-07
2663.05	-4.79587e-08
2671.61	8.56648e-08
2680.16	2.91943e-08
2688.72	1.19233e-07
2697.28	3.76798e-09
2705.84	3.59845e-08
2714.39	9.80951e-08
2722.95	7.46415e-08
2731.51	-5.30295e-08
2740.07	2.21546e-07
2748.62	-1.74884e-08
2757.18	1.02447e-07
2765.74	4.36105e-08
2774.3	1.45101e-07
2782.86	1.12533e-07
2791.41	9.60552e-08
2799.97	1.85044e-07
2808.53	1.54982e-07
2817.09	2.0545e-07
2825.64	3.60625e-07
2834.2	2.37118e-06
2842.76	7.46507e-06
2851.32	7.93498e-06
2859.87	7.31048e-06
2868.43	9.32459e-06
2876.99	9.33213e-06
2885.55	5.84037e-06
2894.1	1.83502e-06
2902.66	3.93683e-07
2911.22	2.84801e-07
2919.78	1.91235e-07
2928.34	1.05946e-06
2936.89	5.22104e-06
2945.45	2.19899e-05
2954.01	5.98386e-05
2962.57	5.26702e-05
2971.12	2.32369e-05
2979.68	6.08496e-05
2988.24	6.82487e-05
2996.8	3.54029e-05
3005.35	1.09708e-05
3013.91	4.56538e-06
3022.47	3.5554e-06
3031.03	3.45856e-06
3039.58	3.44145e-06
3048.14	3.98233e-06
3056.7	4.43522e-06
3065.26	2.93528e-06
3073.81	4.91793e-06
3082.37	3.93748e-06
3090.93	4.87653e-06
3099.49	3.63533e-06
3108.05	2.49557e-06
3116.6	2.4169e-06
3125.16	2.68987e-06
3133.72	1.86131e-06
3142.28	1.19491e-06
3150.83	6.24315e-07
3159.39	6.13414e-07
3167.95	2.90507e-07
3176.51	5.03188e-07
3185.06	2.90763e-07
3193.62	1.45765e-07
3202.18	7.96341e-08
3210.74	7.73649e-08
3219.29	2.05596e-07
3227.85	1.0204e-07
3236.41	1.36058e-09
3244.97	3.51837e-08
3253.52	5.92326e-08
3262.08	1.32438e-07
3270.64	-6.90377e-08
3279.2	4.51252e-08
3287.76	2.7208e-08
3296.31	1.03004e-07
3304.87	2.03314e-08
3313.43	5.43842e-08
3321.99	8.52919e-08
3330.54	1.13137e-07
3339.1	4.8865e-08
3347.66	-9.37174e-08
3356.22	1.54311e-07
3364.77	1.07888e-07
3373.33	3.93987e-08
3381.89	1.12474e-07
3390.45	1.5563e-08
3399	-1.13289e-07
3407.56	1.44308e-07
3416.12	-8.21665e-08
3424.68	2.51905e-07
3433.23	1.19195e-07
3441.79	9.46787e-08
3450.35	2.17891e-07
3458.91	8.0398e-08
3467.47	2.0506e-08
3476.02	-6.00662e-08
3484.58	-1.08639e-07
3493.14	2.08312e-08
3501.7	-7.59002e-08
3510.25	-5.90794e-08
3518.81	7.66583e-08
3527.37	4.3314e-09
3535.93	6.83411e-08
3544.48	1.55958e-07
3553.04	1.88669e-07
3561.6	4.72396e-07
3570.16	5.48845e-07
3578.71	4.28707e-07
3587.27	5.67656e-07
3595.83	6.96141e-07
3604.39	3.93916e-07
3612.95	3.22778e-07
3621.5	-3.40464e-08
3630.06	1.33354e-07
3638.62	4.41507e-08
3647.18	1.66229e-07
3655.73	2.78054e-07
3664.29	2.71582e-07
3672.85	4.10635e-07
3681.41	3.37773e-07
3689.96	2.92622e-07
3698.52	3.44105e-07
3707.08	1.15518e-07
3715.64	2.62885e-07
3724.19	2.40007e-07
3732.75	7.42454e-08
3741.31	7.84022e-08
3749.87	1.56086e-07
3758.42	2.83667e-08
3766.98	1.93798e-07
3775.54	9.58747e-08
3784.1	7.47565e-08
3792.66	1.32244e-07
3801.21	1.78884e-07
3809.77	2.49139e-07
3818.33	1.33199e-07
3826.89	2.80331e-07
3835.44	1.21764e-07
3844	1.33671e-07
3852.56	1.19526e-07
3861.12	2.63805e-07
3869.67	3.48231e-07
3878.23	2.68111e-07
3886.79	7.65529e-07
3895.35	1.29283e-07
3903.9	2.04478e-07
3912.46	1.04263e-07
3921.02	2.9242e-07
3929.58	4.73041e-07
3938.13	3.45875e-07
3946.69	2.37234e-07
3955.25	5.18122e-08
3963.81	3.31856e-07
3972.37	6.43283e-07
