Infrared Spectrum: Bromomethane
Formula: C H3 Br
CAS: 74-83-9
State: gas
Melting point: -93.6 C
Boiling point: 3.56 C
Class: IUPAC A
Instrument: IFS66V (Bruker)
Instrument parameters: KBr Beam splitter; MCT Detector; Multipass cell
Sampling: 1 L/min Flow
Resolution: 0.9640
Temperature: 23 C
Pressure: 101.3 kPa
Origin: NIST, Anayltical Chemistry Division, 301-975-3108
cm-1	(micromol/mol)-1m-1 (base 10)
575.169	6.73846e-06
583.847	1.85536e-05
592.525	3.51369e-05
601.203	3.66219e-05
609.882	4.73844e-05
618.56	4.59574e-05
627.238	4.01088e-05
635.916	7.92155e-06
644.594	3.35897e-07
653.272	1.35381e-07
661.951	1.27606e-07
670.629	1.79591e-08
679.307	5.75507e-08
687.985	8.76778e-08
696.663	7.83061e-08
705.341	3.5468e-08
714.019	5.70249e-08
722.698	3.53773e-08
731.376	5.03977e-08
740.054	5.45708e-08
748.732	4.80111e-08
757.41	6.33159e-08
766.088	5.53778e-08
774.767	6.01967e-08
783.445	5.04145e-08
792.123	8.18672e-08
800.801	8.61253e-08
809.479	3.69161e-08
818.157	-2.58804e-08
826.835	6.73596e-08
835.514	4.11442e-08
844.192	1.22737e-07
852.87	2.12108e-07
861.548	3.96274e-07
870.226	8.13202e-07
878.904	1.66471e-06
887.583	1.67157e-06
896.261	2.31236e-06
904.939	4.66657e-06
913.617	1.3745e-05
922.295	5.40772e-06
930.973	7.39434e-06
939.651	6.85816e-06
948.33	1.22922e-05
957.008	5.01854e-05
965.686	8.69627e-06
974.364	7.22238e-06
983.042	7.35448e-06
991.72	7.20168e-06
1000.4	6.41271e-06
1009.08	5.96441e-06
1017.75	5.64582e-06
1026.43	6.9516e-06
1035.11	2.28008e-06
1043.79	1.25146e-06
1052.47	6.93972e-07
1061.15	5.41827e-07
1069.82	2.77755e-07
1078.5	1.42492e-07
1087.18	1.47472e-07
1095.86	6.81718e-08
1104.54	4.87933e-08
1113.21	4.56889e-08
1121.89	4.49009e-08
1130.57	3.73067e-08
1139.25	2.52194e-08
1147.93	3.08974e-08
1156.61	8.30442e-08
1165.28	6.88115e-08
1173.96	8.71266e-08
1182.64	1.44989e-07
1191.32	1.55029e-07
1200	2.41903e-07
1208.67	2.34928e-07
1217.35	1.69805e-07
1226.03	4.17419e-07
1234.71	1.74404e-07
1243.39	1.86608e-07
1252.07	4.21256e-07
1260.74	1.78668e-06
1269.42	6.9319e-06
1278.1	2.16867e-05
1286.78	4.72897e-05
1295.46	5.87936e-05
1304.13	1.55646e-05
1312.81	5.42141e-05
1321.49	6.62388e-05
1330.17	1.99724e-05
1338.85	8.66432e-06
1347.52	1.42323e-06
1356.2	2.62126e-06
1364.88	8.00477e-06
1373.56	2.92683e-06
1382.24	3.35023e-06
1390.92	6.06411e-06
1399.59	6.29641e-06
1408.27	6.2552e-06
1416.95	5.45739e-06
1425.63	2.48783e-05
1434.31	7.69973e-06
1442.98	7.19306e-06
1451.66	1.09781e-05
1460.34	8.32063e-06
1469.02	7.781e-06
1477.7	7.3094e-06
1486.38	5.31027e-05
1495.05	7.3674e-06
1503.73	6.57944e-06
1512.41	4.54835e-06
1521.09	2.09262e-05
1529.77	4.7054e-06
1538.44	4.23372e-06
1547.12	1.99827e-06
1555.8	1.84274e-06
1564.48	2.51443e-06
1573.16	1.35718e-06
1581.83	6.58183e-07
1590.51	5.14228e-07
1599.19	5.81079e-07
1607.87	5.85667e-07
1616.55	3.88259e-07
1625.23	2.43044e-07
1633.9	1.96911e-07
1642.58	1.31929e-07
1651.26	8.56485e-08
1659.94	4.18752e-08
1668.62	5.81043e-08
1677.29	4.96987e-08
1685.97	6.25276e-08
1694.65	4.34299e-08
1703.33	1.5516e-08
1712.01	2.75862e-08
1720.69	2.43446e-08
1729.36	3.45818e-08
1738.04	3.39731e-08
1746.72	4.44886e-08
1755.4	3.87101e-08
1764.08	4.11914e-08
1772.75	7.69837e-08
1781.43	2.73995e-09
1790.11	3.6988e-08
1798.79	2.18522e-08
1807.47	1.44202e-08
1816.15	5.9327e-09
1824.82	-1.28015e-08
1833.5	7.50816e-09
1842.18	2.23922e-08
1850.86	3.43157e-08
1859.54	2.08028e-08
1868.21	-1.68917e-08
1876.89	1.57861e-07
1885.57	2.5945e-07
1894.25	3.86237e-07
1902.93	3.5312e-07
1911.6	4.09638e-07
1920.28	5.57833e-07
1928.96	3.3506e-07
1937.64	4.17413e-08
1946.32	1.00662e-08
1955	-8.82351e-09
1963.67	1.88236e-08
1972.35	-3.0052e-08
1981.03	6.73555e-09
1989.71	-2.938e-08
1998.39	4.81278e-09
2007.06	3.86586e-08
2015.74	1.66212e-08
2024.42	7.38197e-09
2033.1	3.11524e-08
2041.78	1.00322e-08
2050.46	7.46053e-09
2059.13	2.95075e-08
2067.81	8.72654e-09
2076.49	1.01358e-08
2085.17	1.23305e-08
2093.85	1.48597e-08
2102.52	1.23749e-08
2111.2	7.46429e-08
2119.88	8.8947e-08
2128.56	7.83399e-09
2137.24	2.09581e-08
2145.91	2.82711e-08
2154.59	1.03877e-07
2163.27	6.20549e-08
2171.95	1.06084e-07
2180.63	1.91931e-07
2189.31	2.59537e-07
2197.98	2.85395e-07
2206.66	4.86428e-07
2215.34	9.79097e-07
2224.02	5.87309e-07
2232.7	7.93622e-07
2241.37	7.65482e-07
2250.05	1.08045e-06
2258.73	2.17917e-06
2267.41	8.69778e-07
2276.09	5.50033e-07
2284.77	4.98479e-07
2293.44	5.01319e-07
2302.12	4.33678e-07
2310.8	3.61945e-07
2319.48	4.93409e-07
2328.16	5.14584e-07
2336.83	3.5089e-07
2345.51	7.96732e-07
2354.19	9.69873e-07
2362.87	9.1507e-07
2371.55	7.00048e-07
2380.23	5.74367e-07
2388.9	5.10229e-07
2397.58	5.76506e-07
2406.26	5.6753e-07
2414.94	4.25596e-07
2423.62	2.54211e-06
2432.29	5.52996e-07
2440.97	3.46988e-07
2449.65	2.47698e-07
2458.33	2.29066e-07
2467.01	2.01953e-07
2475.68	1.46637e-07
2484.36	1.38548e-07
2493.04	1.3911e-07
2501.72	1.18412e-07
2510.4	1.05481e-07
2519.08	1.58211e-07
2527.75	3.12997e-08
2536.43	-2.38169e-08
2545.11	-8.43277e-09
2553.79	1.8418e-08
2562.47	8.24033e-08
2571.14	3.4944e-07
2579.82	7.27603e-07
2588.5	7.57086e-07
2597.18	9.82291e-07
2605.86	1.515e-06
2614.54	1.25224e-06
2623.21	-2.04411e-07
2631.89	-3.37074e-07
2640.57	-2.95773e-07
2649.25	-2.37051e-07
2657.93	-1.56429e-07
2666.6	5.02934e-08
2675.28	6.75102e-09
2683.96	1.05535e-09
2692.64	5.64707e-08
2701.32	3.69337e-08
2709.99	8.11477e-08
2718.67	6.54534e-08
2727.35	4.2394e-08
2736.03	7.16214e-08
2744.71	8.24994e-08
2753.39	-1.29323e-07
2762.06	7.95875e-08
2770.74	5.99266e-08
2779.42	4.14439e-08
2788.1	1.24305e-07
2796.78	8.28417e-08
2805.45	8.88658e-08
2814.13	1.83763e-07
2822.81	4.32171e-07
2831.49	1.47459e-06
2840.17	6.12695e-06
2848.85	1.13836e-05
2857.52	5.85777e-06
2866.2	6.9075e-06
2874.88	9.75388e-06
2883.56	5.89591e-06
2892.24	2.18823e-06
2900.91	6.78447e-07
2909.59	1.7446e-07
2918.27	2.31807e-07
2926.95	9.36839e-07
2935.63	4.37371e-06
2944.31	1.84908e-05
2952.98	4.83769e-05
2961.66	5.95848e-05
2970.34	4.31533e-05
2979.02	5.97365e-05
2987.7	6.40469e-05
2996.37	3.34786e-05
3005.05	1.09638e-05
3013.73	4.75748e-06
3022.41	3.94393e-06
3031.09	4.13213e-06
3039.76	3.55787e-06
3048.44	4.27014e-06
3057.12	3.99201e-06
3065.8	4.27243e-06
3074.48	4.44213e-06
3083.16	3.7851e-06
3091.83	4.41745e-06
3100.51	4.08073e-06
3109.19	3.28962e-06
3117.87	3.37026e-06
3126.55	2.47456e-06
3135.22	1.49123e-06
3143.9	9.78463e-07
3152.58	9.9027e-07
3161.26	5.32504e-07
3169.94	3.33336e-07
3178.62	3.51366e-07
3187.29	3.62572e-07
3195.97	1.74661e-07
3204.65	1.37597e-07
3213.33	1.29811e-07
3222.01	1.19163e-07
3230.68	8.56533e-09
3239.36	2.49329e-08
3248.04	4.70026e-08
3256.72	-2.19607e-09
3265.4	-1.13309e-08
3274.07	3.39795e-08
3282.75	3.28426e-08
3291.43	6.45812e-08
3300.11	6.83938e-08
3308.79	1.03095e-08
3317.47	4.36364e-08
3326.14	6.67844e-08
3334.82	5.27015e-08
3343.5	4.49583e-08
3352.18	3.38392e-08
3360.86	2.34737e-08
3369.53	3.98282e-08
3378.21	5.70701e-08
3386.89	4.10702e-08
3395.57	-1.32035e-08
3404.25	1.10073e-08
3412.93	3.14283e-08
3421.6	3.15586e-08
3430.28	6.38159e-08
3438.96	2.37847e-08
3447.64	5.87985e-08
3456.32	5.94053e-08
3464.99	5.80574e-08
3473.67	8.87556e-08
3482.35	8.46624e-08
3491.03	6.45349e-08
3499.71	7.39994e-08
3508.39	7.20653e-08
3517.06	1.84333e-08
3525.74	5.24947e-08
3534.42	4.41988e-08
3543.1	1.17263e-07
3551.78	2.04017e-07
3560.45	4.29023e-07
3569.13	5.64199e-07
3577.81	4.595e-07
3586.49	5.05327e-07
3595.17	6.82774e-07
3603.84	4.60479e-07
3612.52	1.48428e-07
3621.2	1.01565e-07
3629.88	1.57642e-07
3638.56	7.03767e-08
3647.24	1.60755e-07
3655.91	1.90201e-07
3664.59	2.52571e-07
3673.27	3.5716e-07
3681.95	2.90676e-07
3690.63	2.71868e-07
3699.3	3.0349e-07
3707.98	1.40492e-07
3716.66	1.55778e-07
3725.34	1.69139e-07
3734.02	1.25402e-07
3742.7	7.24307e-08
3751.37	7.46742e-08
3760.05	6.98088e-08
3768.73	6.13139e-08
3777.41	3.18107e-08
3786.09	9.11932e-08
3794.76	1.08672e-07
3803.44	1.03714e-07
3812.12	1.14563e-07
3820.8	2.32929e-07
3829.48	1.35985e-07
3838.16	2.54526e-07
3846.83	1.98677e-07
3855.51	2.48399e-07
3864.19	2.85875e-07
3872.87	1.91466e-07
3881.55	3.85274e-07
3890.22	5.14609e-07
3898.9	2.58356e-07
3907.58	2.08654e-07
3916.26	1.83686e-07
3924.94	2.11795e-07
3933.61	1.77643e-07
3942.29	3.6002e-07
3950.97	2.92848e-07
3959.65	1.81966e-07
3968.33	3.82984e-07
