Infrared Spectrum: Ethene
Formula: C H2: C H2
CAS: 74-85-1
State: gas
Melting point: -169.15 C
Boiling point: -103.71 C
Class: IUPAC A
Instrument: IFS66V (Bruker)
Instrument parameters: KBr Beam splitter; MCT Detector; Multipass cell
Sampling: 1 L/min Flow
Resolution: 0.1250
Temperature: 23 C
Pressure: 101.3 kPa
Origin: NIST, Anayltical Chemistry Division, 301-975-3108
cm-1	(micromol/mol)-1m-1 (base 10)
574.988	-2.16069e-07
583.546	1.14143e-07
592.103	-3.91941e-07
600.661	-2.98049e-07
609.219	-5.59254e-07
617.776	-7.62753e-08
626.334	-4.26518e-07
634.891	-1.1289e-07
643.449	-1.67901e-07
652.007	-3.30465e-07
660.564	-1.66977e-07
669.122	4.76027e-08
677.68	3.72392e-07
686.237	7.29393e-08
694.795	-1.68856e-08
703.352	7.50542e-07
711.91	1.19609e-06
720.468	5.04181e-07
729.025	1.52515e-06
737.583	1.01609e-06
746.141	4.6089e-07
754.698	1.85218e-06
763.256	2.90051e-07
771.813	1.8156e-07
780.371	9.08544e-08
788.929	1.98842e-07
797.486	4.18731e-07
806.044	5.27239e-07
814.602	5.4284e-07
823.159	9.29974e-07
831.717	1.42558e-06
840.274	8.89394e-06
848.832	1.0215e-05
857.39	3.12456e-05
865.947	4.30584e-05
874.505	3.2411e-05
883.063	3.86671e-05
891.62	5.19701e-05
900.178	3.292e-05
908.735	0.000230084
917.293	3.40776e-05
925.851	5.48828e-05
934.408	7.51013e-05
942.966	8.07072e-05
951.524	0.000281037
960.081	5.89165e-05
968.639	5.17437e-05
977.196	0.000121304
985.754	6.50877e-05
994.312	6.20446e-05
1002.87	4.62403e-05
1011.43	0.000133336
1019.98	9.19327e-05
1028.54	2.60639e-05
1037.1	4.15281e-05
1045.66	2.66305e-05
1054.22	5.4569e-06
1062.77	8.73374e-06
1071.33	4.21824e-06
1079.89	3.95227e-06
1088.45	1.77453e-06
1097	8.75735e-06
1105.56	6.5996e-06
1114.12	1.16115e-06
1122.68	3.4502e-07
1131.23	5.90299e-07
1139.79	2.07158e-07
1148.35	7.75686e-08
1156.91	-1.9468e-07
1165.46	7.3736e-08
1174.02	-2.61302e-07
1182.58	-2.29935e-07
1191.14	-2.315e-07
1199.69	-2.21221e-07
1208.25	-2.04932e-07
1216.81	-2.53586e-07
1225.37	-2.40882e-07
1233.93	-2.5579e-07
1242.48	-2.62453e-07
1251.04	-2.24055e-07
1259.6	-2.36382e-07
1268.16	-2.72589e-07
1276.71	-2.22725e-07
1285.27	-1.9783e-07
1293.83	-2.4512e-07
1302.39	-2.25463e-07
1310.94	-2.0913e-07
1319.5	-2.30801e-07
1328.06	-1.88481e-07
1336.62	-2.16146e-07
1345.17	-1.68994e-07
1353.73	-2.08311e-07
1362.29	-2.26732e-07
1370.85	-1.90029e-08
1379.4	8.05803e-07
1387.96	4.20829e-06
1396.52	1.05171e-05
1405.08	2.05237e-05
1413.64	1.98258e-05
1422.19	3.4594e-05
1430.75	1.39354e-05
1439.31	3.37565e-06
1447.87	1.77549e-05
1456.42	2.12786e-05
1464.98	3.67989e-05
1473.54	1.92833e-05
1482.1	1.61278e-05
1490.65	1.228e-05
1499.21	6.87029e-07
1507.77	3.58003e-07
1516.33	-5.31688e-08
1524.88	-1.83946e-07
1533.44	-2.78982e-07
1542	-4.0532e-07
1550.56	-2.49215e-07
1559.11	-2.48169e-07
1567.67	-2.11289e-07
1576.23	-5.00649e-07
1584.79	-2.80072e-07
1593.35	-2.75263e-07
1601.9	-2.60894e-07
1610.46	-2.15089e-07
1619.02	-2.70362e-07
1627.58	-2.63445e-07
1636.13	-2.57107e-07
1644.69	-2.48465e-07
1653.25	-5.41621e-07
1661.81	-2.63987e-07
1670.36	-2.49277e-07
1678.92	-2.14751e-07
1687.48	-2.51698e-07
1696.04	-3.48149e-07
1704.59	-1.78506e-07
1713.15	-1.88952e-07
1721.71	-9.02305e-08
1730.27	6.83936e-08
1738.83	-3.36802e-08
1747.38	2.43925e-08
1755.94	-6.89175e-08
1764.5	-1.68658e-07
1773.06	-6.74496e-08
1781.61	-2.52402e-08
1790.17	-5.62501e-08
1798.73	-2.0205e-07
1807.29	-1.84381e-07
1815.84	-1.00906e-07
1824.4	2.34468e-07
1832.96	1.09984e-06
1841.52	2.63376e-06
1850.07	5.80845e-06
1858.63	1.17472e-05
1867.19	4.77646e-06
1875.75	6.25196e-06
1884.3	1.31221e-06
1892.86	2.26161e-06
1901.42	1.28813e-05
1909.98	8.83409e-06
1918.54	1.31768e-05
1927.09	4.59039e-06
1935.65	1.75109e-06
1944.21	1.01937e-06
1952.77	1.68041e-07
1961.32	-3.60964e-07
1969.88	-1.34708e-07
1978.44	1.99071e-07
1987	-1.04249e-07
1995.55	2.93136e-07
2004.11	3.15895e-07
2012.67	1.04553e-07
2021.23	2.41577e-07
2029.78	1.15856e-06
2038.34	1.42322e-06
2046.9	5.27056e-06
2055.46	-1.13664e-07
2064.01	6.78827e-07
2072.57	2.19799e-06
2081.13	1.032e-06
2089.69	3.57257e-07
2098.25	-5.34871e-08
2106.8	-2.82653e-07
2115.36	-1.72368e-07
2123.92	2.6231e-07
2132.48	4.95192e-07
2141.03	3.22491e-07
2149.59	1.32109e-07
2158.15	5.38407e-07
2166.71	1.8439e-07
2175.26	1.53646e-07
2183.82	1.84159e-07
2192.38	5.7059e-07
2200.94	7.79782e-07
2209.49	2.3837e-07
2218.05	2.07011e-07
2226.61	1.21484e-07
2235.17	7.52276e-08
2243.72	1.16027e-07
2252.28	5.27695e-07
2260.84	-1.86882e-08
2269.4	-1.61451e-07
2277.96	-1.55783e-07
2286.51	-1.50622e-07
2295.07	-1.61876e-07
2303.63	-1.09303e-07
2312.19	-1.0625e-07
2320.74	-1.46681e-07
2329.3	-1.09592e-07
2337.86	3.41077e-08
2346.42	-5.91787e-08
2354.97	-1.40123e-07
2363.53	-1.55275e-07
2372.09	-4.11617e-08
2380.65	-8.5734e-08
2389.2	-1.08864e-07
2397.76	-1.60403e-07
2406.32	-1.87488e-07
2414.88	-1.38677e-07
2423.44	-8.4779e-08
2431.99	-1.37408e-07
2440.55	-2.35572e-07
2449.11	-9.57584e-08
2457.67	-5.87494e-08
2466.22	-9.72863e-08
2474.78	-1.22245e-07
2483.34	-1.48203e-07
2491.9	-1.93445e-07
2500.45	-2.18791e-07
2509.01	-2.64003e-07
2517.57	-2.64467e-07
2526.13	-2.34996e-07
2534.68	-1.84454e-07
2543.24	-1.52034e-07
2551.8	-2.33468e-07
2560.36	-2.30628e-07
2568.91	-3.96192e-08
2577.47	-2.02969e-07
2586.03	-2.35589e-07
2594.59	-2.54981e-07
2603.15	-1.70779e-07
2611.7	-2.61226e-07
2620.26	-2.04221e-07
2628.82	-2.25297e-07
2637.38	-2.12033e-07
2645.93	-2.1361e-07
2654.49	-1.86787e-07
2663.05	-1.96348e-07
2671.61	-1.90107e-07
2680.16	-2.81895e-07
2688.72	-2.62444e-07
2697.28	-2.57258e-07
2705.84	-2.70972e-07
2714.39	-2.26174e-07
2722.95	-2.60598e-07
2731.51	-2.22496e-07
2740.07	-2.44655e-07
2748.62	-2.99466e-07
2757.18	-2.94153e-07
2765.74	-3.01705e-07
2774.3	-2.65591e-07
2782.86	-3.53641e-07
2791.41	-4.01145e-07
2799.97	-4.11242e-07
2808.53	-3.80249e-07
2817.09	-2.30205e-07
2825.64	-3.95424e-07
2834.2	-4.31298e-07
2842.76	-3.64622e-07
2851.32	-3.99761e-07
2859.87	-5.16201e-07
2868.43	-2.46052e-07
2876.99	-2.95248e-07
2885.55	-7.18683e-07
2894.1	-5.17101e-07
2902.66	-3.15182e-07
2911.22	-2.83066e-07
2919.78	6.99089e-08
2928.34	1.0471e-06
2936.89	4.27845e-06
2945.45	2.36924e-05
2954.01	1.5108e-05
2962.57	7.24582e-05
2971.12	2.16681e-05
2979.68	1.55085e-05
2988.24	0.000299076
2996.8	6.35553e-06
3005.35	2.56966e-05
3013.91	6.45983e-05
3022.47	3.39659e-05
3031.03	1.49797e-05
3039.58	1.55865e-05
3048.14	2.64898e-05
3056.7	2.18392e-05
3065.26	2.42378e-05
3073.81	4.52349e-05
3082.37	2.61821e-05
3090.93	2.8766e-05
3099.49	4.79134e-05
3108.05	1.62208e-05
3116.6	4.03686e-05
3125.16	7.32962e-05
3133.72	4.77377e-05
3142.28	2.33835e-05
3150.83	4.21494e-05
3159.39	1.48069e-05
3167.95	3.96978e-05
3176.51	1.16977e-05
3185.06	3.71483e-06
3193.62	1.81628e-05
3202.18	6.17588e-06
3210.74	2.74428e-06
3219.29	3.54194e-06
3227.85	3.04223e-06
3236.41	1.02474e-06
3244.97	9.58675e-08
3253.52	1.13563e-07
3262.08	-6.77788e-08
3270.64	-1.01697e-07
3279.2	-1.43068e-07
3287.76	-1.7742e-07
3296.31	-1.9321e-07
3304.87	-2.11495e-07
3313.43	-1.11463e-07
3321.99	-2.04693e-07
3330.54	-2.86489e-07
3339.1	-2.01272e-07
3347.66	-2.21977e-07
3356.22	-2.44069e-07
3364.77	-2.09599e-07
3373.33	-2.02211e-07
3381.89	-1.46488e-07
3390.45	-2.34889e-07
3399	-1.79071e-07
3407.56	-2.00568e-07
3416.12	-2.48713e-07
3424.68	-2.89925e-07
3433.23	-1.52385e-07
3441.79	-2.96899e-07
3450.35	-3.44835e-07
3458.91	-2.5547e-07
3467.47	-1.65154e-07
3476.02	-1.63759e-07
3484.58	-1.9042e-07
3493.14	-1.49115e-07
3501.7	-2.45671e-07
3510.25	-2.02947e-07
3518.81	-2.06914e-07
3527.37	-2.33988e-07
3535.93	-1.70538e-07
3544.48	-2.45046e-07
3553.04	-2.18267e-07
3561.6	-2.24871e-07
3570.16	-2.0021e-07
3578.71	-1.53238e-07
3587.27	-2.89867e-07
3595.83	-2.71734e-07
3604.39	-2.29923e-07
3612.95	-2.52178e-07
3621.5	-2.22449e-07
3630.06	-2.07551e-07
3638.62	-1.90223e-07
3647.18	-2.98478e-07
3655.73	-2.50326e-07
3664.29	-2.18439e-07
3672.85	-2.41415e-07
3681.41	-2.55894e-07
3689.96	-2.54188e-07
3698.52	-2.54021e-07
3707.08	-3.57017e-07
3715.64	-2.74882e-07
3724.19	-2.50725e-07
3732.75	-4.16537e-07
3741.31	-1.39368e-07
3749.87	-2.03093e-07
3758.42	-3.10274e-07
3766.98	-2.41601e-07
3775.54	-4.71367e-07
3784.1	-2.17996e-07
3792.66	-1.25741e-07
3801.21	-2.20888e-07
3809.77	-3.15546e-07
3818.33	-6.15452e-08
3826.89	-2.81285e-07
3835.44	-1.64474e-07
3844	-1.45049e-07
3852.56	-2.28053e-07
3861.12	-1.67655e-08
3869.67	-1.41993e-07
3878.23	-1.40038e-07
3886.79	-1.31143e-07
3895.35	-1.88432e-07
3903.9	-2.22105e-07
3912.46	-1.55077e-07
3921.02	1.28247e-07
3929.58	-4.66532e-08
3938.13	-1.26948e-07
3946.69	-8.29146e-08
3955.25	-1.34937e-07
3963.81	-2.15813e-07
3972.37	-1.25488e-07
