Infrared Spectrum: Ethene
Formula: C H2: C H2
CAS: 74-85-1
State: gas
Melting point: -169.15 C
Boiling point: -103.71 C
Class: IUPAC A
Instrument: IFS66V (Bruker)
Instrument parameters: KBr Beam splitter; MCT Detector; Multipass cell
Sampling: 1 L/min Flow
Resolution: 0.9640
Temperature: 23 C
Pressure: 101.3 kPa
Origin: NIST, Anayltical Chemistry Division, 301-975-3108
cm-1	(micromol/mol)-1m-1 (base 10)
575.169	-1.51983e-07
583.847	-2.76355e-07
592.525	-4.07704e-07
601.203	-3.70556e-07
609.882	-2.5481e-07
618.56	-2.31645e-07
627.238	-1.75143e-07
635.916	-2.38143e-07
644.594	-1.28067e-07
653.272	-1.20399e-07
661.951	-1.75879e-07
670.629	-1.1362e-07
679.307	6.85657e-09
687.985	1.32105e-07
696.663	1.70618e-07
705.341	3.27536e-07
714.019	6.63233e-07
722.698	4.11075e-07
731.376	8.60561e-07
740.054	8.44333e-07
748.732	1.22761e-06
757.41	1.45409e-06
766.088	1.22495e-06
774.767	8.68339e-07
783.445	3.51491e-07
792.123	3.42394e-07
800.801	2.97568e-07
809.479	5.58021e-07
818.157	1.00332e-06
826.835	1.29862e-06
835.514	4.06389e-06
844.192	1.04965e-05
852.87	1.20188e-05
861.548	1.78812e-05
870.226	2.56251e-05
878.904	5.3245e-05
887.583	4.29408e-05
896.261	0.00010191
904.939	4.54348e-05
913.617	6.50267e-05
922.295	0.000227684
930.973	7.01627e-05
939.651	0.000107388
948.33	0.000361144
957.008	0.000101534
965.686	9.06828e-05
974.364	5.27936e-05
983.042	5.93211e-05
991.72	6.07333e-05
1000.4	7.27124e-05
1009.08	5.68293e-05
1017.75	5.82129e-05
1026.43	4.5557e-05
1035.11	3.32706e-05
1043.79	4.08217e-05
1052.47	1.13329e-05
1061.15	1.7868e-05
1069.82	1.45415e-05
1078.5	6.27236e-06
1087.18	3.22171e-06
1095.86	2.67039e-06
1104.54	1.63118e-06
1113.21	1.55173e-06
1121.89	1.60943e-06
1130.57	6.60113e-07
1139.25	1.36297e-07
1147.93	2.42788e-07
1156.61	-7.21872e-08
1165.28	-8.12766e-08
1173.96	-1.6769e-07
1182.64	-1.63152e-07
1191.32	-2.14089e-07
1200	-2.16032e-07
1208.67	-2.3339e-07
1217.35	-2.38982e-07
1226.03	-2.29613e-07
1234.71	-2.38138e-07
1243.39	-2.22058e-07
1252.07	-2.40509e-07
1260.74	-2.45513e-07
1269.42	-2.19543e-07
1278.1	-2.277e-07
1286.78	-2.44555e-07
1295.46	-2.31565e-07
1304.13	-2.13487e-07
1312.81	-2.28073e-07
1321.49	-2.03157e-07
1330.17	-2.20618e-07
1338.85	-2.20998e-07
1347.52	-1.95535e-07
1356.2	-2.03071e-07
1364.88	-6.93215e-08
1373.56	-4.43826e-09
1382.24	5.7591e-07
1390.92	3.45309e-06
1399.59	1.07414e-05
1408.27	1.91443e-05
1416.95	2.94889e-05
1425.63	2.39481e-05
1434.31	7.61985e-06
1442.98	4.37694e-05
1451.66	1.51834e-05
1460.34	2.04139e-05
1469.02	1.53693e-05
1477.7	1.71762e-05
1486.38	6.86127e-06
1495.05	3.5077e-06
1503.73	1.10238e-06
1512.41	6.84866e-08
1521.09	-2.25632e-07
1529.77	-2.17834e-07
1538.44	-2.69588e-07
1547.12	-2.34381e-07
1555.8	-2.3588e-07
1564.48	-2.39561e-07
1573.16	-2.13339e-07
1581.83	-2.43479e-07
1590.51	-1.9694e-07
1599.19	-2.34075e-07
1607.87	-2.36063e-07
1616.55	-3.11214e-07
1625.23	-2.36986e-07
1633.9	-2.40163e-07
1642.58	-2.39632e-07
1651.26	-2.63264e-07
1659.94	-2.3954e-07
1668.62	-2.61924e-07
1677.29	-2.43735e-07
1685.97	-2.33738e-07
1694.65	-2.24265e-07
1703.33	-2.0154e-07
1712.01	-1.44817e-07
1720.69	-1.55705e-07
1729.36	-1.2904e-07
1738.04	-1.45717e-08
1746.72	1.01194e-07
1755.4	-5.72354e-08
1764.08	-1.05941e-07
1772.75	-1.46101e-07
1781.43	7.01291e-08
1790.11	-6.99981e-08
1798.79	-1.81103e-07
1807.47	-1.94017e-07
1816.15	-1.48936e-07
1824.82	3.01534e-07
1833.5	7.8432e-07
1842.18	2.30276e-06
1850.86	5.77653e-06
1859.54	6.10422e-06
1868.21	1.42102e-05
1876.89	4.67455e-06
1885.57	3.74113e-06
1894.25	4.20786e-06
1902.93	9.24097e-06
1911.6	1.33024e-05
1920.28	1.39555e-05
1928.96	4.75436e-06
1937.64	2.11024e-06
1946.32	5.72698e-07
1955	-1.1058e-07
1963.67	-6.33526e-08
1972.35	-2.10952e-07
1981.03	-8.45962e-08
1989.71	1.24139e-07
1998.39	-1.05491e-08
2007.06	4.82353e-07
2015.74	6.52729e-07
2024.42	1.16852e-06
2033.1	7.01487e-07
2041.78	2.10901e-07
2050.46	-1.14151e-07
2059.13	4.72528e-07
2067.81	1.74612e-06
2076.49	1.40448e-06
2085.17	8.79935e-07
2093.85	9.26214e-08
2102.52	-1.15372e-07
2111.2	-1.45699e-09
2119.88	2.84467e-08
2128.56	-4.26655e-08
2137.24	-3.2342e-08
2145.91	1.15344e-07
2154.59	3.39683e-07
2163.27	2.00727e-07
2171.95	8.0479e-08
2180.63	5.00369e-07
2189.31	7.55363e-07
2197.98	4.38177e-07
2206.66	3.95245e-07
2215.34	3.78803e-07
2224.02	2.32155e-07
2232.7	1.22433e-07
2241.37	1.91973e-08
2250.05	1.32622e-07
2258.73	-6.63966e-08
2267.41	-9.99628e-08
2276.09	-1.44868e-07
2284.77	-1.4365e-07
2293.44	-1.50725e-07
2302.12	-9.05406e-08
2310.8	-1.23281e-07
2319.48	-8.11265e-08
2328.16	-7.49139e-08
2336.83	-1.292e-07
2345.51	-9.49252e-08
2354.19	6.68832e-09
2362.87	1.22229e-07
2371.55	-8.37358e-09
2380.23	-8.6869e-08
2388.9	-9.32981e-08
2397.58	-1.31217e-07
2406.26	-1.34023e-07
2414.94	-1.1861e-07
2423.62	-1.17419e-07
2432.29	-1.54649e-07
2440.97	-1.73184e-07
2449.65	-9.8112e-08
2458.33	-5.94172e-08
2467.01	-1.17568e-07
2475.68	-1.26837e-07
2484.36	-1.77305e-07
2493.04	-2.01689e-07
2501.72	-2.24143e-07
2510.4	-1.94314e-07
2519.08	-2.10877e-07
2527.75	-2.17258e-07
2536.43	-2.20597e-07
2545.11	-2.10688e-07
2553.79	-2.29244e-07
2562.47	-2.0632e-07
2571.14	-1.72664e-07
2579.82	-2.33273e-07
2588.5	-2.15729e-07
2597.18	-2.19808e-07
2605.86	-2.13519e-07
2614.54	-2.14032e-07
2623.21	-2.03925e-07
2631.89	-2.13479e-07
2640.57	-2.05028e-07
2649.25	-2.06269e-07
2657.93	-2.2181e-07
2666.6	-2.29872e-07
2675.28	-2.19808e-07
2683.96	-2.43287e-07
2692.64	-2.19513e-07
2701.32	-2.51469e-07
2709.99	-2.45811e-07
2718.67	-2.38012e-07
2727.35	-2.31758e-07
2736.03	-2.51589e-07
2744.71	-2.44425e-07
2753.39	-2.34927e-07
2762.06	-2.60546e-07
2770.74	-2.59531e-07
2779.42	-2.78917e-07
2788.1	-2.89745e-07
2796.78	-3.12778e-07
2805.45	-3.46416e-07
2814.13	-3.42468e-07
2822.81	-4.23634e-07
2831.49	-4.40134e-07
2840.17	-5.24543e-07
2848.85	-4.43165e-07
2857.52	-3.32595e-07
2866.2	-3.42473e-07
2874.88	-2.11463e-07
2883.56	-2.78154e-07
2892.24	-5.42847e-07
2900.91	-3.15921e-07
2909.59	-2.21497e-07
2918.27	9.89069e-08
2926.95	9.86531e-07
2935.63	4.11078e-06
2944.31	6.57182e-06
2952.98	2.09299e-05
2961.66	2.22209e-05
2970.34	2.85827e-05
2979.02	1.49803e-05
2987.7	0.000125883
2996.37	1.30396e-05
3005.05	3.97504e-05
3013.73	5.46169e-05
3022.41	2.92641e-05
3031.09	2.15455e-05
3039.76	1.52906e-05
3048.44	1.73728e-05
3057.12	1.98606e-05
3065.8	2.67305e-05
3074.48	3.41295e-05
3083.16	3.82438e-05
3091.83	3.28257e-05
3100.51	3.4638e-05
3109.19	3.1336e-05
3117.87	3.72142e-05
3126.55	4.41299e-05
3135.22	3.80527e-05
3143.9	2.19866e-05
3152.58	2.96967e-05
3161.26	2.27448e-05
3169.94	3.39712e-05
3178.62	1.53067e-05
3187.29	9.23567e-06
3195.97	8.22677e-06
3204.65	8.50533e-06
3213.33	4.95633e-06
3222.01	2.21701e-06
3230.68	1.03524e-06
3239.36	5.15135e-07
3248.04	2.08339e-07
3256.72	4.15942e-08
3265.4	-7.6359e-08
3274.07	-1.05063e-07
3282.75	-1.56613e-07
3291.43	-1.60677e-07
3300.11	-1.76428e-07
3308.79	-1.92605e-07
3317.47	-1.89663e-07
3326.14	-2.10151e-07
3334.82	-2.16542e-07
3343.5	-1.83954e-07
3352.18	-1.69918e-07
3360.86	-1.67282e-07
3369.53	-1.54175e-07
3378.21	-1.85498e-07
3386.89	-1.72302e-07
3395.57	-2.21975e-07
3404.25	-2.11285e-07
3412.93	-2.39944e-07
3421.6	-2.39582e-07
3430.28	-2.30617e-07
3438.96	-2.6199e-07
3447.64	-2.48247e-07
3456.32	-2.15354e-07
3464.99	-2.17272e-07
3473.67	-2.31449e-07
3482.35	-2.06517e-07
3491.03	-1.90424e-07
3499.71	-2.37171e-07
3508.39	-2.43167e-07
3517.06	-1.74565e-07
3525.74	-1.39986e-07
3534.42	-1.43544e-07
3543.1	-2.16374e-07
3551.78	-2.39901e-07
3560.45	-2.39683e-07
3569.13	-2.26204e-07
3577.81	-2.24059e-07
3586.49	-2.39533e-07
3595.17	-2.26275e-07
3603.84	-2.36279e-07
3612.52	-2.44809e-07
3621.2	-2.15992e-07
3629.88	-2.57148e-07
3638.56	-2.1033e-07
3647.24	-2.21866e-07
3655.91	-2.51721e-07
3664.59	-2.28893e-07
3673.27	-2.28177e-07
3681.95	-2.64547e-07
3690.63	-2.63515e-07
3699.3	-2.60118e-07
3707.98	-3.11584e-07
3716.66	-3.63725e-07
3725.34	-1.95438e-07
3734.02	-2.40792e-07
3742.7	-2.84249e-07
3751.37	-3.06992e-07
3760.05	-2.20261e-07
3768.73	-1.50828e-07
3777.41	-5.52438e-07
3786.09	-1.83063e-07
3794.76	-2.33366e-07
3803.44	-9.77418e-08
3812.12	-2.30881e-07
3820.8	-2.08938e-07
3829.48	-1.85585e-07
3838.16	-1.27771e-07
3846.83	-2.14214e-07
3855.51	-1.7344e-07
3864.19	-7.49357e-08
3872.87	-1.08972e-07
3881.55	-1.38332e-07
3890.22	-1.20904e-07
3898.9	-1.23287e-07
3907.58	-1.12137e-07
3916.26	-1.40315e-07
3924.94	-1.06464e-07
3933.61	-1.56827e-07
3942.29	-1.81219e-07
3950.97	-1.64656e-07
3959.65	-9.32053e-08
3968.33	-1.04522e-07
