Infrared Spectrum: Ethene
Formula: C H2: C H2
CAS: 74-85-1
State: gas
Melting point: -169.15 C
Boiling point: -103.71 C
Class: IUPAC A
Instrument: IFS66V (Bruker)
Instrument parameters: KBr Beam splitter; MCT Detector; Multipass cell
Sampling: 1 L/min Flow
Resolution: 0.9640
Temperature: 23 C
Pressure: 101.3 kPa
Origin: NIST, Anayltical Chemistry Division, 301-975-3108
cm-1	(micromol/mol)-1m-1 (base 10)
575.169	-1.74206e-07
583.847	-2.84578e-07
592.525	-4.11065e-07
601.203	-3.66661e-07
609.882	-2.65922e-07
618.56	-2.29343e-07
627.238	-1.90092e-07
635.916	-2.24865e-07
644.594	-1.47186e-07
653.272	-1.30045e-07
661.951	-1.76604e-07
670.629	-1.02138e-07
679.307	-9.28215e-09
687.985	8.41696e-08
696.663	1.96044e-07
705.341	2.91652e-07
714.019	5.70098e-07
722.698	4.7159e-07
731.376	7.83135e-07
740.054	9.37747e-07
748.732	1.20096e-06
757.41	1.57332e-06
766.088	1.14138e-06
774.767	8.22257e-07
783.445	3.0539e-07
792.123	2.67578e-07
800.801	2.75941e-07
809.479	4.84205e-07
818.157	8.88218e-07
826.835	1.36549e-06
835.514	4.05808e-06
844.192	1.00124e-05
852.87	1.25783e-05
861.548	1.87752e-05
870.226	2.69318e-05
878.904	5.10059e-05
887.583	4.56393e-05
896.261	0.000102819
904.939	4.85666e-05
913.617	5.89561e-05
922.295	0.000214525
930.973	7.21982e-05
939.651	0.000107794
948.33	0.000380104
957.008	0.000101093
965.686	8.87971e-05
974.364	5.46795e-05
983.042	5.7979e-05
991.72	5.93504e-05
1000.4	7.02802e-05
1009.08	5.87632e-05
1017.75	5.41171e-05
1026.43	4.59716e-05
1035.11	3.25124e-05
1043.79	3.82096e-05
1052.47	1.44549e-05
1061.15	1.65729e-05
1069.82	1.55641e-05
1078.5	6.81344e-06
1087.18	4.01478e-06
1095.86	3.56036e-06
1104.54	1.77623e-06
1113.21	1.52624e-06
1121.89	1.43967e-06
1130.57	5.76976e-07
1139.25	1.22941e-07
1147.93	1.67861e-07
1156.61	-6.36363e-08
1165.28	-1.30403e-07
1173.96	-1.73329e-07
1182.64	-1.914e-07
1191.32	-2.34796e-07
1200	-2.32714e-07
1208.67	-2.49633e-07
1217.35	-2.55578e-07
1226.03	-2.48113e-07
1234.71	-2.51222e-07
1243.39	-2.35362e-07
1252.07	-2.55592e-07
1260.74	-2.61637e-07
1269.42	-2.34228e-07
1278.1	-2.40815e-07
1286.78	-2.58636e-07
1295.46	-2.45992e-07
1304.13	-2.27214e-07
1312.81	-2.44337e-07
1321.49	-2.21485e-07
1330.17	-2.38985e-07
1338.85	-2.3391e-07
1347.52	-2.16157e-07
1356.2	-2.29567e-07
1364.88	-9.98e-08
1373.56	-2.99774e-08
1382.24	6.10839e-07
1390.92	3.29863e-06
1399.59	1.04699e-05
1408.27	1.88395e-05
1416.95	2.93181e-05
1425.63	2.53267e-05
1434.31	8.37354e-06
1442.98	4.46141e-05
1451.66	1.47813e-05
1460.34	2.06718e-05
1469.02	1.79169e-05
1477.7	1.63038e-05
1486.38	7.32205e-06
1495.05	3.31579e-06
1503.73	1.01936e-06
1512.41	4.27365e-08
1521.09	-2.47886e-07
1529.77	-2.36862e-07
1538.44	-2.93278e-07
1547.12	-2.48244e-07
1555.8	-2.3945e-07
1564.48	-2.50858e-07
1573.16	-2.21205e-07
1581.83	-2.48763e-07
1590.51	-2.07612e-07
1599.19	-2.43189e-07
1607.87	-2.42727e-07
1616.55	-3.09553e-07
1625.23	-2.413e-07
1633.9	-2.45257e-07
1642.58	-2.45887e-07
1651.26	-2.69906e-07
1659.94	-2.45694e-07
1668.62	-2.73519e-07
1677.29	-2.4812e-07
1685.97	-2.37201e-07
1694.65	-2.30664e-07
1703.33	-2.064e-07
1712.01	-1.5694e-07
1720.69	-1.53327e-07
1729.36	-1.3354e-07
1738.04	-2.24896e-08
1746.72	8.19032e-08
1755.4	-5.70917e-08
1764.08	-1.33e-07
1772.75	-1.29709e-07
1781.43	4.63926e-08
1790.11	-8.54675e-08
1798.79	-1.97553e-07
1807.47	-2.10441e-07
1816.15	-1.74737e-07
1824.82	2.66641e-07
1833.5	7.90944e-07
1842.18	2.40456e-06
1850.86	5.51898e-06
1859.54	6.63404e-06
1868.21	1.3173e-05
1876.89	5.41096e-06
1885.57	3.04255e-06
1894.25	3.69195e-06
1902.93	9.29271e-06
1911.6	1.36828e-05
1920.28	1.25234e-05
1928.96	5.64823e-06
1937.64	2.18044e-06
1946.32	5.71716e-07
1955	-1.40256e-07
1963.67	-8.60304e-08
1972.35	-2.28893e-07
1981.03	-8.62587e-08
1989.71	1.69036e-07
1998.39	-8.91109e-09
2007.06	4.26493e-07
2015.74	6.35536e-07
2024.42	1.03908e-06
2033.1	7.00658e-07
2041.78	1.74584e-07
2050.46	-1.57271e-07
2059.13	6.61211e-07
2067.81	1.79441e-06
2076.49	1.61446e-06
2085.17	8.52229e-07
2093.85	9.02695e-08
2102.52	-1.1074e-07
2111.2	-1.56612e-08
2119.88	1.85152e-08
2128.56	-2.89397e-08
2137.24	-3.50295e-08
2145.91	1.23092e-07
2154.59	3.06101e-07
2163.27	1.92738e-07
2171.95	8.43888e-08
2180.63	5.18035e-07
2189.31	7.63217e-07
2197.98	4.44373e-07
2206.66	4.22366e-07
2215.34	3.64022e-07
2224.02	2.19258e-07
2232.7	1.20476e-07
2241.37	3.44511e-09
2250.05	1.21704e-07
2258.73	-6.8663e-08
2267.41	-1.10003e-07
2276.09	-1.47152e-07
2284.77	-1.46351e-07
2293.44	-1.54802e-07
2302.12	-9.81247e-08
2310.8	-1.28269e-07
2319.48	-8.06845e-08
2328.16	-6.6242e-08
2336.83	-9.54772e-08
2345.51	-8.53183e-08
2354.19	-1.10602e-08
2362.87	7.56187e-08
2371.55	-1.63061e-08
2380.23	-9.59283e-08
2388.9	-9.43458e-08
2397.58	-1.34375e-07
2406.26	-1.39437e-07
2414.94	-1.26662e-07
2423.62	-1.16381e-07
2432.29	-1.61886e-07
2440.97	-1.77932e-07
2449.65	-1.00779e-07
2458.33	-5.05489e-08
2467.01	-1.1076e-07
2475.68	-1.32596e-07
2484.36	-1.85733e-07
2493.04	-2.00418e-07
2501.72	-2.23488e-07
2510.4	-1.98756e-07
2519.08	-2.13215e-07
2527.75	-2.23134e-07
2536.43	-2.2357e-07
2545.11	-2.14947e-07
2553.79	-2.35452e-07
2562.47	-2.10878e-07
2571.14	-1.76182e-07
2579.82	-2.35332e-07
2588.5	-2.20884e-07
2597.18	-2.2349e-07
2605.86	-2.16337e-07
2614.54	-2.17209e-07
2623.21	-2.07206e-07
2631.89	-2.1293e-07
2640.57	-2.10803e-07
2649.25	-2.08355e-07
2657.93	-2.24592e-07
2666.6	-2.3247e-07
2675.28	-2.2471e-07
2683.96	-2.43789e-07
2692.64	-2.25728e-07
2701.32	-2.56473e-07
2709.99	-2.51178e-07
2718.67	-2.471e-07
2727.35	-2.37181e-07
2736.03	-2.56263e-07
2744.71	-2.46319e-07
2753.39	-2.39896e-07
2762.06	-2.64652e-07
2770.74	-2.63563e-07
2779.42	-2.82555e-07
2788.1	-2.94695e-07
2796.78	-3.16131e-07
2805.45	-3.59634e-07
2814.13	-3.44905e-07
2822.81	-4.29958e-07
2831.49	-4.4964e-07
2840.17	-5.30142e-07
2848.85	-4.60476e-07
2857.52	-3.42292e-07
2866.2	-3.6426e-07
2874.88	-2.32027e-07
2883.56	-2.95997e-07
2892.24	-5.46635e-07
2900.91	-3.47906e-07
2909.59	-2.56817e-07
2918.27	5.84414e-08
2926.95	9.19857e-07
2935.63	3.96351e-06
2944.31	7.56035e-06
2952.98	2.04225e-05
2961.66	2.52469e-05
2970.34	2.92666e-05
2979.02	1.42407e-05
2987.7	0.00014078
2996.37	1.24834e-05
3005.05	3.86728e-05
3013.73	5.06888e-05
3022.41	2.98695e-05
3031.09	2.14796e-05
3039.76	1.56672e-05
3048.44	1.69377e-05
3057.12	1.94538e-05
3065.8	2.5227e-05
3074.48	3.48758e-05
3083.16	3.62518e-05
3091.83	3.35224e-05
3100.51	3.59818e-05
3109.19	3.08212e-05
3117.87	3.44728e-05
3126.55	4.36328e-05
3135.22	3.55663e-05
3143.9	2.27949e-05
3152.58	2.79592e-05
3161.26	2.35062e-05
3169.94	3.23543e-05
3178.62	1.43315e-05
3187.29	1.00135e-05
3195.97	8.30206e-06
3204.65	8.12208e-06
3213.33	4.87399e-06
3222.01	2.37772e-06
3230.68	1.214e-06
3239.36	6.09119e-07
3248.04	2.71585e-07
3256.72	7.00882e-08
3265.4	-6.20302e-08
3274.07	-1.06315e-07
3282.75	-1.66599e-07
3291.43	-1.72059e-07
3300.11	-1.81633e-07
3308.79	-2.00358e-07
3317.47	-2.01205e-07
3326.14	-2.13296e-07
3334.82	-2.178e-07
3343.5	-1.89942e-07
3352.18	-1.70598e-07
3360.86	-1.80868e-07
3369.53	-1.55823e-07
3378.21	-1.92369e-07
3386.89	-1.76105e-07
3395.57	-2.23014e-07
3404.25	-2.23105e-07
3412.93	-2.43441e-07
3421.6	-2.38251e-07
3430.28	-2.33114e-07
3438.96	-2.6456e-07
3447.64	-2.53257e-07
3456.32	-2.18963e-07
3464.99	-2.15657e-07
3473.67	-2.32218e-07
3482.35	-1.9625e-07
3491.03	-2.01344e-07
3499.71	-2.29411e-07
3508.39	-2.49103e-07
3517.06	-1.81965e-07
3525.74	-1.34446e-07
3534.42	-1.52573e-07
3543.1	-2.1935e-07
3551.78	-2.35158e-07
3560.45	-2.44074e-07
3569.13	-2.32095e-07
3577.81	-2.31796e-07
3586.49	-2.42325e-07
3595.17	-2.29027e-07
3603.84	-2.31054e-07
3612.52	-2.45943e-07
3621.2	-2.19567e-07
3629.88	-2.56195e-07
3638.56	-2.16067e-07
3647.24	-2.19933e-07
3655.91	-2.54264e-07
3664.59	-2.30588e-07
3673.27	-2.28575e-07
3681.95	-2.6553e-07
3690.63	-2.75743e-07
3699.3	-2.68414e-07
3707.98	-3.17907e-07
3716.66	-3.36571e-07
3725.34	-2.19768e-07
3734.02	-2.35563e-07
3742.7	-2.86252e-07
3751.37	-3.19544e-07
3760.05	-2.30569e-07
3768.73	-1.47849e-07
3777.41	-5.28613e-07
3786.09	-1.87878e-07
3794.76	-2.37205e-07
3803.44	-9.63358e-08
3812.12	-2.20915e-07
3820.8	-2.15822e-07
3829.48	-2.14136e-07
3838.16	-1.40604e-07
3846.83	-2.00639e-07
3855.51	-1.92204e-07
3864.19	-7.11786e-08
3872.87	-1.06166e-07
3881.55	-1.3697e-07
3890.22	-1.21779e-07
3898.9	-1.26591e-07
3907.58	-1.18027e-07
3916.26	-1.42095e-07
3924.94	-1.11149e-07
3933.61	-1.63605e-07
3942.29	-1.75013e-07
3950.97	-1.73003e-07
3959.65	-8.83032e-08
3968.33	-1.11734e-07
