Infrared Spectrum: Bromomethane
Formula: C H3 Br
CAS: 74-83-9
State: gas
Melting point: -93.6 C
Boiling point: 3.56 C
Class: IUPAC A
Instrument: IFS66V (Bruker)
Instrument parameters: KBr Beam splitter; MCT Detector; Multipass cell
Sampling: 1 L/min Flow
Resolution: 0.4820
Temperature: 23 C
Pressure: 101.3 kPa
Origin: NIST, Anayltical Chemistry Division, 301-975-3108
cm-1	(micromol/mol)-1m-1 (base 10)
574.928	7.88137e-06
583.606	1.65107e-05
592.284	3.45751e-05
600.962	3.75877e-05
609.641	6.08153e-05
618.319	4.75635e-05
626.997	4.16859e-05
635.675	8.30464e-06
644.353	1.69839e-07
653.031	1.494e-07
661.71	8.87277e-08
670.388	-2.8706e-08
679.066	4.5193e-08
687.744	7.84665e-09
696.422	9.99381e-08
705.1	3.01295e-08
713.778	6.70257e-08
722.457	4.37231e-08
731.135	1.87947e-08
739.813	7.14388e-09
748.491	5.27325e-08
757.169	4.39612e-08
765.847	-2.43048e-10
774.526	5.31661e-08
783.204	1.08257e-07
791.882	1.2895e-07
800.56	8.20135e-08
809.238	1.0297e-07
817.916	-8.20945e-08
826.594	1.07464e-07
835.273	-5.94296e-09
843.951	9.97217e-08
852.629	2.39689e-07
861.307	4.0693e-07
869.985	8.09307e-07
878.663	1.83656e-06
887.342	1.7967e-06
896.02	1.98458e-06
904.698	4.12127e-06
913.376	2.11792e-05
922.054	5.19482e-06
930.732	8.72651e-06
939.41	6.37103e-06
948.089	1.02466e-05
956.767	4.83185e-05
965.445	8.65385e-06
974.123	6.71435e-06
982.801	6.94138e-06
991.479	6.84445e-06
1000.16	6.08159e-06
1008.84	5.75375e-06
1017.51	5.08897e-06
1026.19	7.73981e-06
1034.87	2.57015e-06
1043.55	1.21028e-06
1052.23	7.27304e-07
1060.9	5.81573e-07
1069.58	2.83951e-07
1078.26	1.17594e-07
1086.94	1.17319e-07
1095.62	7.7573e-08
1104.3	5.28823e-08
1112.97	5.96304e-08
1121.65	3.45039e-08
1130.33	6.31704e-08
1139.01	1.79369e-08
1147.69	-1.905e-08
1156.36	7.68959e-08
1165.04	7.54908e-08
1173.72	6.70516e-08
1182.4	1.59845e-07
1191.08	1.31963e-07
1199.76	2.04302e-07
1208.43	2.21731e-07
1217.11	1.37851e-07
1225.79	4.1037e-07
1234.47	1.58278e-07
1243.15	1.08197e-07
1251.82	3.92059e-07
1260.5	1.74426e-06
1269.18	8.05547e-06
1277.86	1.91237e-05
1286.54	5.182e-05
1295.21	6.2647e-05
1303.89	1.31447e-05
1312.57	5.24473e-05
1321.25	6.73016e-05
1329.93	2.07751e-05
1338.61	9.54883e-06
1347.28	1.26242e-06
1355.96	2.61338e-06
1364.64	9.57596e-06
1373.32	2.34513e-06
1382	3.00487e-06
1390.67	6.337e-06
1399.35	6.26437e-06
1408.03	6.11076e-06
1416.71	4.60242e-06
1425.39	8.78478e-06
1434.07	7.47135e-06
1442.74	7.3514e-06
1451.42	6.95535e-06
1460.1	8.00716e-06
1468.78	8.09242e-06
1477.46	6.44083e-06
1486.13	0.000101413
1494.81	7.60916e-06
1503.49	6.07105e-06
1512.17	4.01973e-06
1520.85	4.11187e-05
1529.52	4.88371e-06
1538.2	4.43338e-06
1546.88	1.86469e-06
1555.56	1.47996e-06
1564.24	2.13231e-06
1572.92	1.26703e-06
1581.59	6.61367e-07
1590.27	4.66103e-07
1598.95	5.15331e-07
1607.63	7.88153e-07
1616.31	3.26987e-07
1624.98	2.43191e-07
1633.66	2.04922e-07
1642.34	1.34589e-07
1651.02	9.23327e-08
1659.7	3.33023e-08
1668.38	3.37857e-08
1677.05	3.34003e-08
1685.73	5.13752e-08
1694.41	4.51235e-08
1703.09	1.95752e-08
1711.77	5.57032e-10
1720.44	1.67412e-08
1729.12	2.958e-08
1737.8	2.58815e-08
1746.48	2.75231e-08
1755.16	3.92464e-08
1763.84	4.58712e-08
1772.51	6.24128e-08
1781.19	-1.68872e-08
1789.87	3.01513e-08
1798.55	4.90711e-09
1807.23	1.40554e-08
1815.9	3.60752e-09
1824.58	-4.79595e-08
1833.26	-5.5776e-09
1841.94	3.49941e-08
1850.62	4.18608e-08
1859.29	2.45419e-08
1867.97	-1.64384e-08
1876.65	1.35267e-07
1885.33	2.26197e-07
1894.01	3.97657e-07
1902.69	3.35994e-07
1911.36	4.3406e-07
1920.04	5.55008e-07
1928.72	3.27922e-07
1937.4	4.53886e-08
1946.08	-1.17973e-08
1954.75	-2.88888e-08
1963.43	-6.55161e-09
1972.11	-1.98954e-08
1980.79	-4.38077e-09
1989.47	-5.66515e-08
1998.15	-1.52418e-08
2006.82	4.10721e-08
2015.5	2.17584e-10
2024.18	1.85721e-08
2032.86	2.0652e-08
2041.54	-4.98532e-09
2050.21	1.49096e-08
2058.89	7.83142e-09
2067.57	-1.04647e-08
2076.25	9.03574e-09
2084.93	-7.21186e-10
2093.6	-1.5747e-09
2102.28	-1.77013e-08
2110.96	2.43855e-08
2119.64	1.87249e-07
2128.32	8.1113e-09
2137	3.01116e-09
2145.67	1.54914e-08
2154.35	1.11518e-07
2163.03	5.36499e-08
2171.71	1.15488e-07
2180.39	1.6994e-07
2189.06	2.69416e-07
2197.74	2.49636e-07
2206.42	4.54871e-07
2215.1	9.99571e-07
2223.78	5.17794e-07
2232.46	7.52146e-07
2241.13	7.14959e-07
2249.81	9.8594e-07
2258.49	2.14022e-06
2267.17	1.16723e-06
2275.85	4.78126e-07
2284.52	4.36898e-07
2293.2	4.80554e-07
2301.88	3.64779e-07
2310.56	2.92162e-07
2319.24	6.14063e-07
2327.92	3.93327e-07
2336.59	2.95717e-07
2345.27	1.13747e-06
2353.95	6.47247e-07
2362.63	9.58158e-07
2371.31	7.76712e-07
2379.98	5.63023e-07
2388.66	5.14597e-07
2397.34	6.01044e-07
2406.02	5.12052e-07
2414.7	3.68446e-07
2423.37	4.57441e-06
2432.05	3.71132e-07
2440.73	3.69265e-07
2449.41	2.45416e-07
2458.09	2.03653e-07
2466.77	1.98197e-07
2475.44	1.63921e-07
2484.12	1.36078e-07
2492.8	1.1869e-07
2501.48	1.20007e-07
2510.16	6.68586e-08
2518.83	1.69683e-07
2527.51	2.29963e-08
2536.19	-2.61946e-08
2544.87	-5.51407e-08
2553.55	3.14921e-08
2562.23	4.75273e-09
2570.9	4.2633e-07
2579.58	8.03698e-07
2588.26	8.22506e-07
2596.94	1.05972e-06
2605.62	1.51234e-06
2614.29	1.29466e-06
2622.97	-2.34694e-07
2631.65	-3.51754e-07
2640.33	-2.68659e-07
2649.01	-2.41993e-07
2657.68	-1.89032e-07
2666.36	2.09517e-08
2675.04	2.05415e-08
2683.72	5.79313e-10
2692.4	4.47574e-08
2701.08	6.27134e-08
2709.75	9.29743e-08
2718.43	4.71406e-08
2727.11	2.1807e-08
2735.79	6.21129e-08
2744.47	8.48724e-08
2753.14	-2.0756e-07
2761.82	5.64471e-08
2770.5	5.61809e-08
2779.18	2.84589e-08
2787.86	1.7827e-07
2796.54	4.19161e-08
2805.21	8.43574e-08
2813.89	1.33517e-07
2822.57	4.34154e-07
2831.25	1.3228e-06
2839.93	5.9912e-06
2848.6	1.21652e-05
2857.28	4.92617e-06
2865.96	6.95834e-06
2874.64	1.06905e-05
2883.32	6.4214e-06
2892	2.47687e-06
2900.67	6.27802e-07
2909.35	9.14358e-08
2918.03	7.8828e-08
2926.71	7.08121e-07
2935.39	4.10105e-06
2944.06	1.78714e-05
2952.74	4.73532e-05
2961.42	6.00163e-05
2970.1	2.57033e-05
2978.78	5.96229e-05
2987.45	6.83389e-05
2996.13	3.18492e-05
3004.81	1.0542e-05
3013.49	4.25309e-06
3022.17	3.8417e-06
3030.85	3.52856e-06
3039.52	3.34155e-06
3048.2	3.94212e-06
3056.88	3.38022e-06
3065.56	4.3078e-06
3074.24	3.94915e-06
3082.91	3.74224e-06
3091.59	4.43746e-06
3100.27	3.92733e-06
3108.95	3.4065e-06
3117.63	3.63452e-06
3126.31	2.06625e-06
3134.98	1.41977e-06
3143.66	8.50761e-07
3152.34	1.00399e-06
3161.02	5.07787e-07
3169.7	3.46176e-07
3178.37	3.2053e-07
3187.05	5.01796e-07
3195.73	1.40635e-07
3204.41	1.26688e-07
3213.09	1.36712e-07
3221.77	1.71738e-07
3230.44	9.35154e-09
3239.12	1.03799e-08
3247.8	4.04751e-08
3256.48	-3.91491e-09
3265.16	-2.57667e-08
3273.83	6.82489e-08
3282.51	-5.71606e-09
3291.19	6.86643e-08
3299.87	5.01004e-08
3308.55	-2.21699e-08
3317.22	-3.35038e-09
3325.9	6.87168e-08
3334.58	1.49919e-08
3343.26	7.90683e-08
3351.94	2.13666e-08
3360.62	4.35526e-08
3369.29	3.51521e-09
3377.97	7.02854e-08
3386.65	1.38408e-08
3395.33	-1.40051e-08
3404.01	-4.80014e-08
3412.68	2.08244e-08
3421.36	-2.57058e-08
3430.04	8.06114e-08
3438.72	1.03437e-08
3447.4	5.34796e-09
3456.08	2.29063e-08
3464.75	7.61674e-08
3473.43	8.26249e-08
3482.11	8.21843e-08
3490.79	7.63782e-08
3499.47	7.9282e-08
3508.14	3.75137e-08
3516.82	-1.91003e-08
3525.5	3.74503e-08
3534.18	1.4293e-08
3542.86	1.23411e-07
3551.53	1.93232e-07
3560.21	3.95849e-07
3568.89	5.88658e-07
3577.57	4.81896e-07
3586.25	4.26399e-07
3594.93	6.36146e-07
3603.6	4.97258e-07
3612.28	1.51085e-07
3620.96	1.06354e-07
3629.64	2.42175e-07
3638.32	8.34134e-08
3646.99	1.7407e-07
3655.67	2.30992e-07
3664.35	2.91981e-07
3673.03	3.51188e-07
3681.71	3.05545e-07
3690.39	2.67434e-07
3699.06	3.42695e-07
3707.74	1.43616e-07
3716.42	1.22524e-07
3725.1	2.14741e-07
3733.78	1.24404e-07
3742.45	1.02596e-07
3751.13	3.94508e-08
3759.81	1.34933e-07
3768.49	8.67281e-08
3777.17	4.31686e-08
3785.85	1.21377e-07
3794.52	1.31504e-07
3803.2	1.01093e-07
3811.88	8.08308e-08
3820.56	2.82631e-07
3829.24	1.36522e-07
3837.91	3.70581e-07
3846.59	2.05356e-07
3855.27	2.3507e-07
3863.95	3.1989e-07
3872.63	2.25806e-07
3881.3	3.7996e-07
3889.98	4.96972e-07
3898.66	2.82201e-07
3907.34	2.82739e-07
3916.02	1.65197e-07
3924.7	1.92977e-07
3933.37	1.58416e-07
3942.05	4.16834e-07
3950.73	3.31213e-07
3959.41	1.99178e-07
3968.09	3.83502e-07
