Infrared Spectrum: Dichloromethane
Formula: C H2 Cl2
CAS: 75-09-2
State: gas
Melting point: -95.1 C
Boiling point: 40 C
Class: IUPAC A
Instrument: IFS66V (Bruker)
Instrument parameters: KBr Beam Splitter; MCT Detector; Multipass cell
Sampling: 1 L/min Flow
Resolution: 1.9290
Temperature: 23 C
Pressure: 101.3 Pa
Origin: NIST, Analytical Chemistry Division, 301-975-3108
cm-1	(micromol/mol)-1m-1 (base 10)
575.652	3.89693e-07
584.33	1.71792e-07
593.008	4.59249e-07
601.687	3.39986e-07
610.365	7.05037e-09
619.043	2.06261e-07
627.721	3.16298e-07
636.399	4.33975e-07
645.077	5.25598e-07
653.756	1.41472e-06
662.434	2.96757e-06
671.112	6.42277e-06
679.79	1.09471e-05
688.468	1.83281e-05
697.147	2.72205e-05
705.825	3.70426e-05
714.503	3.3226e-05
723.181	7.48184e-05
731.859	8.48635e-05
740.537	0.000319815
749.216	0.000816381
757.894	0.000637371
766.572	0.000636734
775.25	9.88183e-05
783.928	6.00034e-06
792.607	2.15525e-06
801.285	1.30427e-06
809.963	8.27191e-07
818.641	6.24294e-07
827.319	5.33875e-07
835.997	2.16579e-07
844.676	2.93924e-07
853.354	2.9471e-07
862.032	6.03297e-07
870.71	9.98997e-07
879.388	1.8848e-06
888.066	2.61122e-06
896.745	6.97273e-06
905.423	2.90763e-06
914.101	3.45046e-06
922.779	2.90484e-06
931.457	1.87506e-06
940.136	1.16818e-06
948.814	5.97902e-07
957.492	3.13791e-07
966.17	2.82681e-07
974.848	3.49515e-07
983.526	4.10605e-07
992.205	3.6205e-07
1000.88	3.91311e-07
1009.56	2.6573e-07
1018.24	2.41771e-07
1026.92	2.83888e-07
1035.6	3.53107e-07
1044.27	3.7017e-07
1052.95	1.98574e-07
1061.63	5.22957e-09
1070.31	-4.2385e-08
1078.99	-1.71484e-08
1087.66	-5.40965e-09
1096.34	3.24524e-08
1105.02	-1.66473e-08
1113.7	-3.45961e-08
1122.38	-2.17459e-08
1131.06	3.50245e-08
1139.73	2.26054e-08
1148.41	1.28238e-08
1157.09	5.41901e-08
1165.77	3.05898e-08
1174.45	7.93093e-08
1183.12	1.07836e-07
1191.8	1.50995e-07
1200.48	1.15942e-07
1209.16	1.94775e-07
1217.84	3.02954e-07
1226.52	4.14525e-07
1235.19	8.8909e-07
1243.87	6.26105e-06
1252.55	7.18134e-05
1261.23	0.000212546
1269.91	7.50306e-05
1278.58	0.000191938
1287.26	1.89696e-05
1295.94	1.24513e-06
1304.62	4.70019e-07
1313.3	3.05259e-07
1321.98	1.77714e-07
1330.65	1.25117e-07
1339.33	1.03293e-07
1348.01	1.97532e-08
1356.69	5.90159e-08
1365.37	-4.72689e-08
1374.04	5.70359e-08
1382.72	9.11409e-08
1391.4	1.74477e-07
1400.08	2.27343e-07
1408.76	3.75057e-07
1417.44	6.46013e-07
1426.11	1.15847e-06
1434.79	1.3191e-06
1443.47	2.90163e-06
1452.15	5.27088e-06
1460.83	7.2443e-06
1469.5	7.61511e-06
1478.18	5.08653e-06
1486.86	2.5918e-07
1495.54	9.84623e-08
1504.22	2.32266e-08
1512.9	-2.09283e-08
1521.57	-1.1591e-07
1530.25	5.86248e-08
1538.93	2.66679e-07
1547.61	4.66037e-07
1556.29	4.79328e-07
1564.96	1.40165e-07
1573.64	1.89483e-08
1582.32	2.02043e-08
1591	1.18889e-08
1599.68	6.16025e-08
1608.36	8.80032e-08
1617.03	-8.10783e-08
1625.71	3.52236e-08
1634.39	-3.22032e-08
1643.07	1.87628e-09
1651.75	-8.33557e-08
1660.42	2.88126e-09
1669.1	-7.36769e-08
1677.78	3.8144e-09
1686.46	-4.19866e-08
1695.14	-3.4476e-08
1703.82	-6.76297e-09
1712.49	2.02171e-08
1721.17	4.74445e-08
1729.85	4.39402e-08
1738.53	2.71765e-08
1747.21	3.11164e-08
1755.88	-3.58976e-09
1764.56	4.10153e-08
1773.24	6.29822e-09
1781.92	5.62256e-08
1790.6	3.65742e-08
1799.28	6.93823e-08
1807.95	6.99334e-08
1816.63	3.62341e-09
1825.31	-9.83522e-09
1833.99	-3.11864e-09
1842.67	2.22179e-08
1851.34	-3.86715e-09
1860.02	-9.64878e-09
1868.7	-8.93756e-09
1877.38	-1.67855e-08
1886.06	3.36238e-09
1894.74	-2.23598e-08
1903.41	-1.24136e-08
1912.09	2.00088e-10
1920.77	1.21135e-08
1929.45	4.15637e-10
1938.13	-6.70049e-08
1946.8	-1.13777e-08
1955.48	-2.8819e-08
1964.16	7.668e-08
1972.84	1.9811e-07
1981.52	2.03695e-07
1990.2	3.24723e-07
1998.87	5.391e-08
2007.55	8.11747e-08
2016.23	4.05887e-08
2024.91	7.15114e-08
2033.59	1.10899e-07
2042.26	2.44587e-07
2050.94	7.53125e-07
2059.62	5.95339e-07
2068.3	7.02462e-07
2076.98	4.35455e-08
2085.66	-3.06316e-09
2094.33	1.41535e-08
2103.01	-5.61719e-08
2111.69	-1.98751e-08
2120.37	3.44196e-08
2129.05	1.53411e-07
2137.72	2.20262e-07
2146.4	1.99067e-07
2155.08	3.54374e-07
2163.76	3.57024e-07
2172.44	4.44511e-07
2181.12	5.92684e-07
2189.79	3.44769e-07
2198.47	1.97301e-07
2207.15	-1.31467e-08
2215.83	-7.07947e-09
2224.51	-3.02587e-08
2233.18	4.58619e-08
2241.86	3.96583e-08
2250.54	8.42979e-08
2259.22	1.24831e-07
2267.9	1.75732e-07
2276.58	4.13458e-07
2285.25	7.97384e-07
2293.93	1.28401e-06
2302.61	1.80859e-06
2311.29	1.87249e-06
2319.97	3.77909e-06
2328.64	2.33337e-06
2337.32	2.26781e-06
2346	1.47383e-06
2354.68	1.30705e-06
2363.36	1.33729e-06
2372.04	6.81571e-07
2380.71	2.47418e-07
2389.39	2.59449e-07
2398.07	2.95781e-07
2406.75	3.75061e-07
2415.43	1.04014e-06
2424.1	2.96044e-07
2432.78	3.1205e-07
2441.46	2.11324e-07
2450.14	1.80477e-07
2458.82	4.18675e-08
2467.5	-9.74337e-09
2476.17	4.51016e-09
2484.85	1.48356e-08
2493.53	7.1013e-08
2502.21	-3.30891e-08
2510.89	-1.32458e-07
2519.56	-1.95669e-07
2528.24	-2.13713e-07
2536.92	5.18809e-08
2545.6	-2.73711e-07
2554.28	-4.44284e-07
2562.96	-2.85593e-07
2571.63	-1.2675e-07
2580.31	-4.90652e-08
2588.99	-5.22593e-08
2597.67	5.71651e-08
2606.35	-1.4188e-08
2615.02	-1.3706e-09
2623.7	8.05663e-08
2632.38	1.68347e-09
2641.06	2.28191e-09
2649.74	-1.67219e-08
2658.42	4.38311e-08
2667.09	-1.67437e-09
2675.77	1.90399e-07
2684.45	1.10212e-06
2693.13	2.46422e-06
2701.81	1.12858e-06
2710.48	2.00884e-06
2719.16	1.31911e-07
2727.84	2.73156e-08
2736.52	6.95669e-09
2745.2	3.54756e-08
2753.88	7.85727e-08
2762.55	4.4756e-09
2771.23	7.82398e-08
2779.91	2.42252e-08
2788.59	2.8668e-08
2797.27	1.64636e-08
2805.94	1.21532e-07
2814.62	2.79207e-07
2823.3	3.81496e-07
2831.98	5.81399e-07
2840.66	8.71698e-07
2849.34	9.53755e-07
2858.01	1.04543e-06
2866.69	1.11078e-06
2875.37	6.63739e-07
2884.05	4.80451e-07
2892.73	2.43271e-07
2901.4	1.31439e-07
2910.08	7.71166e-08
2918.76	1.9172e-07
2927.44	2.42677e-07
2936.12	5.8733e-07
2944.8	1.21582e-06
2953.47	2.74794e-06
2962.15	5.26266e-06
2970.83	9.22524e-06
2979.51	1.4522e-05
2988.19	2.25982e-05
2996.86	1.22712e-05
3005.54	2.5018e-05
3014.22	1.79839e-05
3022.9	1.23322e-05
3031.58	7.77736e-06
3040.26	4.0238e-06
3048.93	1.86438e-06
3057.61	7.3066e-07
3066.29	2.66728e-07
3074.97	1.74506e-07
3083.65	1.69165e-09
3092.32	-7.7052e-09
3101	2.32111e-08
3109.68	-7.32421e-08
3118.36	3.0768e-09
3127.04	5.55025e-08
3135.72	-8.07936e-08
3144.39	2.71274e-08
3153.07	3.76802e-09
3161.75	-1.71757e-08
3170.43	-1.05374e-08
3179.11	2.02089e-09
3187.78	2.07218e-08
3196.46	-1.19471e-08
3205.14	2.48291e-10
3213.82	4.49888e-08
3222.5	-1.29821e-08
3231.18	-2.61451e-08
3239.85	-5.29623e-08
3248.53	3.32801e-08
3257.21	6.60881e-08
3265.89	5.24767e-08
3274.57	4.56418e-08
3283.24	1.20356e-07
3291.92	4.04277e-08
3300.6	-5.40874e-09
3309.28	4.47096e-08
3317.96	3.78111e-08
3326.64	6.06175e-09
3335.31	1.73549e-08
3343.99	-1.40553e-08
3352.67	-6.00436e-08
3361.35	-6.40708e-08
3370.03	3.12655e-08
3378.7	-2.21916e-10
3387.38	1.97641e-08
3396.06	8.53202e-08
3404.74	-9.0467e-09
3413.42	2.44162e-08
3422.1	-4.4083e-09
3430.77	2.65353e-08
3439.45	-2.14094e-09
3448.13	-1.16678e-08
3456.81	-1.13895e-08
3465.49	9.94618e-09
3474.16	-2.31365e-08
3482.84	6.91358e-08
3491.52	-8.32984e-08
3500.2	-7.23263e-08
3508.88	-6.97779e-08
3517.56	-1.55823e-07
3526.23	-6.86247e-08
3534.91	-1.52703e-09
3543.59	7.69856e-08
3552.27	1.07255e-07
3560.95	1.49371e-07
3569.62	3.38658e-08
3578.3	2.62952e-08
3586.98	-9.38685e-09
3595.66	1.91611e-08
3604.34	1.81598e-08
3613.02	-3.88134e-08
3621.69	-1.12104e-08
3630.37	-2.49191e-08
3639.05	-4.5409e-08
3647.73	-7.31776e-08
3656.41	-5.81546e-08
3665.08	1.7062e-08
3673.76	6.99843e-08
3682.44	2.02945e-07
3691.12	2.08552e-07
3699.8	4.05041e-07
3708.48	3.96288e-07
3717.15	6.1885e-07
3725.83	5.28633e-07
3734.51	4.52431e-07
3743.19	5.95836e-07
3751.87	6.99792e-07
3760.54	6.70439e-07
3769.22	7.16322e-07
3777.9	2.85061e-07
3786.58	3.34662e-07
3795.26	1.67815e-07
3803.94	-4.40921e-09
3812.61	6.71558e-08
3821.29	-5.22002e-08
3829.97	6.65929e-08
3838.65	-2.22088e-08
3847.33	4.20967e-08
3856	4.85322e-08
3864.68	1.47146e-08
3873.36	1.236e-09
3882.04	1.92266e-08
3890.72	4.29025e-08
3899.4	3.62577e-08
3908.07	1.67133e-07
3916.75	1.85072e-07
3925.43	2.20936e-07
3934.11	5.0524e-07
3942.79	5.23186e-07
3951.46	4.95718e-07
3960.14	6.0959e-07
3968.82	3.51836e-07
