Infrared Spectrum: Nitrile-Acetic Acid
Formula: C H3 C N
CAS: 75-05-8
State: gas
Melting point: -45.72 C
Boiling point: 81.6 C
Class: IUPAC A
Instrument: IFS66V (Bruker)
Instrument parameters: KBr Beam splitter; MCT Detector; Multipass cell
Sampling: 1 L/min Flow
Resolution: 0.1250
Temperature: 23 C
Pressure: 101.3 kPa
Origin: NIST, Anayltical Chemistry Division, 301-975-3108
cm-1	(micromol/mol)-1m-1 (base 10)
3975.02	9.34269e-07
3966.46	9.53468e-07
3957.9	7.42175e-07
3949.34	8.63671e-07
3940.79	6.15179e-07
3932.23	1.10396e-06
3923.67	1.11496e-06
3915.11	7.31675e-07
3906.56	6.88577e-07
3898	5.8568e-07
3889.44	7.18076e-07
3880.88	5.64781e-07
3872.33	4.68284e-07
3863.77	6.35579e-07
3855.21	5.9588e-07
3846.65	5.8738e-07
3838.09	1.66994e-06
3829.54	2.43892e-07
3820.98	7.93373e-07
3812.42	3.0219e-07
3803.86	3.0039e-07
3795.31	4.66484e-07
3786.75	-3.63285e-08
3778.19	5.30282e-07
3769.63	4.52785e-07
3761.08	4.53185e-07
3752.52	1.43295e-06
3743.96	2.18093e-06
3735.4	1.20596e-06
3726.85	4.23586e-07
3718.29	4.48185e-07
3709.73	6.89477e-07
3701.17	4.10586e-07
3692.62	4.43385e-07
3684.06	4.41485e-07
3675.5	6.11079e-07
3666.94	4.09486e-07
3658.38	6.46078e-07
3649.83	8.24372e-07
3641.27	6.56778e-07
3632.71	4.17886e-07
3624.15	2.51191e-07
3615.6	4.88283e-07
3607.04	8.47971e-07
3598.48	1.89693e-07
3589.92	2.39592e-07
3581.37	3.94587e-07
3572.81	4.08086e-07
3564.25	3.15189e-07
3555.69	5.12083e-07
3547.14	5.9708e-07
3538.58	5.9218e-07
3530.02	4.39685e-07
3521.46	4.58284e-07
3512.91	3.62688e-07
3504.35	3.51088e-07
3495.79	-7.05772e-08
3487.23	6.97774e-08
3478.67	2.9059e-07
3470.12	9.76763e-08
3461.56	3.41288e-07
3453	2.24292e-07
3444.44	6.65976e-08
3435.89	1.92493e-07
3427.33	3.92987e-07
3418.77	4.41485e-07
3410.21	1.16396e-07
3401.66	2.08193e-07
3393.1	7.81674e-07
3384.54	4.03686e-07
3375.98	2.9599e-07
3367.43	2.9889e-07
3358.87	7.58174e-07
3350.31	4.70484e-07
3341.75	1.24795e-07
3333.2	2.52591e-07
3324.64	1.35595e-07
3316.08	1.39995e-07
3307.52	2.29592e-07
3298.96	2.10193e-07
3290.41	3.13889e-07
3281.85	2.35792e-07
3273.29	1.73994e-07
3264.73	1.59295e-07
3256.18	7.74472e-08
3247.62	3.33689e-07
3239.06	3.76187e-07
3230.5	8.46371e-07
3221.95	1.00497e-06
3213.39	4.48485e-07
3204.83	7.74074e-07
3196.27	2.8829e-06
3187.72	3.64288e-06
3179.16	1.43095e-06
3170.6	1.70994e-06
3162.04	2.9309e-06
3153.48	1.03597e-06
3144.93	8.11873e-07
3136.37	2.43892e-07
3127.81	5.75781e-07
3119.25	4.64284e-07
3110.7	9.25569e-07
3102.14	2.11393e-06
3093.58	6.38079e-06
3085.02	3.62388e-06
3076.47	2.54091e-06
3067.91	4.59285e-06
3059.35	3.45189e-06
3050.79	2.19993e-06
3042.24	2.43992e-06
3033.68	2.03793e-06
3025.12	1.98293e-06
3016.56	1.60895e-06
3008.01	1.79094e-06
2999.45	1.97493e-06
2990.89	1.49295e-06
2982.33	3.60588e-06
2973.77	8.14373e-06
2965.22	9.84267e-06
2956.66	3.39389e-06
2948.1	7.74474e-06
2939.54	8.10273e-06
2930.99	4.23186e-06
2922.43	2.73391e-06
2913.87	2.42392e-06
2905.31	3.20389e-06
2896.76	2.28692e-06
2888.2	2.71891e-06
2879.64	4.33786e-06
2871.08	2.80791e-06
2862.53	1.80794e-06
2853.97	2.20493e-06
2845.41	1.57395e-06
2836.85	8.69071e-07
2828.3	6.0818e-07
2819.74	3.0489e-07
2811.18	2.49591e-07
2802.62	2.48791e-07
2794.06	4.72084e-07
2785.51	1.55095e-07
2776.95	2.37692e-07
2768.39	3.52488e-07
2759.83	5.03983e-07
2751.28	5.27582e-07
2742.72	4.96983e-07
2734.16	4.02686e-07
2725.6	3.68188e-07
2717.05	1.94793e-07
2708.49	1.87594e-07
2699.93	-2.20992e-07
2691.37	2.01693e-07
2682.82	1.26895e-07
2674.26	1.39895e-07
2665.7	2.8609e-07
2657.14	2.34792e-07
2648.59	2.52191e-07
2640.03	8.73371e-07
2631.47	1.30896e-06
2622.91	3.56388e-06
2614.35	2.06993e-06
2605.8	1.38895e-06
2597.24	8.39572e-07
2588.68	4.32485e-07
2580.12	1.86094e-07
2571.57	2.72191e-07
2563.01	4.22586e-07
2554.45	5.78881e-07
2545.89	3.70388e-07
2537.34	4.08686e-07
2528.78	5.10783e-07
2520.22	6.54278e-07
2511.66	7.22876e-07
2503.11	1.15696e-06
2494.55	8.44072e-07
2485.99	1.04196e-06
2477.43	8.64171e-07
2468.87	9.22169e-07
2460.32	8.20172e-07
2451.76	8.58571e-07
2443.2	1.39495e-06
2434.64	1.69194e-06
2426.09	1.20196e-06
2417.53	2.36392e-06
2408.97	1.78694e-06
2400.41	2.72591e-06
2391.86	1.07296e-06
2383.3	7.29276e-07
2374.74	8.17872e-07
2366.18	5.9928e-07
2357.63	4.45785e-07
2349.07	4.82684e-07
2340.51	6.76177e-07
2331.95	1.06696e-06
2323.4	2.70791e-06
2314.84	4.78184e-06
2306.28	4.46385e-06
2297.72	2.74391e-06
2289.16	4.56985e-06
2280.61	5.9028e-06
2272.05	5.39782e-06
2263.49	2.21593e-06
2254.93	4.57085e-06
2246.38	2.62791e-06
2237.82	1.45895e-06
2229.26	3.98686e-07
2220.7	2.03593e-07
2212.15	2.4259e-08
2203.59	9.29268e-08
2195.03	1.25395e-07
2186.47	-6.27478e-08
2177.92	9.44968e-08
2169.36	-8.20469e-08
2160.8	5.98677e-08
2152.24	-2.6816e-09
2143.69	-1.28394e-08
2135.13	-2.35289e-08
2126.57	6.91159e-09
2118.01	4.08284e-08
2109.45	1.67194e-07
2100.9	2.07993e-07
2092.34	3.97286e-07
2083.78	4.94883e-07
2075.22	5.9508e-07
2066.67	5.02583e-07
2058.11	3.0829e-07
2049.55	2.34292e-07
2040.99	-6.66276e-08
2032.44	6.38178e-08
2023.88	-2.4139e-08
2015.32	-7.88471e-08
2006.76	-1.52092e-08
1998.21	5.72877e-08
1989.65	-1.57094e-07
1981.09	1.34495e-07
1972.53	7.32472e-08
1963.97	3.19864e-09
1955.42	1.08796e-07
1946.86	-3.85665e-09
1938.3	4.30182e-08
1929.74	9.98564e-08
1921.19	1.88994e-07
1912.63	1.87594e-07
1904.07	3.96886e-07
1895.51	2.64591e-07
1886.96	1.97693e-07
1878.4	1.59495e-07
1869.84	3.61888e-07
1861.28	3.45288e-07
1852.73	5.66781e-07
1844.17	2.9649e-06
1835.61	4.25786e-07
1827.05	4.97983e-07
1818.5	5.9218e-07
1809.94	4.33285e-07
1801.38	8.8577e-07
1792.82	1.00097e-06
1784.26	2.63091e-07
1775.71	5.79281e-07
1767.15	3.42888e-07
1758.59	2.9689e-07
1750.03	3.26789e-07
1741.48	1.99393e-07
1732.92	3.09589e-07
1724.36	9.63765e-08
1715.8	1.84594e-07
1707.25	2.8499e-07
1698.69	1.86194e-07
1690.13	4.86384e-07
1681.57	8.59068e-08
1673.02	2.0479e-08
1664.46	1.26796e-07
1655.9	-5.91958e-09
1647.34	1.56495e-06
1638.79	2.65391e-07
1630.23	2.64191e-07
1621.67	4.45385e-07
1613.11	1.00897e-06
1604.55	1.72994e-06
1596	1.54795e-06
1587.44	2.82991e-06
1578.88	2.8639e-06
1570.32	3.1449e-06
1561.77	3.17989e-06
1553.21	4.13486e-06
1544.65	6.89377e-06
1536.09	8.08673e-06
1527.54	3.24089e-05
1518.98	1.64994e-05
1510.42	1.33596e-05
1501.86	1.32496e-05
1493.31	1.55395e-05
1484.75	1.54895e-05
1476.19	1.87494e-05
1467.63	1.82494e-05
1459.08	1.30196e-05
1450.52	2.32792e-05
1441.96	1.40595e-05
1433.4	1.58195e-05
1424.84	2.39392e-05
1416.29	2.36892e-05
1407.73	3.70688e-05
1399.17	2.30792e-05
1390.61	2.04493e-05
1382.06	1.34196e-05
1373.5	1.49895e-05
1364.94	1.10996e-05
1356.38	3.23589e-06
1347.83	2.75891e-06
1339.27	4.52685e-06
1330.71	3.53788e-06
1322.15	2.21193e-06
1313.6	1.56195e-06
1305.04	8.12373e-07
1296.48	1.10296e-06
1287.92	1.00997e-06
1279.36	4.47785e-07
1270.81	4.03386e-07
1262.25	5.40782e-07
1253.69	6.94977e-07
1245.13	1.08096e-07
1236.58	-1.9969e-08
1228.02	6.35777e-08
1219.46	2.5389e-08
1210.9	-6.70075e-08
1202.35	-1.19696e-07
1193.79	9.95665e-08
1185.23	-8.4837e-08
1176.67	-1.58895e-07
1168.12	-1.32595e-07
1159.56	-3.83885e-08
1151	-5.67652e-09
1142.44	-1.05096e-07
1133.89	-1.07096e-07
1125.33	8.44361e-09
1116.77	1.45195e-07
1108.21	6.16379e-07
1099.65	1.43995e-06
1091.1	1.39995e-06
1082.54	2.41092e-06
1073.98	2.8269e-06
1065.42	3.63388e-06
1056.87	4.55985e-06
1048.31	4.57285e-06
1039.75	3.0369e-06
1031.19	2.27993e-05
1022.64	3.28289e-06
1014.08	3.18989e-06
1005.52	2.01993e-06
996.963	1.20496e-06
988.406	7.70574e-07
979.848	4.94383e-07
971.29	2.07993e-07
962.733	-4.83182e-08
954.175	1.03496e-07
945.618	1.43495e-06
937.06	3.84087e-06
928.502	4.87384e-06
919.945	1.05796e-05
911.387	6.69178e-06
902.829	3.29789e-06
894.272	1.64695e-06
885.714	6.67077e-07
877.157	6.52277e-08
868.599	-1.58295e-07
860.041	1.25395e-08
851.484	-1.88692e-08
842.926	-4.60384e-07
834.368	-2.9339e-07
825.811	1.25995e-08
817.253	-1.32495e-07
808.696	-2.81791e-07
800.138	-1.03696e-07
791.58	4.71481e-08
783.023	-1.24496e-07
774.465	7.96864e-09
765.907	-4.51882e-08
757.35	3.1019e-07
748.792	5.58881e-07
740.235	2.81691e-06
731.677	5.55482e-06
723.119	6.0698e-06
714.562	1.54795e-06
706.004	5.83081e-06
697.446	5.54881e-06
688.889	2.62991e-06
680.331	5.9658e-07
671.774	-3.91286e-08
663.216	-1.11896e-07
654.658	7.80272e-08
646.101	8.30369e-08
637.543	-5.08683e-07
628.985	-1.56795e-07
620.428	-1.10596e-07
611.87	-1.36795e-07
603.313	-7.25176e-07
594.755	1.10296e-07
586.197	-2.8919e-07
577.64	-5.15483e-07
