Infrared Spectrum: Nitrile-Acetic Acid
Formula: C H3 C N
CAS: 75-05-8
State: gas
Melting point: -45.72 C
Boiling point: 81.6 C
Class: IUPAC A
Instrument: IFS66V (Bruker)
Instrument parameters: KBr Beam splitter; MCT Detector; Multipass cell
Sampling: 1 L/min Flow
Resolution: 0.9640
Temperature: 23 C
Pressure: 101.3 kPa
Origin: NIST, Anayltical Chemistry Division, 301-975-3108
cm-1	(micromol/mol)-1m-1 (base 10)
575.169	-1.97361e-07
583.847	-5.98813e-07
592.525	-1.94979e-07
601.203	-1.05105e-07
609.882	-2.1093e-07
618.56	-8.39808e-08
627.238	-8.61046e-09
635.916	-1.3284e-07
644.594	-7.55372e-08
653.272	1.27564e-07
661.951	1.51508e-08
670.629	2.33954e-07
679.307	5.15413e-07
687.985	1.94321e-06
696.663	5.80289e-06
705.341	6.45384e-06
714.019	2.69502e-06
722.698	5.11231e-06
731.376	5.05961e-06
740.054	2.32078e-06
748.732	5.85936e-07
757.41	3.3217e-08
766.088	-8.46987e-08
774.767	-1.08851e-07
783.445	-1.30925e-07
792.123	-1.3558e-07
800.801	-8.94037e-08
809.479	-1.10372e-07
818.157	-6.89087e-08
826.835	-1.1565e-07
835.514	-1.72478e-07
844.192	-7.61453e-08
852.87	-8.60515e-08
861.548	-6.986e-08
870.226	-1.02737e-07
878.904	1.20549e-07
887.583	7.92207e-07
896.261	2.49422e-06
904.939	4.86132e-06
913.617	4.06968e-06
922.295	1.15783e-06
930.973	4.39064e-06
939.651	2.94692e-06
948.33	5.78371e-07
957.008	1.66948e-09
965.686	9.75411e-08
974.364	2.30629e-07
983.042	5.84918e-07
991.72	1.32381e-06
1000.4	2.47389e-06
1009.08	2.72977e-06
1017.75	3.11414e-06
1026.43	1.09837e-05
1035.11	4.11778e-06
1043.79	4.13866e-06
1052.47	6.26927e-06
1061.15	3.81677e-06
1069.82	5.57263e-06
1078.5	3.33764e-06
1087.18	2.34519e-06
1095.86	1.3172e-06
1104.54	9.93026e-07
1113.21	6.9809e-07
1121.89	2.38639e-07
1130.57	1.33369e-07
1139.25	3.93115e-09
1147.93	-1.26103e-08
1156.61	-4.11754e-08
1165.28	-1.1441e-08
1173.96	-5.26584e-08
1182.64	-5.49919e-08
1191.32	-5.85657e-08
1200	-3.03222e-08
1208.67	-6.68315e-09
1217.35	1.48572e-08
1226.03	1.86445e-08
1234.71	3.87482e-08
1243.39	6.82791e-08
1252.07	9.22602e-08
1260.74	1.25766e-07
1269.42	4.16085e-07
1278.1	5.89883e-07
1286.78	1.43859e-06
1295.46	3.20229e-06
1304.13	9.13464e-07
1312.81	1.36547e-06
1321.49	1.87337e-06
1330.17	3.11366e-06
1338.85	4.27967e-06
1347.52	2.93825e-06
1356.2	4.39029e-06
1364.88	1.16484e-05
1373.56	1.58662e-05
1382.24	1.32122e-05
1390.92	1.9397e-05
1399.59	2.44917e-05
1408.27	3.13796e-05
1416.95	2.23758e-05
1425.63	1.85139e-05
1434.31	3.58765e-05
1442.98	1.57355e-05
1451.66	1.6343e-05
1460.34	1.29084e-05
1469.02	1.65247e-05
1477.7	1.97688e-05
1486.38	1.44006e-05
1495.05	2.71316e-05
1503.73	1.17321e-05
1512.41	1.05307e-05
1521.09	1.05573e-05
1529.77	9.90285e-06
1538.44	1.08198e-05
1547.12	6.75928e-06
1555.8	7.26818e-06
1564.48	5.02208e-06
1573.16	4.14067e-06
1581.83	2.75396e-06
1590.51	2.08409e-06
1599.19	1.31249e-06
1607.87	6.72147e-07
1616.55	2.34047e-06
1625.23	6.00841e-07
1633.9	2.82944e-07
1642.58	1.6965e-07
1651.26	3.21347e-07
1659.94	9.48159e-08
1668.62	3.53477e-07
1677.29	2.91143e-08
1685.97	1.89698e-07
1694.65	2.28806e-07
1703.33	1.08437e-07
1712.01	7.76428e-08
1720.69	1.24264e-07
1729.36	2.58851e-07
1738.04	2.52481e-07
1746.72	2.90004e-07
1755.4	2.46052e-07
1764.08	2.76157e-07
1772.75	1.15307e-06
1781.43	3.40786e-07
1790.11	3.53951e-07
1798.79	3.74996e-07
1807.47	4.65443e-07
1816.15	5.47239e-07
1824.82	7.50071e-07
1833.5	4.68774e-07
1842.18	6.62866e-07
1850.86	5.75044e-07
1859.54	3.61962e-07
1868.21	3.79853e-07
1876.89	1.73243e-07
1885.57	2.06906e-07
1894.25	2.92177e-07
1902.93	3.80973e-07
1911.6	1.77663e-07
1920.28	1.85746e-07
1928.96	1.15182e-07
1937.64	7.10196e-08
1946.32	6.13916e-08
1955	2.91702e-08
1963.67	9.39501e-10
1972.35	2.71188e-08
1981.03	3.1862e-08
1989.71	5.10064e-09
1998.39	-4.47104e-09
2007.06	9.75812e-09
2015.74	5.11814e-09
2024.42	4.87898e-08
2033.1	3.88845e-08
2041.78	9.68477e-08
2050.46	1.54498e-07
2059.13	3.78422e-07
2067.81	3.49789e-07
2076.49	4.08346e-07
2085.17	5.32212e-07
2093.85	3.31416e-07
2102.52	1.87027e-07
2111.2	6.61963e-08
2119.88	6.35851e-08
2128.56	6.11358e-09
2137.24	7.86285e-08
2145.91	1.94582e-08
2154.59	4.63677e-08
2163.27	3.29581e-08
2171.95	6.19586e-08
2180.63	6.45974e-08
2189.31	7.88383e-08
2197.98	1.2727e-07
2206.66	1.1167e-07
2215.34	2.32675e-07
2224.02	3.71673e-07
2232.7	9.57693e-07
2241.37	2.39807e-06
2250.05	4.2198e-06
2258.73	3.45121e-06
2267.41	3.23085e-06
2276.09	6.57699e-06
2284.77	5.73055e-06
2293.44	4.01318e-06
2302.12	1.90824e-06
2310.8	4.65117e-06
2319.48	4.24307e-06
2328.16	1.62081e-06
2336.83	7.80647e-07
2345.51	5.93306e-07
2354.19	5.72568e-07
2362.87	7.12795e-07
2371.55	7.72267e-07
2380.23	1.02946e-06
2388.9	9.02551e-07
2397.58	1.13647e-06
2406.26	1.55622e-06
2414.94	1.30259e-06
2423.62	1.55187e-06
2432.29	1.45323e-06
2440.97	1.04495e-06
2449.65	8.83198e-07
2458.33	1.00898e-06
2467.01	8.18439e-07
2475.68	1.08524e-06
2484.36	9.82923e-07
2493.04	1.00792e-06
2501.72	9.02495e-07
2510.4	7.01491e-07
2519.08	5.46255e-07
2527.75	5.48136e-07
2536.43	4.4319e-07
2545.11	3.73145e-07
2553.79	4.66832e-07
2562.47	3.36811e-07
2571.14	2.5901e-07
2579.82	2.33114e-07
2588.5	4.31612e-07
2597.18	8.04165e-07
2605.86	1.24345e-06
2614.54	2.07986e-06
2623.21	3.41712e-06
2631.89	1.29045e-06
2640.57	9.09032e-07
2649.25	3.78274e-07
2657.93	2.84595e-07
2666.6	3.51479e-07
2675.28	2.50354e-07
2683.96	1.80695e-07
2692.64	1.51931e-07
2701.32	7.11948e-08
2709.99	9.95488e-08
2718.67	2.92399e-07
2727.35	2.74518e-07
2736.03	4.1322e-07
2744.71	4.71314e-07
2753.39	4.8184e-07
2762.06	4.86117e-07
2770.74	2.05118e-07
2779.42	2.21024e-07
2788.1	1.32332e-07
2796.78	2.23382e-07
2805.45	2.50333e-07
2814.13	1.88726e-07
2822.81	6.5149e-07
2831.49	5.02128e-07
2840.17	7.26897e-07
2848.85	1.85667e-06
2857.52	2.18755e-06
2866.2	2.24545e-06
2874.88	3.6756e-06
2883.56	3.98614e-06
2892.24	2.87107e-06
2900.91	2.94251e-06
2909.59	2.56198e-06
2918.27	2.14323e-06
2926.95	2.42371e-06
2935.63	6.16167e-06
2944.31	9.16152e-06
2952.98	6.06191e-06
2961.66	7.66381e-06
2970.34	9.671e-06
2979.02	5.13415e-06
2987.7	2.51279e-06
2996.37	2.40357e-06
3005.05	4.09836e-06
3013.73	1.38193e-05
3022.41	1.11224e-05
3031.09	8.08786e-06
3039.76	6.61208e-06
3048.44	3.26122e-06
3057.12	2.48314e-06
3065.8	2.06653e-06
3074.48	1.87149e-06
3083.16	1.45953e-06
3091.83	1.25023e-06
3100.51	1.02587e-06
3109.19	8.1158e-07
3117.87	6.22871e-07
3126.55	4.54938e-07
3135.22	4.95343e-07
3143.9	6.1217e-07
3152.58	1.06373e-06
3161.26	1.98605e-06
3169.94	2.28561e-06
3178.62	3.07193e-06
3187.29	3.40529e-06
3195.97	3.10842e-06
3204.65	8.42216e-07
3213.33	5.37923e-07
3222.01	9.36477e-07
3230.68	8.93465e-07
3239.36	3.14668e-07
3248.04	2.23481e-07
3256.72	2.13863e-07
3265.4	1.86399e-07
3274.07	1.92717e-07
3282.75	1.49196e-07
3291.43	1.96376e-07
3300.11	2.61574e-07
3308.79	2.39978e-07
3317.47	3.49077e-07
3326.14	2.74336e-07
3334.82	2.95776e-07
3343.5	3.04203e-07
3352.18	3.58083e-07
3360.86	3.94173e-07
3369.53	3.09337e-07
3378.21	3.91847e-07
3386.89	4.19889e-07
3395.57	3.39842e-07
3404.25	3.32809e-07
3412.93	3.28538e-07
3421.6	3.3539e-07
3430.28	2.97104e-07
3438.96	3.10603e-07
3447.64	3.26562e-07
3456.32	1.7452e-07
3464.99	2.42072e-07
3473.67	2.17306e-07
3482.35	2.09326e-07
3491.03	2.10703e-07
3499.71	2.76896e-07
3508.39	2.95331e-07
3517.06	2.92542e-07
3525.74	2.85728e-07
3534.42	3.44605e-07
3543.1	3.12637e-07
3551.78	3.19745e-07
3560.45	3.16034e-07
3569.13	3.60763e-07
3577.81	2.76278e-07
3586.49	5.90164e-07
3595.17	3.96066e-07
3603.84	3.2726e-07
3612.52	6.80084e-07
3621.2	4.60813e-07
3629.88	1.07659e-06
3638.56	4.90585e-07
3647.24	1.03456e-06
3655.91	1.04355e-06
3664.59	5.39408e-07
3673.27	5.88788e-07
3681.95	6.65796e-07
3690.63	7.42754e-07
3699.3	4.85205e-07
3707.98	4.74966e-07
3716.66	4.62577e-07
3725.34	5.59135e-07
3734.02	5.60425e-07
3742.7	4.77609e-07
3751.37	8.43679e-07
3760.05	7.16588e-07
3768.73	4.35862e-07
3777.41	3.86162e-07
3786.09	4.4788e-07
3794.76	4.33214e-07
3803.44	5.02185e-07
3812.12	3.96059e-07
3820.8	1.02486e-06
3829.48	4.78965e-07
3838.16	1.53406e-06
3846.83	4.55517e-07
3855.51	6.06083e-07
3864.19	7.84595e-07
3872.87	5.10522e-07
3881.55	6.18651e-07
3890.22	6.07212e-07
3898.9	8.85282e-07
3907.58	6.25463e-07
3916.26	8.86354e-07
3924.94	9.74071e-07
3933.61	8.09838e-07
3942.29	8.99028e-07
3950.97	8.24025e-07
3959.65	8.46335e-07
3968.33	1.0342e-06
