Infrared Spectrum: Dichloromethane
Formula: C H2 Cl2
CAS: 75-09-2
State: gas
Melting point: -95.1 C
Boiling point: 40 C
Class: IUPAC A
Instrument: IFS66V (Bruker)
Instrument parameters: KBr Beam Splitter; MCT Detector; Multipass cell
Sampling: 1 L/min Flow
Resolution: 0.2410
Temperature: 23 C
Pressure: 101.3 Pa
Origin: NIST, Analytical Chemistry Division, 301-975-3108
cm-1	(micromol/mol)-1m-1 (base 10)
575.05	-2.89222e-07
583.608	2.60633e-07
592.165	2.08839e-07
600.723	-7.656e-07
609.281	-7.30935e-07
617.838	-2.33639e-08
626.396	-3.9434e-07
634.954	5.96267e-07
643.511	5.84507e-07
652.069	7.90427e-07
660.626	1.88098e-06
669.184	4.94102e-06
677.742	9.75306e-06
686.299	1.58753e-05
694.857	2.40526e-05
703.415	3.35873e-05
711.972	3.00008e-05
720.53	6.2785e-05
729.088	6.52795e-05
737.645	0.000193007
746.203	0.000693075
754.761	0.000662819
763.318	0.000723583
771.876	0.000256467
780.434	8.70177e-06
788.991	2.9733e-08
797.549	7.90429e-08
806.106	3.54425e-07
814.664	5.09169e-08
823.222	9.43278e-08
831.779	1.30402e-07
840.337	-8.24826e-08
848.895	-4.29016e-08
857.452	8.02725e-08
866.01	5.53259e-07
874.568	1.17041e-06
883.125	1.82172e-06
891.683	2.80238e-06
900.241	3.26291e-06
908.798	3.53065e-06
917.356	3.06342e-06
925.914	2.35373e-06
934.471	1.68132e-06
943.029	7.38565e-07
951.586	4.82092e-07
960.144	8.95875e-08
968.702	2.85855e-07
977.259	2.98358e-07
985.817	2.89526e-07
994.375	3.39384e-07
1002.93	3.83578e-07
1011.49	1.13513e-07
1020.05	1.55791e-07
1028.61	2.51013e-07
1037.16	2.72186e-07
1045.72	3.54683e-07
1054.28	-5.38964e-08
1062.84	-2.08716e-07
1071.39	-1.00309e-07
1079.95	-1.02767e-07
1088.51	9.35729e-08
1097.07	-1.28794e-07
1105.62	2.99359e-08
1114.18	-1.35218e-07
1122.74	-2.90076e-07
1131.3	-3.61422e-08
1139.85	-1.7454e-08
1148.41	-1.71268e-07
1156.97	-1.42181e-07
1165.53	-5.47931e-08
1174.09	-4.20466e-08
1182.64	1.21485e-07
1191.2	1.72638e-07
1199.76	-9.80412e-08
1208.32	-1.24296e-07
1216.87	7.54195e-08
1225.43	-4.54709e-08
1233.99	1.134e-07
1242.55	2.81901e-06
1251.1	4.83588e-05
1259.66	0.00021208
1268.22	0.000290969
1276.78	0.000241194
1285.33	3.40891e-05
1293.89	4.98799e-07
1302.45	-1.68182e-07
1311.01	9.29135e-08
1319.57	-1.42817e-08
1328.12	1.03991e-08
1336.68	-7.88746e-08
1345.24	4.95054e-08
1353.8	3.68478e-07
1362.35	-2.1245e-07
1370.91	-4.30052e-08
1379.47	-5.04148e-08
1388.03	1.31558e-08
1396.58	2.88545e-08
1405.14	3.54357e-07
1413.7	5.42959e-07
1422.26	1.18631e-06
1430.81	1.28338e-06
1439.37	2.07144e-06
1447.93	3.72317e-06
1456.49	6.58525e-06
1465.05	7.59475e-06
1473.6	7.68068e-06
1482.16	4.39055e-07
1490.72	1.26702e-07
1499.28	1.33341e-07
1507.83	-6.62163e-08
1516.39	5.80518e-08
1524.95	2.5182e-08
1533.51	-3.15702e-08
1542.06	1.48371e-07
1550.62	3.60318e-07
1559.18	4.85366e-07
1567.74	-2.20933e-08
1576.29	-2.20281e-07
1584.85	6.96551e-08
1593.41	6.83e-08
1601.97	7.13731e-08
1610.53	2.4006e-08
1619.08	1.74499e-07
1627.64	-5.07132e-08
1636.2	-6.25647e-08
1644.76	-1.23896e-07
1653.31	-4.03742e-07
1661.87	2.39605e-08
1670.43	4.85577e-09
1678.99	-7.5866e-08
1687.54	-7.81152e-08
1696.1	-2.14148e-07
1704.66	4.84631e-08
1713.22	8.06436e-08
1721.77	7.66063e-08
1730.33	6.62227e-08
1738.89	2.96339e-08
1747.45	-8.79832e-08
1756.01	-9.78102e-08
1764.56	5.07586e-08
1773.12	-4.34663e-08
1781.68	9.03978e-08
1790.24	1.19705e-07
1798.79	1.01515e-07
1807.35	-2.36204e-08
1815.91	-2.75521e-08
1824.47	-4.09934e-08
1833.02	6.23792e-08
1841.58	-3.8908e-08
1850.14	6.12069e-08
1858.7	-7.58515e-10
1867.25	-6.5828e-08
1875.81	-2.38677e-08
1884.37	-3.73664e-08
1892.93	1.00441e-07
1901.49	3.3863e-08
1910.04	-7.39052e-09
1918.6	3.72045e-08
1927.16	-4.88996e-08
1935.72	-6.53778e-08
1944.27	-1.27941e-07
1952.83	-1.08736e-07
1961.39	-8.59923e-09
1969.95	9.19167e-08
1978.5	1.94441e-07
1987.06	3.46256e-07
1995.62	-4.24013e-08
2004.18	5.25722e-08
2012.73	5.71724e-08
2021.29	7.71657e-08
2029.85	-2.31529e-08
2038.41	1.33252e-07
2046.97	5.9029e-07
2055.52	6.46491e-07
2064.08	7.15279e-07
2072.64	3.26845e-07
2081.2	1.39816e-08
2089.75	2.99577e-08
2098.31	5.14671e-08
2106.87	6.7556e-08
2115.43	-3.49426e-08
2123.98	2.97039e-09
2132.54	1.83832e-07
2141.1	2.31763e-07
2149.66	1.9989e-07
2158.21	1.07046e-07
2166.77	4.6732e-07
2175.33	4.70377e-07
2183.89	4.0026e-07
2192.45	2.7705e-07
2201	4.03886e-08
2209.56	7.78478e-08
2218.12	-2.9251e-08
2226.68	2.10556e-08
2235.23	-3.21032e-08
2243.79	1.46872e-07
2252.35	1.24217e-07
2260.91	1.2153e-07
2269.46	3.02236e-07
2278.02	5.24109e-07
2286.58	8.79912e-07
2295.14	1.2353e-06
2303.69	1.73504e-06
2312.25	1.73241e-06
2320.81	2.5366e-06
2329.37	1.6848e-06
2337.93	2.21417e-06
2346.48	9.47304e-07
2355.04	8.84887e-07
2363.6	6.46046e-07
2372.16	4.14465e-07
2380.71	3.95947e-07
2389.27	2.41764e-07
2397.83	1.88829e-07
2406.39	4.10504e-07
2414.94	8.2872e-07
2423.5	2.1008e-07
2432.06	1.91963e-07
2440.62	3.56054e-07
2449.17	1.67144e-07
2457.73	8.31619e-08
2466.29	1.55996e-07
2474.85	-1.35095e-07
2483.41	-3.35411e-08
2491.96	6.22282e-08
2500.52	1.02547e-07
2509.08	4.26096e-09
2517.64	-2.27111e-07
2526.19	-3.07891e-07
2534.75	-3.719e-07
2543.31	-3.38028e-07
2551.87	-6.46717e-07
2560.42	-4.06332e-07
2568.98	-1.66258e-07
2577.54	-6.84846e-10
2586.1	5.79163e-09
2594.65	4.41512e-08
2603.21	4.44513e-08
2611.77	-2.04144e-08
2620.33	6.5938e-10
2628.89	-8.18878e-08
2637.44	-9.17102e-08
2646	1.27334e-07
2654.56	-2.8427e-08
2663.12	-2.76121e-08
2671.67	3.63212e-07
2680.23	3.55259e-07
2688.79	2.04928e-06
2697.35	1.70361e-06
2705.9	2.94366e-06
2714.46	6.92929e-07
2723.02	-2.9241e-08
2731.58	-8.61905e-08
2740.13	8.37904e-08
2748.69	8.32092e-09
2757.25	1.3167e-07
2765.81	8.03971e-08
2774.37	-6.52195e-08
2782.92	-1.01956e-07
2791.48	4.2354e-08
2800.04	7.74313e-08
2808.6	2.12287e-07
2817.15	1.9198e-07
2825.71	3.69693e-07
2834.27	8.72074e-07
2842.83	1.26372e-06
2851.38	8.54995e-07
2859.94	1.16867e-06
2868.5	8.56686e-07
2877.06	6.28142e-07
2885.61	2.31175e-07
2894.17	7.95877e-08
2902.73	7.15832e-08
2911.29	1.83866e-07
2919.85	1.94676e-07
2928.4	2.71752e-07
2936.96	5.236e-07
2945.52	1.50212e-06
2954.08	2.85602e-06
2962.63	4.75148e-06
2971.19	1.24743e-05
2979.75	1.44456e-05
2988.31	2.55883e-05
2996.86	1.14132e-05
3005.42	2.91773e-05
3013.98	1.97245e-05
3022.54	1.24279e-05
3031.09	6.99543e-06
3039.65	4.0047e-06
3048.21	1.87984e-06
3056.77	7.12433e-07
3065.33	3.9214e-07
3073.88	2.93122e-07
3082.44	-3.53255e-08
3091	-1.74583e-07
3099.56	-2.2064e-07
3108.11	-9.43587e-08
3116.67	1.50041e-07
3125.23	1.53414e-07
3133.79	1.02224e-07
3142.34	9.61613e-08
3150.9	2.96394e-08
3159.46	-3.09745e-08
3168.02	-1.32434e-07
3176.57	2.24981e-08
3185.13	-1.59951e-07
3193.69	1.93781e-07
3202.25	4.58265e-08
3210.81	-5.2413e-08
3219.36	1.58099e-07
3227.92	-1.47628e-07
3236.48	-6.03874e-08
3245.04	-9.50654e-08
3253.59	1.02325e-07
3262.15	-1.06821e-07
3270.71	3.1321e-08
3279.27	7.20225e-09
3287.82	1.67266e-07
3296.38	1.3339e-07
3304.94	-1.37315e-07
3313.5	-1.65709e-07
3322.05	1.95572e-07
3330.61	6.08067e-08
3339.17	-4.3379e-08
3347.73	-1.2274e-07
3356.29	-1.57993e-07
3364.84	-1.42466e-07
3373.4	-2.35623e-07
3381.96	7.6972e-08
3390.52	-6.56906e-08
3399.07	-8.06872e-08
3407.63	1.9464e-07
3416.19	1.15923e-07
3424.75	-1.38305e-07
3433.3	-1.76268e-08
3441.86	2.85716e-08
3450.42	1.58788e-08
3458.98	2.39605e-08
3467.53	-2.2627e-07
3476.09	-5.14908e-08
3484.65	-1.67676e-07
3493.21	1.03145e-08
3501.77	-4.32435e-08
3510.32	-7.98077e-09
3518.88	-3.19962e-07
3527.44	1.13811e-07
3536	-2.40392e-07
3544.55	2.14126e-07
3553.11	1.72075e-07
3561.67	1.82603e-07
3570.23	8.42661e-08
3578.78	-6.21909e-08
3587.34	-1.07823e-07
3595.9	7.75568e-08
3604.46	9.48262e-08
3613.01	-2.55121e-08
3621.57	-5.00038e-09
3630.13	-1.73423e-07
3638.69	-5.08887e-08
3647.25	-9.67643e-08
3655.8	1.04111e-07
3664.36	1.44782e-07
3672.92	1.45518e-11
3681.48	1.83811e-07
3690.03	3.90615e-07
3698.59	4.67118e-07
3707.15	5.92987e-07
3715.71	8.38351e-07
3724.26	7.54488e-07
3732.82	6.48475e-07
3741.38	5.86942e-07
3749.94	6.32729e-07
3758.49	7.98258e-07
3767.05	6.50425e-07
3775.61	1.82804e-07
3784.17	3.41733e-07
3792.73	6.0824e-08
3801.28	-6.72222e-08
3809.84	2.05346e-07
3818.4	-1.74803e-07
3826.96	-1.07263e-07
3835.51	9.71699e-09
3844.07	2.6119e-07
3852.63	-6.11268e-08
3861.19	-5.09223e-08
3869.74	-1.60774e-07
3878.3	-2.80447e-07
3886.86	-1.96777e-07
3895.42	2.83349e-07
3903.97	-1.19468e-07
3912.53	2.41488e-08
3921.09	2.79424e-07
3929.65	2.45417e-07
3938.21	4.20364e-07
3946.76	3.72717e-07
3955.32	5.54669e-07
3963.88	5.02243e-07
3972.44	3.10192e-07
