Infrared Spectrum: Nitrile-Acetic Acid
Formula: C H3 C N
CAS: 75-05-8
State: gas
Melting point: -45.72 C
Boiling point: 81.6 C
Class: IUPAC A
Instrument: IFS66V (Bruker)
Instrument parameters: KBr Beam splitter; MCT Detector; Multipass cell
Sampling: 1 L/min Flow
Resolution: 0.4820
Temperature: 23 C
Pressure: 101.3 kPa
Origin: NIST, Anayltical Chemistry Division, 301-975-3108
cm-1	(micromol/mol)-1m-1 (base 10)
574.928	-7.19979e-07
583.606	1.5512e-07
592.284	-2.42414e-07
600.962	-6.15227e-07
609.641	-1.93365e-07
618.319	-2.16174e-08
626.997	8.13187e-08
635.675	-2.34153e-07
644.353	-1.33037e-07
653.031	3.57802e-07
661.71	8.14933e-08
670.388	2.48462e-07
679.066	6.91406e-07
687.744	1.92771e-06
696.422	5.78537e-06
705.1	7.7814e-06
713.778	3.09364e-06
722.457	5.89156e-06
731.135	5.41733e-06
739.813	1.97714e-06
748.491	7.27356e-07
757.169	1.58663e-07
765.847	-5.45455e-08
774.526	-1.06235e-07
783.204	-2.77843e-07
791.882	-2.47398e-07
800.56	-7.98025e-08
809.238	-2.08109e-07
817.916	2.25336e-09
826.594	-5.81453e-08
835.273	-1.57021e-07
843.951	-1.55165e-07
852.629	-1.23095e-07
861.307	-4.72249e-08
869.985	-5.01124e-08
878.663	9.48607e-08
887.342	1.04889e-06
896.02	2.27101e-06
904.698	5.97251e-06
913.376	5.04329e-06
922.054	1.13221e-06
930.732	4.97137e-06
939.41	3.03674e-06
948.089	7.0959e-07
956.767	1.10594e-07
965.445	9.45492e-08
974.123	2.93296e-07
982.801	4.7626e-07
991.479	2.30307e-06
1000.16	2.57438e-06
1008.84	1.7278e-06
1017.51	3.38807e-06
1026.19	6.74977e-06
1034.87	4.59788e-06
1043.55	2.57583e-06
1052.23	4.23835e-06
1060.9	3.06696e-06
1069.58	2.97433e-06
1078.26	2.51029e-06
1086.94	2.15456e-06
1095.62	1.50249e-06
1104.3	7.55575e-07
1112.97	1.21704e-06
1121.65	2.44197e-07
1130.33	6.75059e-08
1139.01	1.21624e-08
1147.69	-4.17847e-08
1156.36	-8.80122e-08
1165.04	-1.13523e-08
1173.72	-3.16662e-08
1182.4	-4.57289e-09
1191.08	-6.08897e-08
1199.76	-1.37132e-07
1208.43	-7.9129e-08
1217.11	-4.00379e-08
1225.79	6.83924e-08
1234.47	-4.35438e-08
1243.15	-2.48691e-08
1251.82	4.14439e-08
1260.5	1.29204e-07
1269.18	3.81626e-07
1277.86	6.64165e-07
1286.54	1.46949e-06
1295.21	9.41434e-07
1303.89	7.87982e-07
1312.57	1.53773e-06
1321.25	1.55983e-06
1329.93	3.51306e-06
1338.61	4.37184e-06
1347.28	3.12892e-06
1355.96	4.44704e-06
1364.64	1.45921e-05
1373.32	1.55851e-05
1382	1.25904e-05
1390.67	1.89975e-05
1399.35	2.23322e-05
1408.03	3.10895e-05
1416.71	2.16788e-05
1425.39	1.9497e-05
1434.07	1.6728e-05
1442.74	1.35169e-05
1451.42	1.73971e-05
1460.1	1.0116e-05
1468.78	1.67451e-05
1477.46	2.05814e-05
1486.13	1.35121e-05
1494.81	1.45477e-05
1503.49	1.24845e-05
1512.17	1.01339e-05
1520.85	1.0294e-05
1529.52	1.08054e-05
1538.2	9.90404e-06
1546.88	4.37433e-06
1555.56	1.16088e-05
1564.24	4.46349e-06
1572.92	5.16541e-06
1581.59	2.38989e-06
1590.27	2.09303e-06
1598.95	1.48427e-06
1607.63	6.03013e-07
1616.31	1.21109e-06
1624.98	5.81755e-07
1633.66	2.72965e-07
1642.34	2.03529e-07
1651.02	1.23426e-07
1659.7	8.77507e-08
1668.38	3.51025e-07
1677.05	3.51856e-08
1685.73	-4.46844e-08
1694.41	2.55391e-07
1703.09	-3.20878e-08
1711.77	1.77861e-08
1720.44	1.49396e-07
1729.12	2.08489e-07
1737.8	2.99036e-07
1746.48	2.96031e-07
1755.16	1.79608e-07
1763.84	2.80517e-07
1772.51	1.28559e-06
1781.19	3.30806e-07
1789.87	3.58544e-07
1798.55	3.4867e-07
1807.23	4.25021e-07
1815.9	5.12863e-07
1824.58	5.39574e-07
1833.26	4.35403e-07
1841.94	6.39682e-07
1850.62	5.6771e-07
1859.29	3.25805e-07
1867.97	5.38015e-07
1876.65	1.479e-07
1885.33	1.90671e-07
1894.01	2.54814e-07
1902.69	3.38424e-07
1911.36	1.95088e-07
1920.04	1.94179e-07
1928.72	1.13365e-07
1937.4	9.29875e-08
1946.08	2.93158e-09
1954.75	6.97086e-09
1963.43	3.58265e-08
1972.11	1.52777e-08
1980.79	2.27405e-09
1989.47	-3.96425e-09
1998.15	3.67452e-08
2006.82	2.84236e-08
2015.5	-1.61546e-08
2024.18	-3.02884e-08
2032.86	8.19928e-09
2041.54	5.9323e-08
2050.21	2.12027e-07
2058.89	3.92259e-07
2067.57	3.36191e-07
2076.25	4.82314e-07
2084.93	6.38898e-07
2093.6	2.87614e-07
2102.28	1.6981e-07
2110.96	3.47408e-08
2119.64	1.34193e-07
2128.32	-3.35015e-09
2137	6.09411e-08
2145.67	-1.4089e-08
2154.35	6.61015e-08
2163.03	1.03298e-07
2171.71	3.26241e-08
2180.39	3.99478e-08
2189.06	4.84602e-08
2197.74	1.72603e-07
2206.42	1.31002e-07
2215.1	2.22371e-07
2223.78	3.48256e-07
2232.46	6.09137e-07
2241.13	2.00789e-06
2249.81	2.39808e-06
2258.49	4.41981e-06
2267.17	2.86555e-06
2275.85	6.8675e-06
2284.52	5.15046e-06
2293.2	3.66357e-06
2301.88	1.78768e-06
2310.56	4.33989e-06
2319.24	4.41911e-06
2327.92	1.55073e-06
2336.59	7.31648e-07
2345.27	5.73515e-07
2353.95	4.39882e-07
2362.63	8.77456e-07
2371.31	8.75565e-07
2379.98	1.17079e-06
2388.66	9.61448e-07
2397.34	1.00807e-06
2406.02	1.48266e-06
2414.7	1.24909e-06
2423.37	1.53355e-06
2432.05	1.48421e-06
2440.73	1.01732e-06
2449.41	9.97448e-07
2458.09	1.0918e-06
2466.77	7.6725e-07
2475.44	1.50785e-06
2484.12	9.49946e-07
2492.8	9.97253e-07
2501.48	7.18722e-07
2510.16	6.55061e-07
2518.83	5.8462e-07
2527.51	5.21324e-07
2536.19	4.2882e-07
2544.87	3.83799e-07
2553.55	3.47111e-07
2562.23	2.44396e-07
2570.9	2.50349e-07
2579.58	2.24546e-07
2588.26	5.06319e-07
2596.94	7.30702e-07
2605.62	1.16467e-06
2614.29	2.09677e-06
2622.97	3.69831e-06
2631.65	1.31218e-06
2640.33	9.76134e-07
2649.01	4.56201e-07
2657.68	3.18423e-07
2666.36	3.44402e-07
2675.04	2.17812e-07
2683.72	2.62392e-07
2692.4	1.23759e-07
2701.08	-2.90316e-09
2709.75	9.12773e-08
2718.43	2.88658e-07
2727.11	3.05576e-07
2735.79	3.79426e-07
2744.47	5.50411e-07
2753.14	4.76833e-07
2761.82	4.882e-07
2770.5	1.08746e-07
2779.18	1.91055e-07
2787.86	1.00211e-07
2796.54	1.768e-07
2805.21	2.67567e-07
2813.89	1.08736e-07
2822.57	6.02328e-07
2831.25	5.60851e-07
2839.93	7.30331e-07
2848.6	1.76787e-06
2857.28	1.98693e-06
2865.96	1.97635e-06
2874.64	3.50648e-06
2883.32	4.10569e-06
2892	2.25466e-06
2900.67	2.70113e-06
2909.35	2.84061e-06
2918.03	2.06766e-06
2926.71	2.1133e-06
2935.39	5.9317e-06
2944.06	9.25424e-06
2952.74	3.24356e-06
2961.42	7.38797e-06
2970.1	1.02736e-05
2978.78	5.53632e-06
2987.45	4.50956e-06
2996.13	1.81697e-06
3004.81	2.73468e-06
3013.49	1.66174e-05
3022.17	5.23628e-06
3030.85	4.80927e-06
3039.52	4.47727e-06
3048.2	2.51918e-06
3056.88	1.78843e-06
3065.56	1.46985e-06
3074.24	1.80834e-06
3082.91	1.59442e-06
3091.59	1.09996e-06
3100.27	1.02043e-06
3108.95	8.13419e-07
3117.63	4.21333e-07
3126.31	4.07265e-07
3134.98	6.54601e-07
3143.66	6.77335e-07
3152.34	9.31573e-07
3161.02	1.97153e-06
3169.7	2.38334e-06
3178.37	4.37158e-06
3187.05	3.81062e-06
3195.73	3.07485e-06
3204.41	9.55744e-07
3213.09	6.80449e-07
3221.77	9.19749e-07
3230.44	1.0365e-06
3239.12	2.9755e-07
3247.8	2.18067e-07
3256.48	7.75489e-08
3265.16	2.85488e-07
3273.83	1.2602e-07
3282.51	2.25153e-07
3291.19	2.41702e-07
3299.87	2.47096e-07
3308.55	2.93228e-07
3317.22	4.3466e-07
3325.9	1.40469e-07
3334.58	2.05899e-07
3343.26	3.69714e-07
3351.94	4.34259e-07
3360.62	3.82172e-07
3369.29	3.55551e-07
3377.97	3.43764e-07
3386.65	5.00999e-07
3395.33	4.22958e-07
3404.01	3.61987e-07
3412.68	3.35608e-07
3421.36	3.11545e-07
3430.04	1.60368e-07
3438.72	3.07339e-07
3447.4	2.48735e-07
3456.08	1.47621e-07
3464.75	2.38568e-07
3473.43	1.36449e-07
3482.11	3.10063e-07
3490.79	2.76659e-07
3499.47	3.35377e-07
3508.14	3.41466e-07
3516.82	1.95984e-07
3525.5	3.75878e-07
3534.18	5.13595e-07
3542.86	3.4012e-07
3551.53	3.26293e-07
3560.21	3.70089e-07
3568.89	3.42042e-07
3577.57	2.75537e-07
3586.25	3.27109e-07
3594.93	1.98142e-07
3603.6	4.29177e-07
3612.28	5.22045e-07
3620.96	5.82691e-07
3629.64	2.71048e-06
3638.32	5.86975e-07
3646.99	1.06258e-06
3655.67	8.61957e-07
3664.35	4.88402e-07
3673.03	5.40495e-07
3681.71	5.50931e-07
3690.39	5.96428e-07
3699.06	6.0412e-07
3707.74	4.024e-07
3716.42	5.27473e-07
3725.1	7.93598e-07
3733.78	4.3934e-07
3742.45	5.87271e-07
3751.13	7.09264e-07
3759.81	1.24585e-06
3768.49	2.44066e-07
3777.17	3.81556e-07
3785.85	4.33178e-07
3794.52	3.90703e-07
3803.2	3.78694e-07
3811.88	4.05219e-07
3820.56	1.21228e-06
3829.24	5.45612e-07
3837.91	4.15832e-06
3846.59	4.47645e-07
3855.27	3.24423e-07
3863.95	7.45598e-07
3872.63	5.05154e-07
3881.3	6.79587e-07
3889.98	4.66663e-07
3898.66	6.20442e-07
3907.34	6.45525e-07
3916.02	8.19934e-07
3924.7	9.12719e-07
3933.37	8.45362e-07
3942.05	8.2559e-07
3950.73	8.38902e-07
3959.41	8.34807e-07
3968.09	8.20932e-07
