Infrared Spectrum: Nitrile-Acetic Acid
Formula: C H3 C N
CAS: 75-05-8
State: gas
Melting point: -45.72 C
Boiling point: 81.6 C
Class: IUPAC A
Instrument: IFS66V (Bruker)
Instrument parameters: KBr Beam splitter; MCT Detector; Multipass cell
Sampling: 1 L/min Flow
Resolution: 0.4820
Temperature: 23 C
Pressure: 101.3 kPa
Origin: NIST, Anayltical Chemistry Division, 301-975-3108
cm-1	(micromol/mol)-1m-1 (base 10)
574.928	-3.39451e-07
583.606	-4.28685e-07
592.284	-3.80194e-07
600.962	-3.25666e-07
609.641	-1.64104e-07
618.319	-3.99117e-08
626.997	2.62257e-08
635.675	-1.28963e-07
644.353	-1.27516e-07
653.031	2.30122e-07
661.71	4.05519e-08
670.388	2.62305e-07
679.066	6.0632e-07
687.744	1.93814e-06
696.422	5.72953e-06
705.1	6.72875e-06
713.778	3.06502e-06
722.457	5.22246e-06
731.135	5.21157e-06
739.813	2.2553e-06
748.491	6.55624e-07
757.169	7.59887e-08
765.847	-8.58805e-08
774.526	-1.23627e-07
783.204	-1.91262e-07
791.882	-1.59975e-07
800.56	-6.82125e-08
809.238	-1.52809e-07
817.916	-5.75669e-08
826.594	-7.06664e-08
835.273	-1.95088e-07
843.951	-8.07801e-08
852.629	-7.8983e-08
861.307	-4.02805e-08
869.985	-8.91961e-08
878.663	1.26199e-07
887.342	8.80891e-07
896.02	2.37693e-06
904.698	5.15346e-06
913.376	4.41322e-06
922.054	1.15272e-06
930.732	4.42165e-06
939.41	3.03518e-06
948.089	6.30762e-07
956.767	4.54465e-08
965.445	7.92463e-08
974.123	2.66925e-07
982.801	5.17207e-07
991.479	1.71142e-06
1000.16	3.02892e-06
1008.84	2.13667e-06
1017.51	3.12008e-06
1026.19	1.32647e-05
1034.87	4.58593e-06
1043.55	4.27594e-06
1052.23	4.57718e-06
1060.9	3.93055e-06
1069.58	3.84538e-06
1078.26	2.99057e-06
1086.94	2.13847e-06
1095.62	1.40265e-06
1104.3	9.30948e-07
1112.97	9.93179e-07
1121.65	2.59926e-07
1130.33	1.23704e-07
1139.01	5.47028e-09
1147.69	-4.17592e-09
1156.36	-4.05838e-08
1165.04	1.51144e-08
1173.72	-2.66541e-08
1182.4	-9.40475e-09
1191.08	-4.54006e-08
1199.76	-4.49836e-08
1208.43	-1.63526e-08
1217.11	2.69092e-08
1225.79	5.62841e-08
1234.47	1.30218e-08
1243.15	6.03441e-08
1251.82	8.15368e-08
1260.5	1.51103e-07
1269.18	4.05606e-07
1277.86	6.31351e-07
1286.54	1.48773e-06
1295.21	2.06882e-06
1303.89	8.31137e-07
1312.57	1.45773e-06
1321.25	1.72906e-06
1329.93	3.22209e-06
1338.61	4.40365e-06
1347.28	3.10089e-06
1355.96	4.72078e-06
1364.64	1.3645e-05
1373.32	1.5583e-05
1382	1.28867e-05
1390.67	1.94499e-05
1399.35	2.35987e-05
1408.03	3.25893e-05
1416.71	2.20681e-05
1425.39	1.95767e-05
1434.07	1.92076e-05
1442.74	1.39844e-05
1451.42	1.73843e-05
1460.1	1.2485e-05
1468.78	1.61271e-05
1477.46	1.96845e-05
1486.13	1.39456e-05
1494.81	1.56238e-05
1503.49	1.21237e-05
1512.17	1.01866e-05
1520.85	1.04075e-05
1529.52	1.14596e-05
1538.2	9.91045e-06
1546.88	6.222e-06
1555.56	9.81953e-06
1564.24	5.39537e-06
1572.92	4.30822e-06
1581.59	2.70096e-06
1590.27	2.10534e-06
1598.95	1.37897e-06
1607.63	6.97616e-07
1616.31	1.75357e-06
1624.98	5.51362e-07
1633.66	2.74691e-07
1642.34	2.1603e-07
1651.02	2.79956e-07
1659.7	8.16543e-08
1668.38	2.53734e-07
1677.05	3.86062e-08
1685.73	1.95383e-07
1694.41	1.55027e-07
1703.09	1.04742e-07
1711.77	7.22318e-08
1720.44	1.23397e-07
1729.12	2.11828e-07
1737.8	2.47251e-07
1746.48	2.42089e-07
1755.16	2.47376e-07
1763.84	2.78559e-07
1772.51	1.33885e-06
1781.19	3.34617e-07
1789.87	3.41021e-07
1798.55	3.44174e-07
1807.23	4.35185e-07
1815.9	5.29844e-07
1824.58	5.89941e-07
1833.26	4.50241e-07
1841.94	6.67034e-07
1850.62	5.69274e-07
1859.29	3.55928e-07
1867.97	4.77624e-07
1876.65	1.58961e-07
1885.33	2.10856e-07
1894.01	2.80386e-07
1902.69	3.61781e-07
1911.36	1.823e-07
1920.04	1.90566e-07
1928.72	1.13873e-07
1937.4	8.07071e-08
1946.08	2.98792e-08
1954.75	6.19329e-09
1963.43	1.11177e-08
1972.11	1.02535e-08
1980.79	3.38384e-08
1989.47	-1.62499e-08
1998.15	1.48346e-08
2006.82	2.59529e-08
2015.5	-1.29823e-10
2024.18	8.99322e-09
2032.86	2.28074e-08
2041.54	9.426e-08
2050.21	1.8463e-07
2058.89	3.86014e-07
2067.57	3.54324e-07
2076.25	4.30988e-07
2084.93	5.68144e-07
2093.6	3.4252e-07
2102.28	1.83516e-07
2110.96	2.92326e-08
2119.64	1.12183e-07
2128.32	7.19162e-09
2137	5.37081e-08
2145.67	8.91206e-09
2154.35	4.92457e-08
2163.03	5.47078e-08
2171.71	5.07056e-08
2180.39	4.83467e-08
2189.06	4.51166e-08
2197.74	1.46552e-07
2206.42	1.35654e-07
2215.1	2.31203e-07
2223.78	3.77787e-07
2232.46	8.15515e-07
2241.13	2.21868e-06
2249.81	3.592e-06
2258.49	3.78629e-06
2267.17	2.84736e-06
2275.85	6.5246e-06
2284.52	5.67037e-06
2293.2	3.9133e-06
2301.88	1.84688e-06
2310.56	4.38244e-06
2319.24	4.37176e-06
2327.92	1.61599e-06
2336.59	7.54417e-07
2345.27	5.83129e-07
2353.95	4.73236e-07
2362.63	7.98513e-07
2371.31	8.11218e-07
2379.98	1.14765e-06
2388.66	9.48049e-07
2397.34	1.07539e-06
2406.02	1.49522e-06
2414.7	1.23812e-06
2423.37	1.55309e-06
2432.05	1.47802e-06
2440.73	1.02148e-06
2449.41	9.48648e-07
2458.09	1.04521e-06
2466.77	7.91923e-07
2475.44	1.27051e-06
2484.12	9.86144e-07
2492.8	1.02889e-06
2501.48	7.84608e-07
2510.16	6.96841e-07
2518.83	5.69547e-07
2527.51	5.43216e-07
2536.19	4.31225e-07
2544.87	3.8963e-07
2553.55	4.04726e-07
2562.23	3.06121e-07
2570.9	2.44946e-07
2579.58	2.30638e-07
2588.26	4.72955e-07
2596.94	7.81407e-07
2605.62	1.23218e-06
2614.29	2.01625e-06
2622.97	3.4287e-06
2631.65	1.31229e-06
2640.33	9.35039e-07
2649.01	4.34252e-07
2657.68	3.02334e-07
2666.36	3.33741e-07
2675.04	2.32242e-07
2683.72	2.11951e-07
2692.4	1.47294e-07
2701.08	4.87251e-08
2709.75	9.69167e-08
2718.43	2.70594e-07
2727.11	2.91499e-07
2735.79	3.93167e-07
2744.47	5.34144e-07
2753.14	4.84665e-07
2761.82	4.92083e-07
2770.5	1.93493e-07
2779.18	2.06859e-07
2787.86	1.24187e-07
2796.54	2.3263e-07
2805.21	2.73574e-07
2813.89	1.51957e-07
2822.57	6.11418e-07
2831.25	5.42177e-07
2839.93	7.57312e-07
2848.6	1.82307e-06
2857.28	2.14735e-06
2865.96	2.19385e-06
2874.64	3.56365e-06
2883.32	3.98634e-06
2892	2.60229e-06
2900.67	2.79438e-06
2909.35	2.70743e-06
2918.03	2.11115e-06
2926.71	2.18605e-06
2935.39	6.01968e-06
2944.06	9.10401e-06
2952.74	4.56971e-06
2961.42	7.40783e-06
2970.1	9.78456e-06
2978.78	5.43838e-06
2987.45	3.06123e-06
2996.13	2.438e-06
3004.81	4.17867e-06
3013.49	1.98879e-05
3022.17	9.65191e-06
3030.85	5.26492e-06
3039.52	3.51562e-06
3048.2	2.67465e-06
3056.88	2.18627e-06
3065.56	1.82106e-06
3074.24	1.80078e-06
3082.91	1.44295e-06
3091.59	1.12039e-06
3100.27	9.61164e-07
3108.95	7.47254e-07
3117.63	4.81657e-07
3126.31	3.88465e-07
3134.98	5.28111e-07
3143.66	6.36565e-07
3152.34	9.7468e-07
3161.02	1.96312e-06
3169.7	2.30714e-06
3178.37	3.89122e-06
3187.05	3.36738e-06
3195.73	3.12577e-06
3204.41	8.97597e-07
3213.09	6.30322e-07
3221.77	9.14743e-07
3230.44	9.57168e-07
3239.12	3.0235e-07
3247.8	2.4029e-07
3256.48	1.22818e-07
3265.16	2.21819e-07
3273.83	1.585e-07
3282.51	1.90409e-07
3291.19	2.23523e-07
3299.87	2.55804e-07
3308.55	2.50065e-07
3317.22	3.68721e-07
3325.9	2.45203e-07
3334.58	2.48645e-07
3343.26	3.3621e-07
3351.94	3.71363e-07
3360.62	4.36908e-07
3369.29	3.06203e-07
3377.97	3.74333e-07
3386.65	4.50946e-07
3395.33	3.56064e-07
3404.01	3.3116e-07
3412.68	3.14489e-07
3421.36	3.19826e-07
3430.04	2.56116e-07
3438.72	2.97611e-07
3447.4	3.29762e-07
3456.08	1.84256e-07
3464.75	2.5944e-07
3473.43	1.659e-07
3482.11	2.74833e-07
3490.79	2.56159e-07
3499.47	3.13627e-07
3508.14	3.07453e-07
3516.82	2.49069e-07
3525.5	3.39073e-07
3534.18	4.36955e-07
3542.86	3.16478e-07
3551.53	2.92742e-07
3560.21	3.24592e-07
3568.89	3.38294e-07
3577.57	3.07989e-07
3586.25	4.4993e-07
3594.93	3.17994e-07
3603.6	3.7339e-07
3612.28	6.29854e-07
3620.96	5.34891e-07
3629.64	1.89981e-06
3638.32	5.21299e-07
3646.99	9.91023e-07
3655.67	7.48895e-07
3664.35	4.7446e-07
3673.03	5.62575e-07
3681.71	6.43449e-07
3690.39	6.65819e-07
3699.06	5.25251e-07
3707.74	4.58671e-07
3716.42	4.75932e-07
3725.1	6.89762e-07
3733.78	4.36337e-07
3742.45	5.21195e-07
3751.13	6.41407e-07
3759.81	9.82461e-07
3768.49	3.85244e-07
3777.17	4.05447e-07
3785.85	4.64039e-07
3794.52	3.88331e-07
3803.2	5.46457e-07
3811.88	4.18801e-07
3820.56	1.11094e-06
3829.24	4.8807e-07
3837.91	2.77527e-06
3846.59	4.62027e-07
3855.27	6.32932e-07
3863.95	7.30419e-07
3872.63	5.34846e-07
3881.3	6.93506e-07
3889.98	5.59929e-07
3898.66	6.56326e-07
3907.34	6.38308e-07
3916.02	8.15772e-07
3924.7	9.52597e-07
3933.37	7.9011e-07
3942.05	7.71248e-07
3950.73	8.57614e-07
3959.41	8.46858e-07
3968.09	9.64179e-07
