Infrared Spectrum: Nitrile-Acetic Acid
Formula: C H3 C N
CAS: 75-05-8
State: gas
Melting point: -45.72 C
Boiling point: 81.6 C
Class: IUPAC A
Instrument: IFS66V (Bruker)
Instrument parameters: KBr Beam splitter; MCT Detector; Multipass cell
Sampling: 1 L/min Flow
Resolution: 1.9290
Temperature: 23 C
Pressure: 101.3 kPa
Origin: NIST, Anayltical Chemistry Division, 301-975-3108
cm-1	(micromol/mol)-1m-1 (base 10)
574.687	-1.70847e-08
583.365	-5.05427e-07
592.043	-3.81628e-07
600.721	-1.20588e-07
609.4	-1.72125e-07
618.078	-1.14392e-08
626.756	-9.28013e-08
635.434	-1.12132e-07
644.112	-1.78775e-07
652.79	1.75577e-07
661.469	-1.22984e-07
670.147	4.13159e-07
678.825	4.50803e-07
687.503	1.90711e-06
696.181	5.44063e-06
704.859	6.80176e-06
713.537	3.76847e-06
722.216	4.65961e-06
730.894	5.29775e-06
739.572	2.39818e-06
748.25	6.13595e-07
756.928	7.08399e-08
765.606	-1.28594e-07
774.285	-9.32965e-08
782.963	-1.72306e-07
791.641	-1.21612e-07
800.319	-7.647e-08
808.997	-1.71919e-07
817.675	-1.32191e-07
826.353	-1.0984e-07
835.032	-2.09362e-07
843.71	-7.8346e-09
852.388	-1.37919e-07
861.066	-9.35175e-08
869.744	-1.15648e-07
878.422	1.44683e-07
887.101	6.88914e-07
895.779	2.38059e-06
904.457	4.72267e-06
913.135	4.33564e-06
921.813	9.73483e-07
930.491	4.29298e-06
939.169	3.06046e-06
947.848	7.11996e-07
956.526	-2.262e-09
965.204	1.15625e-07
973.882	1.78061e-07
982.56	6.33384e-07
991.238	9.75163e-07
999.917	3.38678e-06
1008.59	8.37685e-07
1017.27	2.21188e-06
1025.95	1.86496e-05
1034.63	3.33566e-06
1043.31	3.32755e-06
1051.99	2.98219e-06
1060.66	1.4748e-06
1069.34	3.97913e-06
1078.02	2.8791e-06
1086.7	2.28489e-06
1095.38	1.34841e-06
1104.05	1.09199e-06
1112.73	7.47554e-07
1121.41	4.58613e-07
1130.09	-3.3758e-08
1138.77	1.43233e-07
1147.45	-1.73204e-07
1156.12	1.18123e-07
1164.8	-1.75443e-07
1173.48	9.62408e-08
1182.16	-1.9687e-07
1190.84	1.16242e-07
1199.51	-2.03946e-07
1208.19	1.38732e-07
1216.87	-1.18329e-07
1225.55	2.13094e-07
1234.23	-1.81789e-07
1242.9	2.25722e-07
1251.58	-1.1483e-07
1260.26	3.41533e-07
1268.94	1.21491e-07
1277.62	9.01318e-07
1286.3	1.76241e-06
1294.97	2.3282e-06
1303.65	6.99587e-07
1312.33	1.31068e-06
1321.01	1.89174e-06
1329.69	3.43892e-06
1338.36	2.34688e-06
1347.04	3.45899e-06
1355.72	5.12433e-06
1364.4	1.46444e-05
1373.08	1.40183e-05
1381.76	1.24408e-05
1390.43	1.96221e-05
1399.11	2.4171e-05
1407.79	3.52841e-05
1416.47	2.59644e-05
1425.15	2.33469e-05
1433.82	1.61165e-05
1442.5	1.07669e-05
1451.18	1.98419e-05
1459.86	5.80001e-06
1468.54	1.26253e-05
1477.22	1.31346e-05
1485.89	9.31082e-06
1494.57	1.80748e-05
1503.25	1.13965e-05
1511.93	1.01686e-05
1520.61	9.06351e-06
1529.28	7.88018e-06
1537.96	9.84714e-06
1546.64	6.15206e-06
1555.32	8.52584e-06
1564	5.59577e-06
1572.67	2.36125e-06
1581.35	2.83463e-06
1590.03	2.04985e-06
1598.71	1.28193e-06
1607.39	4.86807e-07
1616.07	2.356e-06
1624.74	4.73294e-07
1633.42	4e-07
1642.1	1.24886e-07
1650.78	2.59212e-07
1659.46	1.81545e-08
1668.13	3.30611e-08
1676.81	-1.59593e-07
1685.49	1.10417e-06
1694.17	-2.25328e-07
1702.85	1.53216e-07
1711.53	-8.39656e-08
1720.2	1.59656e-07
1728.88	8.86083e-08
1737.56	4.25727e-07
1746.24	2.15684e-07
1754.92	2.77237e-07
1763.59	1.57938e-07
1772.27	1.1119e-06
1780.95	3.94908e-07
1789.63	3.13988e-07
1798.31	1.95786e-07
1806.98	5.11604e-07
1815.66	4.58164e-07
1824.34	7.00726e-07
1833.02	3.36002e-07
1841.7	8.08473e-07
1850.38	5.8194e-07
1859.05	4.02266e-07
1867.73	3.18091e-07
1876.41	2.0357e-07
1885.09	1.81735e-07
1893.77	3.37724e-07
1902.44	3.26077e-07
1911.12	2.26023e-07
1919.8	1.04796e-07
1928.48	1.6879e-07
1937.16	2.04115e-08
1945.84	8.59744e-08
1954.51	-2.24616e-08
1963.19	4.06249e-08
1971.87	-2.04187e-08
1980.55	7.84317e-08
1989.23	-4.49288e-08
1997.9	3.24677e-08
2006.58	8.58807e-09
2015.26	1.46468e-08
2023.94	1.10156e-09
2032.62	7.40209e-08
2041.3	3.98548e-08
2049.97	2.18264e-07
2058.65	3.56576e-07
2067.33	3.77523e-07
2076.01	2.69632e-07
2084.69	4.9345e-07
2093.36	3.49459e-07
2102.04	2.33556e-07
2110.72	-1.57683e-08
2119.4	1.74076e-07
2128.08	4.15614e-10
2136.75	8.56447e-08
2145.43	-9.87561e-09
2154.11	8.81979e-08
2162.79	2.30848e-08
2171.47	8.84994e-08
2180.15	3.92312e-08
2188.82	7.53078e-08
2197.5	8.90817e-08
2206.18	1.66529e-07
2214.86	1.44628e-07
2223.54	4.12632e-07
2232.21	8.69815e-07
2240.89	2.36287e-06
2249.57	4.05751e-06
2258.25	3.6703e-06
2266.93	6.50754e-06
2275.61	6.36176e-06
2284.28	5.89226e-06
2292.96	4.10354e-06
2301.64	1.81176e-06
2310.32	4.44964e-06
2319	4.44232e-06
2327.67	1.69525e-06
2336.35	8.91679e-07
2345.03	5.67934e-07
2353.71	5.05041e-07
2362.39	6.58128e-07
2371.06	6.93917e-07
2379.74	1.17122e-06
2388.42	9.27361e-07
2397.1	1.0113e-06
2405.78	1.4611e-06
2414.46	1.18218e-06
2423.13	1.39234e-06
2431.81	1.5039e-06
2440.49	1.05977e-06
2449.17	9.3204e-07
2457.85	1.12692e-06
2466.52	7.7915e-07
2475.2	1.12015e-06
2483.88	1.04096e-06
2492.56	1.15562e-06
2501.24	7.44438e-07
2509.92	7.40206e-07
2518.59	5.44557e-07
2527.27	5.1094e-07
2535.95	4.0472e-07
2544.63	4.76686e-07
2553.31	4.05402e-07
2561.98	2.90083e-07
2570.66	2.34418e-07
2579.34	2.34842e-07
2588.02	4.27882e-07
2596.7	7.63774e-07
2605.38	1.2282e-06
2614.05	1.85708e-06
2622.73	4.07491e-06
2631.41	1.27291e-06
2640.09	9.77999e-07
2648.77	3.94009e-07
2657.44	2.81986e-07
2666.12	3.1914e-07
2674.8	2.17778e-07
2683.48	1.73528e-07
2692.16	1.49139e-07
2700.83	7.07865e-08
2709.51	5.02788e-08
2718.19	2.29899e-07
2726.87	2.57958e-07
2735.55	4.08081e-07
2744.23	4.88885e-07
2752.9	5.12157e-07
2761.58	5.19121e-07
2770.26	2.38016e-07
2778.94	2.21006e-07
2787.62	1.48535e-07
2796.29	2.25487e-07
2804.97	2.62521e-07
2813.65	8.62083e-08
2822.33	6.37002e-07
2831.01	5.32423e-07
2839.69	8.14853e-07
2848.36	1.75431e-06
2857.04	2.27013e-06
2865.72	1.81172e-06
2874.4	3.49903e-06
2883.08	4.11111e-06
2891.75	2.63816e-06
2900.43	2.94908e-06
2909.11	2.54297e-06
2917.79	2.08694e-06
2926.47	1.95756e-06
2935.14	5.96466e-06
2943.82	8.94492e-06
2952.5	3.93139e-06
2961.18	6.93875e-06
2969.86	9.71271e-06
2978.54	5.79643e-06
2987.21	2.35986e-06
2995.89	2.64618e-06
3004.57	8.23359e-06
3013.25	2.07984e-05
3021.93	9.05724e-06
3030.6	4.31278e-06
3039.28	4.73503e-07
3047.96	1.2488e-06
3056.64	2.10584e-06
3065.32	9.81749e-07
3074	1.79891e-06
3082.67	1.35427e-06
3091.35	1.2618e-06
3100.03	9.56946e-07
3108.71	5.20113e-07
3117.39	3.91188e-07
3126.06	3.72679e-07
3134.74	4.31174e-07
3143.42	6.10363e-07
3152.1	1.029e-06
3160.78	1.98664e-06
3169.46	2.28286e-06
3178.13	3.39541e-06
3186.81	3.28815e-06
3195.49	3.24571e-06
3204.17	8.67473e-07
3212.85	5.89599e-07
3221.52	8.39523e-07
3230.2	9.81466e-07
3238.88	2.77354e-07
3247.56	2.36293e-07
3256.24	2.24242e-07
3264.91	1.76363e-07
3273.59	2.22789e-07
3282.27	1.58124e-07
3290.95	2.40018e-07
3299.63	2.36845e-07
3308.31	2.48284e-07
3316.98	3.78059e-07
3325.66	2.79043e-07
3334.34	2.90321e-07
3343.02	2.96499e-07
3351.7	3.52758e-07
3360.37	4.32382e-07
3369.05	2.79279e-07
3377.73	3.81486e-07
3386.41	4.42106e-07
3395.09	2.99225e-07
3403.77	3.34902e-07
3412.44	3.73893e-07
3421.12	2.74164e-07
3429.8	3.67801e-07
3438.48	3.08793e-07
3447.16	4.00703e-07
3455.83	2.41094e-07
3464.51	2.77128e-07
3473.19	1.78189e-07
3481.87	1.94629e-07
3490.55	2.93312e-07
3499.22	2.74238e-07
3507.9	2.27464e-07
3516.58	2.59629e-07
3525.26	2.75165e-07
3533.94	3.57265e-07
3542.62	2.94343e-07
3551.29	3.14543e-07
3559.97	3.13366e-07
3568.65	5.28368e-07
3577.33	3.04584e-07
3586.01	4.99383e-07
3594.68	3.68696e-07
3603.36	3.65603e-07
3612.04	5.79858e-07
3620.72	3.96446e-07
3629.4	1.25936e-06
3638.08	5.37152e-07
3646.75	1.05841e-06
3655.43	8.09566e-07
3664.11	5.18275e-07
3672.79	5.8502e-07
3681.47	5.4475e-07
3690.14	4.47778e-07
3698.82	4.32228e-07
3707.5	5.32422e-07
3716.18	4.79849e-07
3724.86	5.92352e-07
3733.54	7.47787e-08
3742.21	6.27853e-07
3750.89	4.81007e-08
3759.57	7.45399e-07
3768.25	4.23034e-07
3776.93	3.79939e-07
3785.6	5.17789e-07
3794.28	3.81331e-07
3802.96	3.24437e-07
3811.64	5.39459e-07
3820.32	8.29334e-07
3828.99	4.43259e-07
3837.67	1.92192e-06
3846.35	4.61591e-07
3855.03	1.03081e-06
3863.71	5.48901e-07
3872.39	5.65641e-07
3881.06	8.20258e-07
3889.74	6.09704e-07
3898.42	5.91486e-07
3907.1	6.70952e-07
3915.78	6.86612e-07
3924.45	9.70088e-07
3933.13	8.9586e-07
3941.81	7.90732e-07
3950.49	9.37295e-07
3959.17	1.00504e-06
3967.85	1.43722e-06
