Infrared Spectrum: Dichloromethane
Formula: C H2 Cl2
CAS: 75-09-2
State: gas
Melting point: -95.1 C
Boiling point: 40 C
Class: IUPAC A
Instrument: IFS66V (Bruker)
Instrument parameters: KBr Beam Splitter; MCT Detector; Multipass cell
Sampling: 1 L/min Flow
Resolution: 0.1250
Temperature: 23 C
Pressure: 101.3 Pa
Origin: NIST, Analytical Chemistry Division, 301-975-3108
cm-1	(micromol/mol)-1m-1 (base 10)
575.05	-1.10437e-06
583.608	1.10306e-06
592.165	-3.7131e-07
600.723	-7.72705e-07
609.281	-8.35638e-07
617.838	8.77149e-08
626.396	-5.56911e-07
634.954	1.259e-06
643.511	2.12051e-07
652.069	1.14676e-06
660.626	1.62658e-06
669.184	5.07393e-06
677.742	9.74797e-06
686.299	1.59276e-05
694.857	2.42268e-05
703.415	3.36343e-05
711.972	3.00132e-05
720.53	6.28101e-05
729.088	6.47873e-05
737.645	0.000193128
746.203	0.000689853
754.761	0.000666204
763.318	0.000725682
771.876	0.00025698
780.434	8.70904e-06
788.991	-2.23479e-07
797.549	2.00933e-07
806.106	5.92123e-07
814.664	-6.26202e-08
823.222	2.24048e-07
831.779	2.9288e-07
840.337	-1.11821e-07
848.895	-2.13442e-07
857.452	1.53341e-07
866.01	5.13471e-07
874.568	1.01853e-06
883.125	1.73197e-06
891.683	2.88482e-06
900.241	3.23063e-06
908.798	3.44432e-06
917.356	3.03021e-06
925.914	2.38143e-06
934.471	1.56648e-06
943.029	7.78127e-07
951.586	3.82916e-07
960.144	6.19954e-08
968.702	2.48967e-07
977.259	2.12347e-07
985.817	3.7281e-07
994.375	3.94604e-07
1002.93	4.53972e-07
1011.49	1.57667e-07
1020.05	2.2828e-07
1028.61	2.71159e-07
1037.16	1.70952e-07
1045.72	4.4817e-07
1054.28	-1.2003e-07
1062.84	-2.74693e-07
1071.39	-1.90777e-07
1079.95	-1.46358e-07
1088.51	1.94979e-07
1097.07	-1.35001e-07
1105.62	2.30874e-08
1114.18	-1.63888e-07
1122.74	-3.90982e-07
1131.3	-6.87165e-08
1139.85	-8.8055e-08
1148.41	-2.81797e-07
1156.97	-2.00931e-07
1165.53	-9.82877e-08
1174.09	-8.81541e-08
1182.64	1.71008e-07
1191.2	1.79846e-07
1199.76	-9.1039e-08
1208.32	-1.9481e-07
1216.87	1.0668e-07
1225.43	-6.49239e-08
1233.99	9.71072e-08
1242.55	2.88552e-06
1251.1	4.8316e-05
1259.66	0.000212437
1268.22	0.000292899
1276.78	0.000241702
1285.33	3.4055e-05
1293.89	5.37017e-07
1302.45	-2.19014e-07
1311.01	2.66848e-07
1319.57	-7.22644e-08
1328.12	3.5742e-08
1336.68	-1.07622e-07
1345.24	-2.01143e-08
1353.8	4.95384e-07
1362.35	-2.36648e-07
1370.91	-2.84798e-08
1379.47	-7.55095e-08
1388.03	-4.41548e-08
1396.58	4.39284e-09
1405.14	3.4103e-07
1413.7	5.55159e-07
1422.26	1.29791e-06
1430.81	1.34134e-06
1439.37	2.15358e-06
1447.93	3.72488e-06
1456.49	6.5335e-06
1465.05	7.62386e-06
1473.6	7.71328e-06
1482.16	4.23279e-07
1490.72	1.70676e-07
1499.28	1.78106e-07
1507.83	6.83445e-08
1516.39	8.15176e-08
1524.95	5.37354e-08
1533.51	-7.80161e-09
1542.06	1.60357e-07
1550.62	4.50752e-07
1559.18	4.69654e-07
1567.74	-7.6389e-08
1576.29	-1.69901e-07
1584.85	1.20697e-07
1593.41	9.01177e-08
1601.97	4.11526e-08
1610.53	2.05181e-08
1619.08	1.40915e-07
1627.64	-1.00409e-07
1636.2	-1.45497e-07
1644.76	-1.72347e-07
1653.31	-4.48193e-07
1661.87	1.21026e-08
1670.43	-6.95505e-08
1678.99	-1.50621e-07
1687.54	-1.03201e-07
1696.1	-2.42328e-07
1704.66	5.18318e-08
1713.22	1.3898e-07
1721.77	5.96625e-08
1730.33	7.25718e-08
1738.89	8.50828e-09
1747.45	-8.45553e-08
1756.01	-1.07276e-07
1764.56	6.63191e-08
1773.12	-3.33883e-08
1781.68	7.74594e-08
1790.24	1.63084e-07
1798.79	1.14462e-07
1807.35	-4.97027e-08
1815.91	-9.96164e-08
1824.47	-5.9226e-08
1833.02	2.14603e-08
1841.58	-7.53758e-08
1850.14	8.09473e-08
1858.7	-2.0177e-08
1867.25	-8.68599e-08
1875.81	5.90068e-08
1884.37	-7.1073e-08
1892.93	1.07303e-07
1901.49	8.04999e-08
1910.04	1.01772e-09
1918.6	8.1815e-08
1927.16	-2.14931e-08
1935.72	-1.12984e-07
1944.27	-1.56478e-07
1952.83	-1.9157e-07
1961.39	-2.2237e-09
1969.95	1.45188e-07
1978.5	2.24436e-07
1987.06	3.77624e-07
1995.62	-9.50563e-08
2004.18	4.78101e-08
2012.73	1.05773e-07
2021.29	5.06613e-08
2029.85	3.96901e-09
2038.41	1.04984e-07
2046.97	5.67414e-07
2055.52	5.94185e-07
2064.08	7.70302e-07
2072.64	2.60363e-07
2081.2	-3.14756e-08
2089.75	-4.86122e-09
2098.31	1.37597e-07
2106.87	1.57225e-07
2115.43	4.93098e-08
2123.98	-5.80391e-08
2132.54	2.03842e-07
2141.1	2.20342e-07
2149.66	2.35971e-07
2158.21	5.54771e-08
2166.77	5.18546e-07
2175.33	4.82765e-07
2183.89	4.08663e-07
2192.45	2.43581e-07
2201	4.37637e-08
2209.56	1.36022e-07
2218.12	-4.64031e-08
2226.68	7.33676e-08
2235.23	-8.01443e-09
2243.79	1.78658e-07
2252.35	1.16869e-07
2260.91	1.65054e-07
2269.46	3.16573e-07
2278.02	4.37998e-07
2286.58	9.26371e-07
2295.14	1.2343e-06
2303.69	1.82637e-06
2312.25	1.74948e-06
2320.81	2.51533e-06
2329.37	1.62842e-06
2337.93	2.06548e-06
2346.48	8.97981e-07
2355.04	9.11537e-07
2363.6	6.93125e-07
2372.16	4.3665e-07
2380.71	4.20516e-07
2389.27	2.21122e-07
2397.83	8.86198e-08
2406.39	3.85458e-07
2414.94	8.32232e-07
2423.5	2.16951e-07
2432.06	1.81347e-07
2440.62	4.4386e-07
2449.17	1.40353e-07
2457.73	3.77375e-08
2466.29	1.56164e-07
2474.85	-1.4431e-07
2483.41	-4.05669e-08
2491.96	1.36787e-09
2500.52	9.54382e-08
2509.08	4.5329e-09
2517.64	-2.37689e-07
2526.19	-3.26075e-07
2534.75	-3.03494e-07
2543.31	-2.75081e-07
2551.87	-6.77485e-07
2560.42	-4.12325e-07
2568.98	-1.41814e-07
2577.54	9.44824e-08
2586.1	4.73608e-08
2594.65	6.26284e-08
2603.21	9.71354e-08
2611.77	-3.24597e-09
2620.33	6.65437e-08
2628.89	-4.28279e-08
2637.44	-1.47826e-07
2646	1.63072e-07
2654.56	-4.33572e-08
2663.12	-1.37329e-07
2671.67	3.66152e-07
2680.23	3.35705e-07
2688.79	2.02075e-06
2697.35	1.72015e-06
2705.9	2.91162e-06
2714.46	6.61428e-07
2723.02	6.54997e-08
2731.58	-1.83376e-07
2740.13	7.0259e-08
2748.69	-1.72585e-08
2757.25	1.16647e-07
2765.81	8.72346e-08
2774.37	-7.58969e-09
2782.92	-1.30291e-07
2791.48	4.38483e-08
2800.04	1.13375e-07
2808.6	3.0833e-07
2817.15	2.27755e-07
2825.71	3.71286e-07
2834.27	1.03385e-06
2842.83	1.24196e-06
2851.38	8.61495e-07
2859.94	1.28369e-06
2868.5	8.21668e-07
2877.06	7.29251e-07
2885.61	1.99287e-07
2894.17	4.60075e-08
2902.73	-2.97603e-08
2911.29	2.48602e-07
2919.85	3.49794e-07
2928.4	5.28914e-08
2936.96	5.26804e-07
2945.52	1.40133e-06
2954.08	2.98418e-06
2962.63	4.79266e-06
2971.19	1.26686e-05
2979.75	1.42632e-05
2988.31	2.64014e-05
2996.86	1.14159e-05
3005.42	3.06892e-05
3013.98	2.01484e-05
3022.54	1.2174e-05
3031.09	6.84823e-06
3039.65	3.98607e-06
3048.21	1.91932e-06
3056.77	7.73745e-07
3065.33	3.89808e-07
3073.88	3.05023e-07
3082.44	4.52462e-08
3091	-3.20963e-07
3099.56	-2.65158e-07
3108.11	-9.47379e-08
3116.67	2.15121e-07
3125.23	1.37383e-07
3133.79	8.46617e-08
3142.34	1.10498e-07
3150.9	2.34826e-07
3159.46	-1.4892e-08
3168.02	-2.18611e-07
3176.57	2.98476e-08
3185.13	-1.49379e-07
3193.69	2.42528e-07
3202.25	2.29155e-08
3210.81	-2.46763e-08
3219.36	1.87036e-07
3227.92	-1.36313e-07
3236.48	-1.71936e-07
3245.04	3.28917e-08
3253.59	1.88214e-07
3262.15	-5.63129e-08
3270.71	-1.01127e-07
3279.27	1.21708e-08
3287.82	2.02738e-07
3296.38	1.1467e-07
3304.94	-2.53428e-07
3313.5	-2.07207e-07
3322.05	8.40341e-08
3330.61	1.47149e-07
3339.17	-5.24594e-09
3347.73	-1.43721e-07
3356.29	-1.34668e-07
3364.84	-3.00586e-07
3373.4	-3.39112e-07
3381.96	3.81467e-08
3390.52	-1.51752e-07
3399.07	-1.77482e-07
3407.63	3.33605e-07
3416.19	-2.57731e-08
3424.75	-1.46244e-07
3433.3	1.47732e-07
3441.86	3.85269e-08
3450.42	-3.93818e-08
3458.98	4.48197e-09
3467.53	-2.49779e-07
3476.09	-1.43768e-07
3484.65	-1.42302e-07
3493.21	-2.40424e-08
3501.77	-3.65188e-08
3510.32	1.23072e-07
3518.88	-5.23219e-07
3527.44	1.74598e-07
3536	-2.62502e-07
3544.55	2.92248e-07
3553.11	1.9208e-07
3561.67	3.30551e-07
3570.23	1.31423e-07
3578.78	-3.20504e-09
3587.34	-1.48973e-07
3595.9	1.32911e-07
3604.46	-2.67508e-08
3613.01	-7.16433e-08
3621.57	-1.55195e-08
3630.13	-2.83707e-07
3638.69	-1.27511e-07
3647.25	3.07408e-09
3655.8	2.02124e-07
3664.36	1.91908e-07
3672.92	7.47182e-08
3681.48	1.82092e-07
3690.03	3.52122e-07
3698.59	4.55544e-07
3707.15	6.33694e-07
3715.71	8.88505e-07
3724.26	8.14998e-07
3732.82	5.7123e-07
3741.38	3.62428e-07
3749.94	5.57588e-07
3758.49	8.80667e-07
3767.05	5.778e-07
3775.61	2.22868e-07
3784.17	2.87741e-07
3792.73	6.39217e-08
3801.28	-1.01265e-07
3809.84	2.79534e-07
3818.4	-2.62036e-07
3826.96	-8.92655e-08
3835.51	-4.04814e-09
3844.07	2.24159e-07
3852.63	-1.55529e-07
3861.19	-1.24417e-07
3869.74	-8.69991e-08
3878.3	-4.05518e-07
3886.86	-1.22554e-07
3895.42	3.53379e-07
3903.97	-1.02598e-07
3912.53	-2.45817e-08
3921.09	1.86482e-07
3929.65	4.3769e-07
3938.21	3.89155e-07
3946.76	5.20269e-07
3955.32	6.15242e-07
3963.88	4.36648e-07
3972.44	3.10685e-07
