Infrared Spectrum: Nitrile-Acetic Acid
Formula: C H3 C N
CAS: 75-05-8
State: gas
Melting point: -45.72 C
Boiling point: 81.6 C
Class: IUPAC A
Instrument: IFS66V (Bruker)
Instrument parameters: KBr Beam splitter; MCT Detector; Multipass cell
Sampling: 1 L/min Flow
Resolution: 0.2410
Temperature: 23 C
Pressure: 101.3 kPa
Origin: NIST, Anayltical Chemistry Division, 301-975-3108
cm-1	(micromol/mol)-1m-1 (base 10)
575.048	-6.61538e-07
583.606	-9.03956e-08
592.163	-4.97786e-07
600.721	-1.86761e-07
609.279	1.34145e-08
617.836	-8.70846e-08
626.394	-5.51896e-08
634.951	-7.21136e-08
643.509	2.06063e-07
652.067	1.5852e-08
660.624	1.09349e-08
669.182	-1.38839e-07
677.74	3.00242e-07
686.297	1.60142e-06
694.855	5.05722e-06
703.412	7.61868e-06
711.97	3.14431e-06
720.528	4.38008e-06
729.085	5.82346e-06
737.643	2.71416e-06
746.201	8.81782e-07
754.758	1.92354e-07
763.316	1.13916e-08
771.873	-1.88753e-07
780.431	-1.35055e-07
788.989	-6.85329e-08
797.546	-1.47673e-07
806.104	-1.47279e-07
814.662	-1.52011e-07
823.219	-2.5733e-07
831.777	-1.56007e-07
840.334	-8.55672e-08
848.892	-1.78003e-07
857.45	-1.35352e-07
866.007	-7.51016e-08
874.565	-1.6351e-08
883.123	2.37948e-07
891.68	1.52894e-06
900.238	3.46501e-06
908.795	5.87144e-06
917.353	2.3723e-06
925.911	2.32924e-06
934.468	4.50241e-06
943.026	1.83978e-06
951.584	1.77945e-07
960.141	-2.11813e-08
968.699	1.2313e-07
977.256	2.51168e-07
985.814	8.09636e-07
994.372	1.36446e-06
1002.93	2.36244e-06
1011.49	2.79717e-06
1020.04	3.70967e-06
1028.6	3.43538e-06
1037.16	4.90433e-06
1045.72	4.50692e-06
1054.28	3.89753e-06
1062.83	4.15351e-06
1071.39	3.26592e-06
1079.95	2.84929e-06
1088.51	5.25017e-06
1097.06	1.04221e-06
1105.62	1.01532e-06
1114.18	4.5412e-07
1122.74	2.15924e-07
1131.29	1.34896e-07
1139.85	-4.15996e-08
1148.41	-3.71002e-08
1156.97	-9.14974e-08
1165.52	5.56645e-09
1174.08	-9.39749e-08
1182.64	-9.70602e-08
1191.2	-7.21989e-08
1199.75	-6.60056e-08
1208.31	-3.20703e-08
1216.87	8.94664e-08
1225.43	-1.11563e-08
1233.99	-1.44478e-08
1242.54	4.45416e-08
1251.1	7.18021e-08
1259.66	1.15089e-07
1268.22	4.53387e-07
1276.77	4.99474e-07
1285.33	1.96682e-06
1293.89	6.32716e-07
1302.45	1.1014e-06
1311	1.85245e-06
1319.56	1.53205e-06
1328.12	3.26132e-06
1336.68	1.27049e-05
1345.23	3.55659e-06
1353.79	3.36067e-06
1362.35	8.65974e-06
1370.91	1.54476e-05
1379.46	1.44459e-05
1388.02	1.85137e-05
1396.58	2.57505e-05
1405.14	2.00241e-05
1413.7	1.74612e-05
1422.25	6.24763e-05
1430.81	1.36514e-05
1439.37	1.5995e-05
1447.93	1.56056e-05
1456.48	1.82873e-05
1465.04	2.49671e-05
1473.6	1.54633e-05
1482.16	7.85775e-05
1490.71	1.4185e-05
1499.27	3.09664e-05
1507.83	1.45134e-05
1516.39	9.07193e-06
1524.94	9.11244e-06
1533.5	9.97113e-06
1542.06	1.63309e-05
1550.62	9.14574e-06
1559.18	4.80904e-06
1567.73	7.9751e-06
1576.29	6.52317e-06
1584.85	2.1742e-06
1593.41	1.56018e-06
1601.96	1.50274e-06
1610.52	6.11964e-07
1619.08	6.13839e-07
1627.64	1.23692e-06
1636.19	4.66638e-07
1644.75	1.62679e-07
1653.31	4.09274e-06
1661.87	1.70035e-07
1670.42	1.09219e-07
1678.98	5.84465e-08
1687.54	1.38462e-10
1696.1	2.50433e-06
1704.65	4.19796e-07
1713.21	2.09383e-08
1721.77	1.53198e-07
1730.33	3.18616e-07
1738.89	3.48984e-07
1747.44	2.31289e-07
1756	2.80755e-07
1764.56	2.87148e-07
1773.12	6.37324e-07
1781.67	3.04482e-07
1790.23	3.54403e-07
1798.79	3.4277e-07
1807.35	4.33615e-07
1815.9	5.16585e-07
1824.46	5.38527e-07
1833.02	4.21724e-07
1841.58	6.59267e-07
1850.13	6.89934e-07
1858.69	3.68418e-07
1867.25	2.87792e-07
1875.81	2.36888e-07
1884.36	2.2273e-07
1892.92	3.73429e-07
1901.48	4.0204e-07
1910.04	2.83576e-07
1918.6	2.53834e-07
1927.15	1.3702e-07
1935.71	8.63513e-08
1944.27	9.11964e-09
1952.83	8.37121e-08
1961.38	1.23402e-08
1969.94	3.19122e-08
1978.5	9.64529e-09
1987.06	6.77246e-08
1995.61	-1.85073e-08
2004.17	-3.21487e-09
2012.73	-9.25651e-09
2021.29	-7.48037e-09
2029.84	-9.37883e-09
2038.4	8.26731e-08
2046.96	1.45132e-07
2055.52	3.57806e-07
2064.08	4.60924e-07
2072.63	6.70244e-08
2081.19	5.10383e-07
2089.75	4.82992e-07
2098.31	2.6062e-07
2106.86	4.0493e-08
2115.42	3.45878e-08
2123.98	1.08905e-08
2132.54	-1.44692e-09
2141.09	6.12378e-08
2149.65	6.77669e-09
2158.21	7.48631e-08
2166.77	1.7142e-08
2175.32	9.99854e-08
2183.88	-5.5851e-09
2192.44	8.67265e-08
2201	1.0434e-07
2209.55	1.08413e-07
2218.11	1.82124e-07
2226.67	5.20808e-07
2235.23	1.47326e-06
2243.79	3.30598e-06
2252.34	5.0041e-06
2260.9	3.52613e-06
2269.46	3.21511e-06
2278.02	6.97732e-06
2286.57	5.21683e-06
2295.13	3.2892e-06
2303.69	2.39323e-06
2312.25	5.15308e-06
2320.8	3.71635e-06
2329.36	1.38399e-06
2337.92	7.28978e-07
2346.48	4.68174e-07
2355.03	5.85121e-07
2363.59	6.07e-07
2372.15	8.07132e-07
2380.71	8.38165e-07
2389.26	8.58675e-07
2397.82	1.18843e-06
2406.38	1.6444e-06
2414.94	1.23356e-06
2423.5	1.54335e-06
2432.05	1.50867e-06
2440.61	9.98141e-07
2449.17	9.77399e-07
2457.73	1.12257e-06
2466.28	8.45888e-07
2474.84	9.03337e-07
2483.4	1.03711e-06
2491.96	1.52283e-06
2500.51	7.13172e-07
2509.07	7.31889e-07
2517.63	5.80532e-07
2526.19	4.98499e-07
2534.74	6.54249e-07
2543.3	5.01003e-07
2551.86	3.33308e-07
2560.42	2.74473e-07
2568.98	2.70093e-07
2577.53	2.91248e-07
2586.09	4.10945e-07
2594.65	6.78131e-07
2603.21	1.21653e-06
2611.76	1.81807e-06
2620.32	3.58648e-06
2628.88	1.22352e-06
2637.44	1.16966e-06
2645.99	4.04767e-07
2654.55	2.18673e-07
2663.11	4.52689e-07
2671.67	1.39698e-07
2680.22	2.50919e-07
2688.78	1.86722e-07
2697.34	7.71412e-08
2705.9	1.45564e-07
2714.45	1.60928e-07
2723.01	2.73565e-07
2731.57	4.11748e-07
2740.13	3.96254e-07
2748.69	4.24529e-07
2757.24	6.71255e-07
2765.8	2.98584e-07
2774.36	2.67023e-07
2782.92	3.02215e-07
2791.47	1.71916e-07
2800.03	7.73531e-08
2808.59	5.22748e-07
2817.15	3.26059e-07
2825.7	4.36227e-07
2834.26	7.08851e-07
2842.82	9.16359e-07
2851.38	2.07656e-06
2859.93	2.32524e-06
2868.49	4.57243e-06
2877.05	4.07297e-06
2885.61	3.05597e-06
2894.16	2.88052e-06
2902.72	2.94225e-06
2911.28	2.61749e-06
2919.84	2.33636e-06
2928.4	3.8197e-06
2936.95	6.92731e-06
2945.51	9.14606e-06
2954.07	1.05125e-05
2962.63	8.53246e-06
2971.18	9.05084e-06
2979.74	4.60177e-06
2988.3	2.12573e-06
2996.86	1.95644e-06
3005.41	2.70903e-06
3013.97	6.19613e-06
3022.53	2.22566e-05
3031.09	6.9978e-06
3039.64	3.47026e-06
3048.2	2.61817e-06
3056.76	2.04607e-06
3065.32	1.63416e-06
3073.88	1.70319e-06
3082.43	1.17619e-06
3090.99	1.05412e-06
3099.55	9.05885e-07
3108.11	3.8102e-07
3116.66	3.98262e-07
3125.22	3.75766e-07
3133.78	6.02147e-08
3142.34	4.89285e-07
3150.89	8.83942e-07
3159.45	1.93559e-06
3168.01	2.73598e-06
3176.57	1.2614e-06
3185.12	2.5317e-06
3193.68	3.86295e-06
3202.24	1.178e-06
3210.8	5.54918e-07
3219.35	8.23538e-07
3227.91	1.12206e-06
3236.47	3.91264e-07
3245.03	2.27557e-07
3253.59	2.61627e-07
3262.14	1.04774e-07
3270.7	2.11201e-07
3279.26	1.51728e-07
3287.82	2.13928e-07
3296.37	2.4201e-07
3304.93	3.77146e-07
3313.49	2.75347e-07
3322.05	2.86899e-07
3330.6	5.10508e-07
3339.16	3.92987e-07
3347.72	3.86113e-07
3356.28	5.50821e-07
3364.83	3.65911e-07
3373.39	1.90494e-07
3381.95	4.28245e-07
3390.51	4.33736e-07
3399.06	3.53778e-07
3407.62	2.7698e-07
3416.18	4.11786e-07
3424.74	3.13763e-07
3433.3	2.28876e-07
3441.85	2.78695e-07
3450.41	2.1462e-07
3458.97	2.93482e-07
3467.53	3.14319e-07
3476.08	2.77532e-07
3484.64	2.24778e-07
3493.2	1.65159e-07
3501.76	2.38157e-07
3510.31	2.8919e-07
3518.87	2.72883e-07
3527.43	3.88718e-07
3535.99	3.52168e-07
3544.54	2.01295e-07
3553.1	2.70208e-07
3561.66	3.07544e-07
3570.22	2.26544e-07
3578.78	2.48855e-07
3587.33	3.67939e-07
3595.89	3.00703e-07
3604.45	2.51402e-07
3613.01	5.5602e-07
3621.56	3.66581e-07
3630.12	4.26802e-07
3638.68	4.20062e-07
3647.24	1.24993e-06
3655.79	7.60814e-07
3664.35	4.40022e-07
3672.91	4.84884e-07
3681.47	5.7704e-07
3690.02	6.13583e-07
3698.58	4.36576e-07
3707.14	5.14474e-07
3715.7	4.03725e-07
3724.25	3.62562e-07
3732.81	5.34576e-07
3741.37	7.43635e-07
3749.93	6.96148e-07
3758.49	4.0429e-07
3767.04	4.07587e-07
3775.6	4.69664e-07
3784.16	3.78687e-07
3792.72	3.65628e-07
3801.27	2.47895e-06
3809.83	4.02442e-07
3818.39	5.3134e-07
3826.95	6.57905e-07
3835.5	4.39455e-07
3844.06	5.56801e-07
3852.62	6.46508e-07
3861.18	6.14658e-07
3869.73	8.28451e-07
3878.29	5.34273e-07
3886.85	4.74749e-07
3895.41	5.70591e-07
3903.96	1.07565e-06
3912.52	6.98928e-07
3921.08	9.01032e-07
3929.64	8.81753e-07
3938.2	8.75531e-07
3946.75	6.52531e-07
3955.31	7.57298e-07
3963.87	8.85533e-07
3972.43	8.68704e-07
