Infrared Spectrum: Nitrile-Acetic Acid
Formula: C H3 C N
CAS: 75-05-8
State: gas
Melting point: -45.72 C
Boiling point: 81.6 C
Class: IUPAC A
Instrument: IFS66V (Bruker)
Instrument parameters: KBr Beam splitter; MCT Detector; Multipass cell
Sampling: 1 L/min Flow
Resolution: 0.4820
Temperature: 23 C
Pressure: 101.3 kPa
Origin: NIST, Anayltical Chemistry Division, 301-975-3108
cm-1	(micromol/mol)-1m-1 (base 10)
574.928	-2.21792e-07
583.606	-6.0199e-07
592.284	-3.92501e-07
600.962	-2.65352e-07
609.641	-1.81267e-07
618.319	-4.74907e-08
626.997	2.07255e-08
635.675	-1.35639e-07
644.353	-1.45418e-07
653.031	2.057e-07
661.71	4.97646e-09
670.388	2.65456e-07
679.066	5.86767e-07
687.744	1.92024e-06
696.422	5.74337e-06
705.1	6.62464e-06
713.778	2.94739e-06
722.457	5.08096e-06
731.135	5.17246e-06
739.813	2.32534e-06
748.491	6.18499e-07
757.169	5.78952e-08
765.847	-9.46295e-08
774.526	-1.26347e-07
783.204	-1.85049e-07
791.882	-1.5461e-07
800.56	-5.82692e-08
809.238	-1.46568e-07
817.916	-5.62811e-08
826.594	-8.09706e-08
835.273	-2.03012e-07
843.951	-6.37724e-08
852.629	-6.92836e-08
861.307	-4.35524e-08
869.985	-1.02651e-07
878.663	1.20634e-07
887.342	8.12124e-07
896.02	2.40519e-06
904.698	4.96478e-06
913.376	4.27282e-06
922.054	1.03888e-06
930.732	4.37246e-06
939.41	3.02364e-06
948.089	6.12796e-07
956.767	2.71411e-08
965.445	7.99316e-08
974.123	2.55618e-07
982.801	5.25591e-07
991.479	1.61918e-06
1000.16	3.23752e-06
1008.84	1.98542e-06
1017.51	2.99267e-06
1026.19	1.56219e-05
1034.87	4.41287e-06
1043.55	3.74604e-06
1052.23	4.43949e-06
1060.9	3.72771e-06
1069.58	3.6976e-06
1078.26	3.03743e-06
1086.94	2.11412e-06
1095.62	1.3256e-06
1104.3	9.55498e-07
1112.97	9.61881e-07
1121.65	2.53215e-07
1130.33	1.29223e-07
1139.01	-7.02383e-09
1147.69	-6.87946e-09
1156.36	-4.07545e-08
1165.04	1.20858e-08
1173.72	-4.21525e-08
1182.4	-1.58916e-08
1191.08	-5.36699e-08
1199.76	-4.05997e-08
1208.43	-2.03362e-08
1217.11	3.30966e-08
1225.79	4.51075e-08
1234.47	1.17129e-08
1243.15	6.06112e-08
1251.82	7.41146e-08
1260.5	1.34533e-07
1269.18	4.01401e-07
1277.86	6.13101e-07
1286.54	1.48746e-06
1295.21	2.50672e-06
1303.89	8.09125e-07
1312.57	1.41628e-06
1321.25	1.70267e-06
1329.93	3.10525e-06
1338.61	4.28844e-06
1347.28	2.96512e-06
1355.96	4.5244e-06
1364.64	1.36817e-05
1373.32	1.54756e-05
1382	1.26934e-05
1390.67	1.96749e-05
1399.35	2.35273e-05
1408.03	3.30925e-05
1416.71	2.24504e-05
1425.39	1.91635e-05
1434.07	1.93811e-05
1442.74	1.3406e-05
1451.42	1.68231e-05
1460.1	1.17915e-05
1468.78	1.57834e-05
1477.46	1.87834e-05
1486.13	1.38595e-05
1494.81	1.56741e-05
1503.49	1.2036e-05
1512.17	9.50454e-06
1520.85	1.02749e-05
1529.52	1.08891e-05
1538.2	9.8125e-06
1546.88	6.60117e-06
1555.56	9.33689e-06
1564.24	5.71849e-06
1572.92	4.09221e-06
1581.59	2.663e-06
1590.27	2.06566e-06
1598.95	1.34568e-06
1607.63	6.83796e-07
1616.31	2.04884e-06
1624.98	5.19151e-07
1633.66	2.48234e-07
1642.34	2.04196e-07
1651.02	2.44965e-07
1659.7	8.22266e-08
1668.38	2.24469e-07
1677.05	3.15012e-08
1685.73	1.48754e-07
1694.41	1.28882e-07
1703.09	9.05245e-08
1711.77	6.50541e-08
1720.44	1.06123e-07
1729.12	2.01844e-07
1737.8	2.38702e-07
1746.48	2.35637e-07
1755.16	2.40172e-07
1763.84	2.73295e-07
1772.51	1.3946e-06
1781.19	3.39372e-07
1789.87	3.3332e-07
1798.55	3.34374e-07
1807.23	4.44609e-07
1815.9	5.37941e-07
1824.58	6.02904e-07
1833.26	4.49824e-07
1841.94	6.64871e-07
1850.62	5.72399e-07
1859.29	3.56996e-07
1867.97	4.65169e-07
1876.65	1.56466e-07
1885.33	2.1244e-07
1894.01	2.83552e-07
1902.69	3.68433e-07
1911.36	1.7501e-07
1920.04	1.90068e-07
1928.72	1.18412e-07
1937.4	7.81032e-08
1946.08	4.05979e-08
1954.75	5.83406e-09
1963.43	4.69908e-09
1972.11	6.99541e-09
1980.79	4.0032e-08
1989.47	-1.81481e-08
1998.15	8.96367e-09
2006.82	2.46345e-08
2015.5	-1.27117e-09
2024.18	2.30925e-08
2032.86	2.59734e-08
2041.54	9.63443e-08
2050.21	1.73237e-07
2058.89	3.91202e-07
2067.57	3.55835e-07
2076.25	4.16514e-07
2084.93	5.5424e-07
2093.6	3.50441e-07
2102.28	1.87287e-07
2110.96	2.94668e-08
2119.64	1.05585e-07
2128.32	9.31244e-09
2137	5.04846e-08
2145.67	1.3751e-08
2154.35	4.64997e-08
2163.03	4.5474e-08
2171.71	5.64019e-08
2180.39	5.10216e-08
2189.06	4.27641e-08
2197.74	1.44504e-07
2206.42	1.33163e-07
2215.1	2.3288e-07
2223.78	3.76723e-07
2232.46	8.7312e-07
2241.13	2.28617e-06
2249.81	3.96326e-06
2258.49	3.61306e-06
2267.17	2.92199e-06
2275.85	6.53524e-06
2284.52	5.75936e-06
2293.2	4.00446e-06
2301.88	1.78447e-06
2310.56	4.41219e-06
2319.24	4.38209e-06
2327.92	1.59755e-06
2336.59	7.38316e-07
2345.27	5.76884e-07
2353.95	4.8255e-07
2362.63	7.78541e-07
2371.31	7.9332e-07
2379.98	1.167e-06
2388.66	9.3002e-07
2397.34	1.07494e-06
2406.02	1.51808e-06
2414.7	1.19571e-06
2423.37	1.55946e-06
2432.05	1.49155e-06
2440.73	1.01203e-06
2449.41	9.39542e-07
2458.09	1.05596e-06
2466.77	7.87851e-07
2475.44	1.24156e-06
2484.12	9.8732e-07
2492.8	1.02884e-06
2501.48	7.96655e-07
2510.16	6.96093e-07
2518.83	5.59462e-07
2527.51	5.42252e-07
2536.19	4.24808e-07
2544.87	3.89366e-07
2553.55	4.10683e-07
2562.23	3.13649e-07
2570.9	2.43079e-07
2579.58	2.20181e-07
2588.26	4.55674e-07
2596.94	7.91111e-07
2605.62	1.24014e-06
2614.29	1.96813e-06
2622.97	3.40071e-06
2631.65	1.31008e-06
2640.33	9.28828e-07
2649.01	4.26835e-07
2657.68	2.9365e-07
2666.36	3.36905e-07
2675.04	2.37336e-07
2683.72	1.99372e-07
2692.4	1.45612e-07
2701.08	6.04143e-08
2709.75	9.19212e-08
2718.43	2.73246e-07
2727.11	2.83274e-07
2735.79	3.89776e-07
2744.47	5.33208e-07
2753.14	4.8477e-07
2761.82	4.85938e-07
2770.5	2.01706e-07
2779.18	2.06278e-07
2787.86	1.17588e-07
2796.54	2.2845e-07
2805.21	2.63163e-07
2813.89	1.42791e-07
2822.57	6.20753e-07
2831.25	5.29858e-07
2839.93	7.5518e-07
2848.6	1.84549e-06
2857.28	2.17524e-06
2865.96	2.14444e-06
2874.64	3.59463e-06
2883.32	4.01477e-06
2892	2.68395e-06
2900.67	2.81388e-06
2909.35	2.64172e-06
2918.03	2.10208e-06
2926.71	2.12606e-06
2935.39	6.01969e-06
2944.06	9.10081e-06
2952.74	4.53951e-06
2961.42	7.41513e-06
2970.1	9.74733e-06
2978.78	5.30336e-06
2987.45	2.83433e-06
2996.13	2.52038e-06
3004.81	3.9857e-06
3013.49	2.15005e-05
3022.17	1.12009e-05
3030.85	5.02563e-06
3039.52	3.2089e-06
3048.2	2.54635e-06
3056.88	2.15677e-06
3065.56	1.70304e-06
3074.24	1.76587e-06
3082.91	1.38559e-06
3091.59	1.1088e-06
3100.27	9.38806e-07
3108.95	7.35784e-07
3117.63	4.96988e-07
3126.31	3.90161e-07
3134.98	5.05767e-07
3143.66	6.26556e-07
3152.34	9.9376e-07
3161.02	1.96731e-06
3169.7	2.30431e-06
3178.37	3.93386e-06
3187.05	3.35923e-06
3195.73	3.16269e-06
3204.41	8.72687e-07
3213.09	6.20291e-07
3221.77	9.16298e-07
3230.44	9.51697e-07
3239.12	2.92502e-07
3247.8	2.44263e-07
3256.48	1.36667e-07
3265.16	2.17868e-07
3273.83	1.64972e-07
3282.51	1.80612e-07
3291.19	2.22026e-07
3299.87	2.59262e-07
3308.55	2.40492e-07
3317.22	3.61072e-07
3325.9	2.63462e-07
3334.58	2.63915e-07
3343.26	3.27167e-07
3351.94	3.69524e-07
3360.62	4.49171e-07
3369.29	2.95388e-07
3377.97	3.79434e-07
3386.65	4.43547e-07
3395.33	3.38409e-07
3404.01	3.2529e-07
3412.68	3.17364e-07
3421.36	3.18281e-07
3430.04	2.74821e-07
3438.72	3.09075e-07
3447.4	3.50621e-07
3456.08	1.7872e-07
3464.75	2.78584e-07
3473.43	1.62205e-07
3482.11	2.648e-07
3490.79	2.4993e-07
3499.47	3.14469e-07
3508.14	2.98691e-07
3516.82	2.68653e-07
3525.5	3.24976e-07
3534.18	4.27731e-07
3542.86	3.05177e-07
3551.53	2.81309e-07
3560.21	3.23067e-07
3568.89	3.50226e-07
3577.57	3.09003e-07
3586.25	5.00895e-07
3594.93	3.49993e-07
3603.6	3.62608e-07
3612.28	6.70827e-07
3620.96	5.20112e-07
3629.64	1.76501e-06
3638.32	5.15706e-07
3646.99	1.01203e-06
3655.67	7.35192e-07
3664.35	4.72345e-07
3673.03	5.48091e-07
3681.71	6.5498e-07
3690.39	6.56487e-07
3699.06	5.08405e-07
3707.74	4.65763e-07
3716.42	4.7517e-07
3725.1	6.73395e-07
3733.78	4.2244e-07
3742.45	4.84968e-07
3751.13	5.97643e-07
3759.81	9.39404e-07
3768.49	3.93695e-07
3777.17	3.95722e-07
3785.85	4.7186e-07
3794.52	3.86369e-07
3803.2	5.42036e-07
3811.88	4.20673e-07
3820.56	1.10329e-06
3829.24	4.73455e-07
3837.91	2.60051e-06
3846.59	4.73816e-07
3855.27	5.64322e-07
3863.95	7.15444e-07
3872.63	5.13073e-07
3881.3	6.92696e-07
3889.98	5.6935e-07
3898.66	6.50029e-07
3907.34	6.29112e-07
3916.02	8.09753e-07
3924.7	9.73758e-07
3933.37	7.63542e-07
3942.05	7.6417e-07
3950.73	8.52772e-07
3959.41	8.45989e-07
3968.09	1.05344e-06
