Infrared Spectrum: Nitrile-Acetic Acid
Formula: C H3 C N
CAS: 75-05-8
State: gas
Melting point: -45.72 C
Boiling point: 81.6 C
Class: IUPAC A
Instrument: IFS66V (Bruker)
Instrument parameters: KBr Beam splitter; MCT Detector; Multipass cell
Sampling: 1 L/min Flow
Resolution: 0.9640
Temperature: 23 C
Pressure: 101.3 kPa
Origin: NIST, Anayltical Chemistry Division, 301-975-3108
cm-1	(micromol/mol)-1m-1 (base 10)
575.169	-4.58831e-07
583.847	-7.23353e-07
592.525	-1.90845e-07
601.203	-2.14547e-07
609.882	-3.1761e-07
618.56	-9.92204e-08
627.238	-1.6213e-08
635.916	-3.60464e-07
644.594	-3.06765e-08
653.272	1.48427e-07
661.951	4.68794e-09
670.629	1.87513e-07
679.307	6.43491e-07
687.985	1.9223e-06
696.663	5.80451e-06
705.341	6.28746e-06
714.019	2.5037e-06
722.698	5.25006e-06
731.376	5.10618e-06
740.054	2.26035e-06
748.732	6.77164e-07
757.41	2.55898e-08
766.088	-9.9907e-08
774.767	-4.05544e-08
783.445	-1.00639e-07
792.123	-7.70032e-08
800.801	-3.88583e-08
809.479	5.438e-09
818.157	5.83456e-08
826.835	-8.40943e-08
835.514	-2.61213e-07
844.192	-9.62526e-08
852.87	-6.15984e-08
861.548	4.30633e-08
870.226	-1.06905e-07
878.904	1.22399e-07
887.583	8.25858e-07
896.261	2.51707e-06
904.939	4.86991e-06
913.617	4.14039e-06
922.295	1.26909e-06
930.973	4.45479e-06
939.651	2.97207e-06
948.33	5.66139e-07
957.008	7.82694e-08
965.686	1.42561e-07
974.364	3.105e-07
983.042	7.325e-07
991.72	1.85054e-06
1000.4	1.80242e-06
1009.08	2.55651e-06
1017.75	2.82016e-06
1026.43	3.35055e-06
1035.11	3.73125e-06
1043.79	2.17189e-06
1052.47	3.58681e-06
1061.15	4.46292e-06
1069.82	3.37169e-06
1078.5	3.22008e-06
1087.18	2.28448e-06
1095.86	1.52373e-06
1104.54	1.15815e-06
1113.21	7.54373e-07
1121.89	2.57861e-07
1130.57	1.60832e-07
1139.25	8.59582e-08
1147.93	2.22704e-08
1156.61	-3.30877e-09
1165.28	2.96264e-08
1173.96	-3.80803e-08
1182.64	-5.75053e-08
1191.32	-5.69894e-08
1200	-1.26594e-09
1208.67	2.58783e-08
1217.35	1.45283e-08
1226.03	5.5168e-08
1234.71	5.52296e-08
1243.39	6.27534e-08
1252.07	9.95496e-08
1260.74	1.61144e-07
1269.42	3.62544e-07
1278.1	5.63478e-07
1286.78	1.46644e-06
1295.46	5.16047e-06
1304.13	8.6182e-07
1312.81	1.41613e-06
1321.49	1.65716e-06
1330.17	3.09818e-06
1338.85	4.57243e-06
1347.52	2.86984e-06
1356.2	3.97913e-06
1364.88	1.22474e-05
1373.56	1.5576e-05
1382.24	1.36649e-05
1390.92	1.80463e-05
1399.59	2.24058e-05
1408.27	3.13923e-05
1416.95	2.34398e-05
1425.63	1.92717e-05
1434.31	3.16614e-05
1442.98	1.35059e-05
1451.66	1.57181e-05
1460.34	1.46831e-05
1469.02	1.39064e-05
1477.7	2.32422e-05
1486.38	1.39832e-05
1495.05	2.07785e-05
1503.73	1.16614e-05
1512.41	1.10056e-05
1521.09	1.05036e-05
1529.77	9.49308e-06
1538.44	9.74971e-06
1547.12	6.90891e-06
1555.8	8.56377e-06
1564.48	3.73547e-06
1573.16	4.96483e-06
1581.83	3.03796e-06
1590.51	2.26283e-06
1599.19	1.45256e-06
1607.87	6.93449e-07
1616.55	3.1582e-06
1625.23	4.48726e-07
1633.9	1.43021e-07
1642.58	2.64023e-07
1651.26	5.45927e-07
1659.94	3.72302e-09
1668.62	-2.05654e-08
1677.29	3.65847e-08
1685.97	3.93366e-07
1694.65	4.01983e-07
1703.33	5.87355e-08
1712.01	4.5356e-08
1720.69	1.43671e-07
1729.36	1.93656e-07
1738.04	1.04406e-07
1746.72	2.12478e-07
1755.4	2.49393e-07
1764.08	3.10452e-07
1772.75	1.9942e-06
1781.43	2.45538e-07
1790.11	2.7235e-07
1798.79	2.98659e-07
1807.47	5.17119e-07
1816.15	5.46929e-07
1824.82	7.24363e-07
1833.5	5.23516e-07
1842.18	7.2592e-07
1850.86	5.3197e-07
1859.54	3.20552e-07
1868.21	4.37288e-07
1876.89	1.4869e-07
1885.57	2.04201e-07
1894.25	2.97518e-07
1902.93	3.63068e-07
1911.6	1.34837e-07
1920.28	2.2938e-07
1928.96	1.1816e-07
1937.64	8.28639e-08
1946.32	6.97058e-08
1955	1.61926e-08
1963.67	-2.53566e-08
1972.35	1.40522e-08
1981.03	2.44776e-08
1989.71	6.75487e-10
1998.39	-1.41989e-08
2007.06	-2.42207e-08
2015.74	6.53319e-09
2024.42	7.26486e-08
2033.1	1.28145e-08
2041.78	1.0095e-07
2050.46	1.21335e-07
2059.13	3.681e-07
2067.81	3.53293e-07
2076.49	5.4957e-07
2085.17	6.06234e-07
2093.85	3.43542e-07
2102.52	1.86984e-07
2111.2	8.27963e-08
2119.88	1.08056e-07
2128.56	6.02277e-10
2137.24	5.19847e-08
2145.91	1.94009e-08
2154.59	5.44591e-08
2163.27	2.05279e-08
2171.95	4.04298e-08
2180.63	5.29878e-08
2189.31	5.94392e-08
2197.98	1.69943e-07
2206.66	1.04532e-07
2215.34	2.95362e-07
2224.02	4.17483e-07
2232.7	9.81174e-07
2241.37	2.40939e-06
2250.05	4.25182e-06
2258.73	3.50669e-06
2267.41	1.44837e-06
2276.09	6.54178e-06
2284.77	5.74781e-06
2293.44	4.11209e-06
2302.12	1.90278e-06
2310.8	4.45499e-06
2319.48	4.23449e-06
2328.16	1.53984e-06
2336.83	6.08228e-07
2345.51	6.30426e-07
2354.19	6.12056e-07
2362.87	9.41397e-07
2371.55	8.55295e-07
2380.23	9.90302e-07
2388.9	9.0242e-07
2397.58	1.07607e-06
2406.26	1.58647e-06
2414.94	1.18287e-06
2423.62	1.56587e-06
2432.29	1.71907e-06
2440.97	1.04361e-06
2449.65	8.48701e-07
2458.33	1.00298e-06
2467.01	7.43815e-07
2475.68	1.20942e-06
2484.36	9.65273e-07
2493.04	9.42525e-07
2501.72	8.79383e-07
2510.4	6.67451e-07
2519.08	5.33732e-07
2527.75	5.09384e-07
2536.43	4.3709e-07
2545.11	3.26803e-07
2553.79	4.3322e-07
2562.47	3.35739e-07
2571.14	2.46697e-07
2579.82	1.70775e-07
2588.5	4.7645e-07
2597.18	8.13752e-07
2605.86	1.2549e-06
2614.54	1.92987e-06
2623.21	3.07092e-06
2631.89	1.26726e-06
2640.57	9.2406e-07
2649.25	4.54948e-07
2657.93	3.10312e-07
2666.6	3.86401e-07
2675.28	2.28652e-07
2683.96	1.63688e-07
2692.64	1.50719e-07
2701.32	5.03084e-08
2709.99	9.23918e-08
2718.67	2.62846e-07
2727.35	2.39464e-07
2736.03	3.86713e-07
2744.71	5.18444e-07
2753.39	4.47422e-07
2762.06	4.46404e-07
2770.74	1.67555e-07
2779.42	2.2493e-07
2788.1	1.148e-07
2796.78	1.56983e-07
2805.45	2.32912e-07
2814.13	1.96821e-07
2822.81	6.7175e-07
2831.49	5.05767e-07
2840.17	7.51789e-07
2848.85	1.97817e-06
2857.52	2.16051e-06
2866.2	2.43173e-06
2874.88	3.70339e-06
2883.56	4.0494e-06
2892.24	3.019e-06
2900.91	2.76341e-06
2909.59	2.44837e-06
2918.27	2.15712e-06
2926.95	2.48819e-06
2935.63	6.03724e-06
2944.31	9.03886e-06
2952.98	5.74253e-06
2961.66	7.78659e-06
2970.34	9.32095e-06
2979.02	4.91037e-06
2987.7	3.66573e-06
2996.37	1.05555e-06
3005.05	4.1446e-06
3013.73	8.35781e-06
3022.41	1.82568e-05
3031.09	5.93427e-06
3039.76	3.15488e-06
3048.44	3.7318e-06
3057.12	2.19608e-06
3065.8	2.44059e-06
3074.48	1.44086e-06
3083.16	1.32655e-06
3091.83	1.14033e-06
3100.51	1.02684e-06
3109.19	9.7521e-07
3117.87	4.98321e-07
3126.55	5.19896e-07
3135.22	5.3158e-07
3143.9	5.81328e-07
3152.58	1.03864e-06
3161.26	1.94879e-06
3169.94	2.27086e-06
3178.62	4.03464e-06
3187.29	3.42249e-06
3195.97	3.09744e-06
3204.65	8.47552e-07
3213.33	5.95771e-07
3222.01	9.57728e-07
3230.68	8.6972e-07
3239.36	2.98555e-07
3248.04	2.57413e-07
3256.72	2.3643e-07
3265.4	2.75012e-07
3274.07	1.01064e-07
3282.75	1.3744e-07
3291.43	1.9905e-07
3300.11	2.95431e-07
3308.79	2.76813e-07
3317.47	3.47145e-07
3326.14	2.84651e-07
3334.82	3.60876e-07
3343.5	3.67093e-07
3352.18	2.77251e-07
3360.86	3.78174e-07
3369.53	2.46815e-07
3378.21	3.88678e-07
3386.89	4.67969e-07
3395.57	3.72484e-07
3404.25	3.55166e-07
3412.93	2.75575e-07
3421.6	3.80361e-07
3430.28	3.3564e-07
3438.96	3.51303e-07
3447.64	3.55926e-07
3456.32	1.04572e-07
3464.99	2.4626e-07
3473.67	1.91766e-07
3482.35	1.60779e-07
3491.03	1.67626e-07
3499.71	3.30711e-07
3508.39	3.03542e-07
3517.06	3.7083e-07
3525.74	3.30563e-07
3534.42	3.89564e-07
3543.1	3.0872e-07
3551.78	2.64118e-07
3560.45	3.33024e-07
3569.13	3.88557e-07
3577.81	2.97127e-07
3586.49	8.53104e-07
3595.17	5.09528e-07
3603.84	3.3644e-07
3612.52	1.02622e-06
3621.2	4.61099e-07
3629.88	1.33099e-06
3638.56	4.79069e-07
3647.24	1.32414e-06
3655.91	1.01269e-06
3664.59	4.61855e-07
3673.27	3.41463e-07
3681.95	6.6569e-07
3690.63	6.53802e-07
3699.3	5.00926e-07
3707.98	4.91331e-07
3716.66	4.70653e-07
3725.34	6.24782e-07
3734.02	4.2919e-07
3742.7	4.7211e-07
3751.37	4.05836e-07
3760.05	9.71037e-07
3768.73	5.15014e-07
3777.41	4.15683e-07
3786.09	5.06373e-07
3794.76	2.95536e-07
3803.44	5.35922e-07
3812.12	5.12379e-07
3820.8	1.43772e-06
3829.48	4.99766e-07
3838.16	2.01276e-06
3846.83	6.11425e-07
3855.51	5.81699e-07
3864.19	8.56071e-07
3872.87	3.93645e-07
3881.55	6.38756e-07
3890.22	5.73641e-07
3898.9	7.67373e-07
3907.58	6.01405e-07
3916.26	8.46303e-07
3924.94	1.01738e-06
3933.61	7.63691e-07
3942.29	8.75473e-07
3950.97	7.5399e-07
3959.65	9.1009e-07
3968.33	7.39853e-07
