Infrared Spectrum: Dichloromethane
Formula: C H2 Cl2
CAS: 75-09-2
State: gas
Melting point: -95.1 C
Boiling point: 40 C
Class: IUPAC A
Instrument: IFS66V (Bruker)
Instrument parameters: KBr Beam Splitter; MCT Detector; Multipass cell
Sampling: 1 L/min Flow
Resolution: 0.4820
Temperature: 23 C
Pressure: 101.3 Pa
Origin: NIST, Analytical Chemistry Division, 301-975-3108
cm-1	(micromol/mol)-1m-1 (base 10)
575.17	6.16306e-07
583.848	-1.72546e-07
592.526	6.53959e-07
601.205	-7.45427e-08
609.883	-1.56775e-07
618.561	4.34775e-07
627.239	4.54832e-07
635.917	5.61093e-07
644.595	4.96637e-07
653.274	1.23053e-06
661.952	2.58028e-06
670.63	5.92838e-06
679.308	9.93006e-06
687.986	1.76977e-05
696.665	2.5789e-05
705.343	3.72286e-05
714.021	2.95824e-05
722.699	7.14425e-05
731.377	7.53193e-05
740.055	0.000289774
748.734	0.000832306
757.412	0.000621247
766.09	0.000684566
774.768	0.000104657
783.446	1.95077e-06
792.124	3.27967e-07
800.803	5.74852e-08
809.481	-1.49971e-07
818.159	2.81101e-07
826.837	6.85001e-08
835.515	-2.03535e-07
844.194	1.46625e-07
852.872	2.71676e-07
861.55	3.76972e-07
870.228	6.7184e-07
878.906	1.60528e-06
887.584	3.00887e-06
896.263	5.97692e-06
904.941	3.08006e-06
913.619	3.09895e-06
922.297	3.04896e-06
930.975	1.83852e-06
939.654	1.18273e-06
948.332	5.76859e-07
957.01	2.46537e-07
965.688	2.12371e-07
974.366	3.28921e-07
983.044	3.80009e-07
991.723	2.47782e-07
1000.4	2.71697e-07
1009.08	2.60098e-07
1017.76	3.12824e-07
1026.44	2.73754e-07
1035.11	2.13018e-07
1043.79	4.52166e-07
1052.47	3.37389e-07
1061.15	1.27403e-07
1069.83	-9.17857e-08
1078.5	-1.1336e-07
1087.18	-1.50143e-07
1095.86	4.74217e-08
1104.54	-1.63681e-08
1113.22	8.30819e-09
1121.9	-3.68816e-08
1130.57	7.65927e-08
1139.25	-3.70335e-08
1147.93	-2.57404e-08
1156.61	-2.70373e-08
1165.29	1.99024e-08
1173.96	-3.72836e-08
1182.64	7.16833e-08
1191.32	7.64235e-08
1200	-1.00443e-07
1208.68	-5.15999e-08
1217.36	3.33646e-08
1226.03	-3.43614e-08
1234.71	1.61045e-07
1243.39	3.64069e-06
1252.07	6.22834e-05
1260.75	0.000219126
1269.42	3.58521e-05
1278.1	0.000211553
1286.78	1.9207e-05
1295.46	9.62713e-08
1304.14	-6.98707e-08
1312.82	5.07514e-08
1321.49	-2.06263e-08
1330.17	-8.87553e-08
1338.85	-1.10139e-07
1347.53	1.43255e-07
1356.21	-1.25048e-07
1364.88	-1.41337e-07
1373.56	2.88172e-08
1382.24	8.63925e-09
1390.92	2.40875e-07
1399.6	1.38782e-07
1408.28	4.07686e-07
1416.95	5.08353e-07
1425.63	1.14141e-06
1434.31	1.21765e-06
1442.99	2.74418e-06
1451.67	5.05487e-06
1460.34	7.55253e-06
1469.02	8.09237e-06
1477.7	5.59966e-06
1486.38	1.92233e-07
1495.06	8.11802e-08
1503.74	5.17309e-08
1512.41	-8.08582e-08
1521.09	-2.80047e-07
1529.77	1.16767e-07
1538.45	3.29238e-07
1547.13	3.61721e-07
1555.8	4.89521e-07
1564.48	4.81775e-08
1573.16	3.1462e-08
1581.84	2.47181e-08
1590.52	1.6057e-08
1599.2	1.28015e-07
1607.87	5.93988e-08
1616.55	-2.79965e-07
1625.23	4.28661e-08
1633.91	4.44113e-08
1642.59	3.84742e-08
1651.26	-5.4433e-08
1659.94	6.95769e-08
1668.62	1.14632e-08
1677.3	1.4721e-08
1685.98	-3.48735e-08
1694.66	-2.37441e-08
1703.33	-3.61204e-08
1712.01	2.29446e-08
1720.69	9.1351e-08
1729.37	5.76344e-08
1738.05	-1.01517e-08
1746.72	4.74481e-08
1755.4	-3.01132e-09
1764.08	1.42226e-08
1772.76	-1.01642e-07
1781.44	2.71019e-08
1790.12	1.00812e-07
1798.79	9.86133e-08
1807.47	3.39767e-08
1816.15	3.81495e-08
1824.83	-8.95156e-08
1833.51	-3.18303e-08
1842.18	3.30536e-08
1850.86	1.22208e-08
1859.54	-1.53222e-08
1868.22	2.91883e-08
1876.9	-4.24877e-08
1885.58	-7.55422e-08
1894.25	-7.68155e-08
1902.93	-1.18452e-08
1911.61	3.11591e-09
1920.29	3.84469e-08
1928.97	-3.55029e-08
1937.64	-7.54404e-08
1946.32	3.07408e-10
1955	-7.88864e-08
1963.68	7.14768e-08
1972.36	1.8584e-07
1981.04	2.61426e-07
1989.71	3.69617e-07
1998.39	7.11594e-08
2007.07	8.079e-08
2015.75	1.34426e-07
2024.43	3.45815e-08
2033.1	2.21207e-07
2041.78	1.96101e-07
2050.46	7.5831e-07
2059.14	6.57967e-07
2067.82	7.10203e-07
2076.5	7.06083e-08
2085.17	2.53948e-08
2093.85	1.16924e-08
2102.53	-7.64017e-08
2111.21	-2.45162e-08
2119.89	-1.15228e-07
2128.56	2.00277e-07
2137.24	2.59397e-07
2145.92	1.68492e-07
2154.6	2.38756e-07
2163.28	3.47038e-07
2171.96	4.50891e-07
2180.63	6.85019e-07
2189.31	4.55095e-07
2197.99	2.50054e-07
2206.67	-6.85674e-08
2215.35	-6.88311e-08
2224.02	2.56776e-08
2232.7	5.09951e-08
2241.38	-2.82942e-09
2250.06	1.27895e-07
2258.74	9.21523e-08
2267.42	1.96731e-07
2276.09	3.52169e-07
2284.77	8.09031e-07
2293.45	1.28228e-06
2302.13	1.58688e-06
2310.81	2.13576e-06
2319.48	5.22721e-06
2328.16	2.21886e-06
2336.84	1.50026e-06
2345.52	1.45312e-06
2354.2	1.6171e-06
2362.88	2.42844e-06
2371.55	1.02698e-06
2380.23	1.50035e-07
2388.91	1.79327e-07
2397.59	2.20489e-07
2406.27	3.05206e-07
2414.94	8.46016e-07
2423.62	2.58424e-07
2432.3	2.57128e-07
2440.98	1.79773e-07
2449.66	1.50683e-07
2458.34	8.84297e-09
2467.01	-8.85389e-09
2475.69	5.4784e-08
2484.37	-2.10029e-08
2493.05	9.93818e-08
2501.73	4.63576e-08
2510.4	-1.38665e-07
2519.08	-2.54161e-07
2527.76	-2.79695e-07
2536.44	-2.48796e-07
2545.12	-3.10439e-07
2553.8	-4.80518e-07
2562.47	-3.66208e-07
2571.15	-1.63418e-07
2579.83	-2.17123e-08
2588.51	-5.03448e-08
2597.19	6.12505e-08
2605.86	-1.18934e-08
2614.54	-5.86103e-08
2623.22	1.42517e-07
2631.9	5.06586e-08
2640.58	-1.068e-07
2649.26	-2.86271e-08
2657.93	2.64516e-08
2666.61	-3.97393e-08
2675.29	9.93818e-08
2683.97	9.74883e-07
2692.65	2.38659e-06
2701.32	6.68225e-07
2710	2.18129e-06
2718.68	8.45171e-08
2727.36	-2.8899e-08
2736.04	1.69347e-09
2744.71	9.03251e-08
2753.39	6.60144e-08
2762.07	-3.1532e-09
2770.75	-5.24958e-09
2779.43	5.42738e-08
2788.11	-7.74986e-08
2796.78	2.92547e-08
2805.46	6.16552e-08
2814.14	3.35825e-07
2822.82	3.87812e-07
2831.5	7.08364e-07
2840.17	8.27932e-07
2848.85	9.75716e-07
2857.53	9.77328e-07
2866.21	9.76633e-07
2874.89	8.09662e-07
2883.57	4.83741e-07
2892.24	1.24586e-07
2900.92	9.55337e-08
2909.6	-1.43954e-08
2918.28	2.66522e-07
2926.96	1.36875e-07
2935.63	5.26706e-07
2944.31	9.4216e-07
2952.99	2.55213e-06
2961.67	5.1954e-06
2970.35	7.31367e-06
2979.03	1.51336e-05
2987.7	1.91716e-05
2996.38	1.18557e-05
3005.06	2.41245e-05
3013.74	2.03693e-05
3022.42	1.15814e-05
3031.09	7.13776e-06
3039.77	3.93332e-06
3048.45	1.93651e-06
3057.13	7.80936e-07
3065.81	3.48716e-07
3074.49	6.07603e-08
3083.16	-6.97934e-08
3091.84	1.53795e-08
3100.52	-2.05399e-08
3109.2	-7.55686e-08
3117.88	4.62494e-08
3126.55	1.22163e-07
3135.23	-1.16541e-07
3143.91	1.31374e-07
3152.59	-2.06036e-08
3161.27	-4.52107e-08
3169.95	-1.02885e-07
3178.62	4.2364e-08
3187.3	-1.60907e-08
3195.98	-5.19473e-08
3204.66	7.20489e-08
3213.34	1.11979e-07
3222.01	-5.45103e-08
3230.69	-9.7491e-08
3239.37	-8.03644e-08
3248.05	9.86769e-08
3256.73	1.99524e-08
3265.41	1.27778e-07
3274.08	-7.76468e-08
3282.76	1.03611e-07
3291.44	3.66133e-08
3300.12	-9.2677e-08
3308.8	-4.11453e-09
3317.47	-2.38978e-08
3326.15	-9.16147e-08
3334.83	1.15879e-07
3343.51	-7.19343e-08
3352.19	-8.66708e-08
3360.87	-6.90321e-08
3369.54	-1.31421e-08
3378.22	-1.00538e-07
3386.9	-9.67697e-08
3395.58	2.11047e-08
3404.26	1.55225e-07
3412.93	8.04862e-08
3421.61	-3.67534e-08
3430.29	9.14665e-08
3438.97	-3.29172e-08
3447.65	5.35417e-09
3456.33	-4.61921e-08
3465	-8.09446e-11
3473.68	1.91266e-07
3482.36	9.87242e-08
3491.04	-8.94847e-09
3499.72	-7.91402e-08
3508.39	-1.37024e-07
3517.07	-2.06103e-07
3525.75	-2.09805e-07
3534.43	5.92551e-08
3543.11	3.09153e-07
3551.79	1.83843e-07
3560.46	3.1589e-07
3569.14	4.60238e-08
3577.82	3.8014e-08
3586.5	1.05705e-07
3595.18	-8.13048e-08
3603.85	6.37762e-08
3612.53	-1.98235e-07
3621.21	-5.69568e-08
3629.89	-1.54024e-07
3638.57	3.08808e-08
3647.25	-9.1472e-08
3655.92	1.31858e-08
3664.6	2.2529e-08
3673.28	2.45881e-08
3681.96	1.78035e-07
3690.64	1.23534e-07
3699.31	5.42559e-07
3707.99	4.306e-07
3716.67	5.56198e-07
3725.35	5.60209e-07
3734.03	5.33423e-07
3742.71	6.00078e-07
3751.38	7.44138e-07
3760.06	7.41298e-07
3768.74	7.05601e-07
3777.42	2.5462e-07
3786.1	2.90205e-07
3794.77	1.14179e-07
3803.45	-1.40333e-07
3812.13	1.14603e-07
3820.81	-1.59323e-07
3829.49	1.42037e-07
3838.17	3.64633e-08
3846.84	3.18003e-08
3855.52	-2.15904e-08
3864.2	-1.78524e-08
3872.88	-7.55659e-08
3881.56	3.79876e-08
3890.23	5.22356e-08
3898.91	-5.29769e-08
3907.59	2.32393e-07
3916.27	2.05418e-07
3924.95	1.19623e-07
3933.63	6.12303e-07
3942.3	6.02659e-07
3950.98	5.47854e-07
3959.66	5.933e-07
3968.34	4.18365e-07
