Infrared Spectrum: Dichloromethane
Formula: C H2 Cl2
CAS: 75-09-2
State: gas
Melting point: -95.1 C
Boiling point: 40 C
Class: IUPAC A
Instrument: IFS66V (Bruker)
Instrument parameters: KBr Beam Splitter; MCT Detector; Multipass cell
Sampling: 1 L/min Flow
Resolution: 0.9640
Temperature: 23 C
Pressure: 101.3 Pa
Origin: NIST, Analytical Chemistry Division, 301-975-3108
cm-1	(micromol/mol)-1m-1 (base 10)
575.17	5.69163e-07
583.848	6.35106e-08
592.526	5.49577e-07
601.205	-4.77073e-08
609.883	-2.34272e-07
618.561	2.76157e-07
627.239	2.08221e-07
635.917	3.91943e-07
644.595	3.85892e-07
653.274	9.67391e-07
661.952	2.55509e-06
670.63	5.91559e-06
679.308	9.97502e-06
687.986	1.7515e-05
696.665	2.61017e-05
705.343	3.76993e-05
714.021	2.98528e-05
722.699	7.23688e-05
731.377	7.55573e-05
740.055	0.000290127
748.734	0.000830505
757.412	0.000617531
766.09	0.000683519
774.768	0.000105036
783.446	2.01141e-06
792.125	2.4791e-07
800.803	6.16543e-09
809.481	-7.13559e-08
818.159	1.76382e-07
826.837	8.52983e-08
835.515	-2.26145e-07
844.194	4.21785e-08
852.872	1.00899e-07
861.55	3.98784e-07
870.228	6.58897e-07
878.906	1.64918e-06
887.584	2.75838e-06
896.263	6.04491e-06
904.941	2.94482e-06
913.619	3.25839e-06
922.297	3.00352e-06
930.975	1.84831e-06
939.654	1.13846e-06
948.332	5.3748e-07
957.01	2.81773e-07
965.688	1.91409e-07
974.366	3.05705e-07
983.044	3.84124e-07
991.723	2.36225e-07
1000.4	2.8888e-07
1009.08	2.50876e-07
1017.76	2.67127e-07
1026.44	2.78239e-07
1035.11	2.66709e-07
1043.79	4.13842e-07
1052.47	2.55072e-07
1061.15	8.41096e-08
1069.83	-8.22752e-08
1078.5	-8.94111e-08
1087.18	-9.58393e-08
1095.86	5.58418e-08
1104.54	-5.75234e-08
1113.22	-3.29463e-08
1121.9	-3.53091e-08
1130.57	3.2286e-08
1139.25	-1.84481e-08
1147.93	-3.8918e-08
1156.61	-3.34065e-08
1165.29	-6.11814e-09
1173.96	-1.48301e-08
1182.64	3.35702e-08
1191.32	6.92713e-08
1200	-6.59235e-08
1208.68	-3.62232e-08
1217.36	4.59365e-08
1226.03	5.68431e-10
1234.71	1.65277e-07
1243.39	3.68414e-06
1252.07	6.23779e-05
1260.75	0.000219229
1269.42	4.26369e-05
1278.1	0.000211312
1286.78	1.93553e-05
1295.46	1.25655e-07
1304.14	-4.33763e-08
1312.82	-3.02951e-09
1321.49	-2.23544e-08
1330.17	-3.02387e-08
1338.85	-5.66494e-08
1347.53	1.03764e-08
1356.21	-4.5389e-08
1364.88	-1.23489e-07
1373.56	2.57176e-08
1382.24	1.89829e-08
1390.92	1.66103e-07
1399.6	1.4164e-07
1408.28	3.65772e-07
1416.95	5.1708e-07
1425.63	1.11312e-06
1434.31	1.19189e-06
1442.99	2.7605e-06
1451.67	5.08761e-06
1460.34	7.49856e-06
1469.02	8.07419e-06
1477.7	5.57009e-06
1486.38	2.0198e-07
1495.06	8.18896e-08
1503.74	3.0678e-08
1512.41	-5.87358e-08
1521.09	-2.05013e-07
1529.77	7.57169e-08
1538.45	2.82823e-07
1547.13	3.59028e-07
1555.8	4.64261e-07
1564.48	1.14217e-07
1573.16	2.0459e-08
1581.84	1.94749e-08
1590.52	2.78031e-08
1599.2	8.56412e-08
1607.87	9.04843e-08
1616.55	-1.91307e-07
1625.23	3.78066e-08
1633.91	-4.80575e-09
1642.59	3.26325e-08
1651.26	-4.43804e-08
1659.94	2.06018e-08
1668.62	-3.19367e-08
1677.3	4.55654e-09
1685.98	-3.94473e-08
1694.66	1.02954e-09
1703.33	-1.60389e-08
1712.01	8.50373e-09
1720.69	6.3858e-08
1729.37	5.80564e-08
1738.05	1.69174e-08
1746.72	2.72065e-08
1755.4	1.20553e-08
1764.08	1.45337e-08
1772.76	-6.17489e-08
1781.44	3.41695e-08
1790.12	6.73259e-08
1798.79	8.42688e-08
1807.47	2.78522e-08
1816.15	2.20469e-08
1824.83	-6.37225e-08
1833.51	-1.61553e-08
1842.18	5.39055e-08
1850.86	9.30317e-09
1859.54	-3.54928e-08
1868.22	5.78618e-09
1876.9	-4.47842e-08
1885.58	-4.8785e-08
1894.25	-5.80437e-08
1902.93	-7.81889e-09
1911.61	-3.27416e-09
1920.29	1.40634e-08
1928.97	-2.81069e-08
1937.64	-8.19796e-08
1946.32	1.50975e-09
1955	-7.0209e-08
1963.68	6.42109e-08
1972.36	1.91353e-07
1981.04	2.2755e-07
1989.71	3.41226e-07
1998.39	7.27674e-08
2007.07	8.22425e-08
2015.75	7.94403e-08
2024.43	3.92036e-08
2033.1	1.67514e-07
2041.78	2.18975e-07
2050.46	7.70068e-07
2059.14	6.68403e-07
2067.82	7.442e-07
2076.5	5.34653e-08
2085.17	2.93965e-08
2093.85	2.21488e-08
2102.53	-2.67454e-08
2111.21	-3.62568e-08
2119.89	-3.91499e-08
2128.56	1.52137e-07
2137.24	2.35943e-07
2145.92	1.87694e-07
2154.6	3.03958e-07
2163.28	3.6052e-07
2171.96	4.58421e-07
2180.63	6.69616e-07
2189.31	4.33625e-07
2197.99	2.28801e-07
2206.67	-4.9911e-08
2215.35	-5.35771e-08
2224.02	-2.29746e-08
2232.7	5.63738e-08
2241.38	3.67161e-09
2250.06	1.19497e-07
2258.74	1.15645e-07
2267.42	1.84254e-07
2276.09	3.86723e-07
2284.77	7.95359e-07
2293.45	1.29779e-06
2302.13	1.66461e-06
2310.81	2.03555e-06
2319.48	5.11336e-06
2328.16	2.38197e-06
2336.84	1.67995e-06
2345.52	1.55634e-06
2354.2	1.46625e-06
2362.88	1.65339e-06
2371.55	7.51211e-07
2380.23	2.18867e-07
2388.91	2.04552e-07
2397.59	2.37568e-07
2406.27	3.33952e-07
2414.94	8.97867e-07
2423.62	2.72822e-07
2432.3	2.70205e-07
2440.98	2.00804e-07
2449.66	1.7715e-07
2458.34	1.75895e-08
2467.01	9.57147e-09
2475.69	3.34902e-08
2484.37	1.68528e-09
2493.05	8.27127e-08
2501.73	-6.43464e-09
2510.4	-1.41036e-07
2519.08	-1.99479e-07
2527.76	-2.64532e-07
2536.44	-1.8044e-07
2545.12	-2.92115e-07
2553.8	-4.68267e-07
2562.47	-3.58856e-07
2571.15	-1.65823e-07
2579.83	-3.11846e-08
2588.51	-3.89325e-08
2597.19	7.97532e-08
2605.86	-2.23707e-08
2614.54	-5.40319e-08
2623.22	1.03224e-07
2631.9	1.59561e-08
2640.58	-5.63775e-08
2649.26	-2.95994e-08
2657.93	4.11581e-08
2666.61	-6.49376e-08
2675.29	1.24957e-07
2683.97	9.43842e-07
2692.65	2.47373e-06
2701.32	7.51125e-07
2710	2.22963e-06
2718.68	8.22943e-08
2727.36	-8.43279e-09
2736.04	-1.29148e-10
2744.72	8.55457e-08
2753.39	7.66827e-08
2762.07	1.9996e-08
2770.75	3.34238e-08
2779.43	2.28355e-08
2788.11	-5.80164e-09
2796.78	-1.0521e-08
2805.46	9.88416e-08
2814.14	3.28331e-07
2822.82	4.02088e-07
2831.5	6.13865e-07
2840.18	8.69848e-07
2848.85	9.91741e-07
2857.53	1.01656e-06
2866.21	1.05654e-06
2874.89	7.11694e-07
2883.57	4.94007e-07
2892.24	1.5095e-07
2900.92	1.23069e-07
2909.6	-4.32644e-09
2918.28	2.30623e-07
2926.96	1.40106e-07
2935.63	5.657e-07
2944.31	1.00204e-06
2952.99	2.54765e-06
2961.67	5.32176e-06
2970.35	7.56008e-06
2979.03	1.41793e-05
2987.7	2.08787e-05
2996.38	1.19543e-05
3005.06	2.49507e-05
3013.74	1.93625e-05
3022.42	1.21674e-05
3031.09	7.51248e-06
3039.77	4.04895e-06
3048.45	1.90106e-06
3057.13	7.31415e-07
3065.81	2.72574e-07
3074.49	1.26309e-07
3083.16	-2.65817e-08
3091.84	-1.63426e-08
3100.52	1.35014e-08
3109.2	-1.01809e-07
3117.88	1.30148e-09
3126.55	9.07762e-08
3135.23	-7.19225e-08
3143.91	8.60514e-08
3152.59	-1.07574e-08
3161.27	-1.27301e-08
3169.95	-5.9497e-08
3178.62	3.28808e-08
3187.3	-1.56769e-08
3195.98	-4.40357e-08
3204.66	3.74483e-08
3213.34	7.2982e-08
3222.01	-5.40564e-08
3230.69	-1.0917e-07
3239.37	-1.05294e-07
3248.05	1.0973e-07
3256.73	1.30357e-08
3265.41	7.29111e-08
3274.08	-3.79348e-09
3282.76	1.34591e-07
3291.44	4.23449e-08
3300.12	-5.24512e-08
3308.8	1.44491e-08
3317.47	1.65436e-08
3326.15	-7.03918e-08
3334.83	9.88234e-08
3343.51	-7.78432e-09
3352.19	-9.33164e-08
3360.87	-2.7905e-08
3369.54	-6.40827e-09
3378.22	-5.08105e-08
3386.9	-2.53193e-08
3395.58	6.43391e-08
3404.26	8.87908e-08
3412.93	1.75895e-08
3421.61	-4.37283e-09
3430.29	1.64499e-08
3438.97	-7.1957e-08
3447.65	3.71709e-09
3456.33	-3.6978e-08
3465	-1.24236e-09
3473.68	6.23164e-08
3482.36	1.59254e-07
3491.04	-7.30211e-08
3499.72	-7.21007e-08
3508.39	-7.39534e-08
3517.07	-1.87366e-07
3525.75	-1.4921e-07
3534.43	1.59934e-08
3543.11	1.69174e-07
3551.79	1.84944e-07
3560.46	2.38818e-07
3569.14	2.74248e-08
3577.82	3.78602e-08
3586.5	5.31952e-08
3595.18	-7.12622e-08
3603.85	-4.27824e-09
3612.53	-1.16195e-07
3621.21	-5.85739e-08
3629.89	-1.15351e-07
3638.57	-2.70883e-08
3647.25	-6.50203e-08
3655.92	-2.49628e-08
3664.6	1.61525e-09
3673.28	5.77444e-08
3681.96	1.87167e-07
3690.64	1.7369e-07
3699.31	4.38659e-07
3707.99	4.18496e-07
3716.67	5.79094e-07
3725.35	5.4539e-07
3734.03	5.2389e-07
3742.71	5.95922e-07
3751.38	7.31153e-07
3760.06	6.74185e-07
3768.74	7.33426e-07
3777.42	2.44451e-07
3786.1	3.08643e-07
3794.77	1.51196e-07
3803.45	-5.50432e-08
3812.13	8.79422e-08
3820.81	-1.22031e-07
3829.49	1.2319e-07
3838.17	-7.74303e-08
3846.84	2.58195e-08
3855.52	4.90788e-08
3864.2	5.85111e-08
3872.88	-2.97503e-08
3881.56	7.55786e-10
3890.23	3.74728e-08
3898.91	-3.80467e-08
3907.59	1.90792e-07
3916.27	1.99457e-07
3924.95	1.59526e-07
3933.63	5.99016e-07
3942.3	5.63729e-07
3950.98	5.0312e-07
3959.66	5.88622e-07
3968.34	3.81049e-07
