Infrared Spectrum: Dichloromethane
Formula: C H2 Cl2
CAS: 75-09-2
State: gas
Melting point: -95.1 C
Boiling point: 40 C
Class: IUPAC A
Instrument: IFS66V (Bruker)
Instrument parameters: KBr Beam Splitter; MCT Detector; Multipass cell
Sampling: 1 L/min Flow
Resolution: 1.9290
Temperature: 23 C
Pressure: 101.3 Pa
Origin: NIST, Analytical Chemistry Division, 301-975-3108
cm-1	(micromol/mol)-1m-1 (base 10)
575.652	2.10739e-07
584.33	4.62694e-08
593.008	3.46495e-07
601.687	2.60978e-07
610.365	-1.41983e-07
619.043	4.85395e-08
627.721	1.08744e-07
636.399	2.54654e-07
645.077	2.89119e-07
653.756	1.098e-06
662.434	2.58298e-06
671.112	6.03431e-06
679.79	1.05016e-05
688.468	1.78129e-05
697.147	2.66491e-05
705.825	3.63822e-05
714.503	3.10926e-05
723.181	7.34799e-05
731.859	7.95289e-05
740.537	0.000317773
749.216	0.000834917
757.894	0.000647271
766.572	0.000652175
775.25	9.12705e-05
783.928	1.72362e-06
792.607	1.53767e-07
801.285	8.30019e-08
809.963	-5.64248e-09
818.641	1.57897e-08
827.319	6.02346e-08
835.997	-1.51133e-07
844.676	-1.45564e-08
853.354	3.85615e-08
862.032	3.89116e-07
870.71	8.0591e-07
879.388	1.76102e-06
888.066	2.47013e-06
896.745	7.11322e-06
905.423	2.81565e-06
914.101	3.39293e-06
922.779	2.84989e-06
931.457	1.80567e-06
940.136	1.09068e-06
948.814	5.25389e-07
957.492	2.23735e-07
966.17	2.10833e-07
974.848	3.02317e-07
983.526	3.49035e-07
992.205	3.09086e-07
1000.88	3.54539e-07
1009.56	2.12927e-07
1018.24	1.9991e-07
1026.92	2.59688e-07
1035.6	3.16155e-07
1044.27	3.43849e-07
1052.95	1.42135e-07
1061.63	-4.73626e-08
1070.31	-7.38606e-08
1078.99	-6.50485e-08
1087.66	-3.18094e-08
1096.34	-1.61653e-08
1105.02	-6.43146e-08
1113.7	-8.56439e-08
1122.38	-6.07776e-08
1131.06	-3.4306e-09
1139.73	-2.78768e-08
1148.41	-3.95283e-08
1157.09	8.60196e-09
1165.77	-3.97338e-08
1174.45	-5.69341e-10
1183.12	1.51912e-08
1191.8	4.10289e-08
1200.48	-1.9846e-08
1209.16	2.32284e-09
1217.84	2.85953e-08
1226.52	1.55732e-08
1235.19	1.69412e-07
1243.87	4.66129e-06
1252.55	7.11238e-05
1261.23	0.000217612
1269.91	8.34083e-05
1278.58	0.000197108
1287.26	1.65068e-05
1295.94	1.45273e-07
1304.62	-5.1569e-08
1313.3	-1.34386e-08
1321.98	-4.1339e-08
1330.65	-3.29135e-08
1339.33	-2.20533e-08
1348.01	-7.16114e-08
1356.69	-4.58801e-08
1365.37	-1.09368e-07
1374.04	-1.97569e-08
1382.72	4.53444e-08
1391.4	1.07858e-07
1400.08	1.69034e-07
1408.76	3.45631e-07
1417.44	5.99754e-07
1426.11	1.11371e-06
1434.79	1.25495e-06
1443.47	2.87378e-06
1452.15	5.30466e-06
1460.83	7.36229e-06
1469.5	7.58412e-06
1478.18	5.16798e-06
1486.86	1.83049e-07
1495.54	5.33289e-08
1504.22	-1.52894e-08
1512.9	-4.60848e-08
1521.57	-1.39559e-07
1530.25	3.39203e-08
1538.93	2.62514e-07
1547.61	4.32864e-07
1556.29	4.69823e-07
1564.96	1.37058e-07
1573.64	7.24227e-09
1582.32	1.01063e-08
1591	3.7953e-09
1599.68	4.53253e-08
1608.36	7.78505e-08
1617.03	-7.85308e-08
1625.71	3.34902e-08
1634.39	-4.53899e-08
1643.07	-1.65782e-08
1651.75	-1.05989e-07
1660.42	-7.27683e-09
1669.1	-7.23654e-08
1677.78	-3.98266e-09
1686.46	-6.50349e-08
1695.14	-4.39466e-08
1703.82	-1.10039e-08
1712.49	1.28902e-08
1721.17	3.97984e-08
1729.85	4.52671e-08
1738.53	1.83972e-08
1747.21	1.94913e-08
1755.88	-4.50379e-09
1764.56	3.18149e-08
1773.24	-8.89481e-10
1781.92	5.42693e-08
1790.6	3.48562e-08
1799.28	6.77852e-08
1807.95	5.76635e-08
1816.63	5.18409e-11
1825.31	-1.48502e-08
1833.99	-4.6293e-09
1842.67	2.26736e-09
1851.34	-1.12622e-08
1860.02	-2.09919e-08
1868.7	-2.02853e-08
1877.38	-2.12129e-08
1886.06	-1.40061e-10
1894.74	-2.29937e-08
1903.41	-1.32294e-08
1912.09	-6.58289e-09
1920.77	5.48968e-09
1929.45	-7.48783e-09
1938.13	-6.94896e-08
1946.8	-1.4379e-08
1955.48	-2.91191e-08
1964.16	7.16123e-08
1972.84	2.09346e-07
1981.52	1.95237e-07
1990.2	3.25951e-07
1998.87	4.82675e-08
2007.55	7.04718e-08
2016.23	3.71354e-08
2024.91	5.79809e-08
2033.59	9.65096e-08
2042.26	2.39483e-07
2050.94	7.62575e-07
2059.62	5.58745e-07
2068.3	7.09415e-07
2076.98	4.02277e-08
2085.66	-1.76232e-08
2094.33	5.85893e-09
2103.01	-5.62838e-08
2111.69	-1.03163e-08
2120.37	3.08544e-08
2129.05	1.44249e-07
2137.72	2.16938e-07
2146.4	1.91513e-07
2155.08	3.63132e-07
2163.76	3.37519e-07
2172.44	4.58883e-07
2181.12	5.80698e-07
2189.79	3.48361e-07
2198.47	1.90926e-07
2207.15	-1.98751e-08
2215.83	-1.659e-08
2224.51	-3.512e-08
2233.18	4.35027e-08
2241.86	3.04352e-08
2250.54	8.65171e-08
2259.22	1.14155e-07
2267.9	1.72723e-07
2276.58	4.02457e-07
2285.25	7.91866e-07
2293.93	1.28333e-06
2302.61	1.8191e-06
2311.29	1.85502e-06
2319.97	3.90821e-06
2328.64	2.34388e-06
2337.32	2.30675e-06
2346	1.46662e-06
2354.68	1.30407e-06
2363.36	1.35319e-06
2372.04	6.75748e-07
2380.71	2.27371e-07
2389.39	2.51228e-07
2398.07	2.91505e-07
2406.75	3.6253e-07
2415.43	9.76246e-07
2424.1	3.02317e-07
2432.78	3.13048e-07
2441.46	2.09869e-07
2450.14	1.73748e-07
2458.82	3.70099e-08
2467.5	-2.84488e-09
2476.17	-3.54519e-09
2484.85	1.05565e-08
2493.53	7.33149e-08
2502.21	-2.60369e-08
2510.89	-1.26431e-07
2519.56	-1.97468e-07
2528.24	-2.24305e-07
2536.92	5.1669e-08
2545.6	-2.77103e-07
2554.28	-4.58849e-07
2562.96	-2.84858e-07
2571.63	-1.36192e-07
2580.31	-5.04458e-08
2588.99	-4.26396e-08
2597.67	5.46212e-08
2606.35	-2.26354e-08
2615.02	-1.24646e-08
2623.7	8.69582e-08
2632.38	-8.59468e-10
2641.06	2.38741e-09
2649.74	-1.76259e-08
2658.42	2.84498e-08
2667.09	-1.88483e-08
2675.77	1.72577e-07
2684.45	1.10025e-06
2693.13	2.52398e-06
2701.81	1.16604e-06
2710.48	2.06262e-06
2719.16	9.88406e-08
2727.84	1.32276e-08
2736.52	1.26055e-09
2745.2	1.92785e-08
2753.88	5.93169e-08
2762.55	-4.62021e-09
2771.23	6.99743e-08
2779.91	1.87346e-08
2788.59	2.33721e-08
2797.27	1.00635e-08
2805.94	1.05372e-07
2814.62	2.71172e-07
2823.3	3.83087e-07
2831.98	5.69928e-07
2840.66	8.74674e-07
2849.34	9.46403e-07
2858.01	1.03906e-06
2866.69	1.11922e-06
2875.37	6.62992e-07
2884.05	4.55796e-07
2892.73	2.23812e-07
2901.4	1.16718e-07
2910.08	5.13243e-08
2918.76	1.61356e-07
2927.44	2.22248e-07
2936.12	5.32434e-07
2944.8	1.16267e-06
2953.47	2.70713e-06
2962.15	5.28885e-06
2970.83	9.18577e-06
2979.51	1.44287e-05
2988.19	2.29816e-05
2996.86	1.19969e-05
3005.54	2.54523e-05
3014.22	1.80875e-05
3022.9	1.23137e-05
3031.58	7.7749e-06
3040.26	3.95979e-06
3048.93	1.80914e-06
3057.61	6.81786e-07
3066.29	2.40828e-07
3074.97	1.55626e-07
3083.65	-1.01117e-08
3092.32	-2.78304e-08
3101	-8.11811e-09
3109.68	-8.30728e-08
3118.36	-6.42737e-09
3127.04	3.1391e-08
3135.72	-7.27165e-08
3144.39	1.17779e-08
3153.07	-3.90717e-09
3161.75	-2.77194e-08
3170.43	-1.07402e-08
3179.11	1.81534e-09
3187.78	2.67035e-08
3196.46	-1.25519e-08
3205.14	-6.88484e-09
3213.82	4.82539e-08
3222.5	-2.89136e-08
3231.18	-3.33801e-08
3239.85	-6.41236e-08
3248.53	2.80678e-08
3257.21	5.25221e-08
3265.89	5.52561e-08
3274.57	6.26711e-08
3283.24	1.12188e-07
3291.92	2.99541e-08
3300.6	-1.2078e-09
3309.28	4.22049e-08
3317.96	4.44068e-08
3326.64	-3.47425e-10
3335.31	8.18996e-09
3343.99	-7.08311e-09
3352.67	-5.40492e-08
3361.35	-6.22255e-08
3370.03	1.27729e-08
3378.7	-1.38197e-08
3387.38	2.53075e-08
3396.06	9.10236e-08
3404.74	-2.01361e-08
3413.42	1.66073e-08
3422.1	-1.16378e-08
3430.77	7.17497e-09
3439.45	1.60707e-09
3448.13	-2.66844e-09
3456.81	-2.14494e-08
3465.49	5.65521e-09
3474.16	-4.61957e-08
3482.84	5.29387e-08
3491.52	-9.56138e-08
3500.2	-7.91893e-08
3508.88	-6.74651e-08
3517.56	-1.50063e-07
3526.23	-6.96742e-08
3534.91	1.02772e-10
3543.59	7.57587e-08
3552.27	1.0558e-07
3560.95	1.41881e-07
3569.62	3.52627e-08
3578.3	1.96241e-08
3586.98	-1.87073e-08
3595.66	2.33521e-08
3604.34	8.61651e-09
3613.02	-2.90136e-08
3621.69	-4.341e-09
3630.37	-3.77147e-08
3639.05	-5.0443e-08
3647.73	-7.44909e-08
3656.41	-6.09267e-08
3665.08	1.8519e-08
3673.76	5.40392e-08
3682.44	1.99448e-07
3691.12	2.24429e-07
3699.8	4.00343e-07
3708.48	3.96929e-07
3717.15	6.2441e-07
3725.83	5.26511e-07
3734.51	4.60246e-07
3743.19	5.86924e-07
3751.87	7.07934e-07
3760.54	6.66021e-07
3769.22	7.24251e-07
3777.9	2.79115e-07
3786.58	3.41808e-07
3795.26	1.6439e-07
3803.94	1.82898e-08
3812.61	6.42309e-08
3821.29	-4.72817e-08
3829.97	5.58118e-08
3838.65	-4.06206e-08
3847.33	2.78331e-08
3856	1.55314e-08
3864.68	1.80388e-08
3873.36	2.25554e-10
3882.04	1.53222e-08
3890.72	4.47787e-08
3899.4	4.83458e-08
3908.07	1.42248e-07
3916.75	1.71938e-07
3925.43	2.20087e-07
3934.11	5.02344e-07
3942.79	5.31698e-07
3951.46	4.83462e-07
3960.14	6.01412e-07
3968.82	3.32678e-07
