Infrared Spectrum: Dichloromethane
Formula: C H2 Cl2
CAS: 75-09-2
State: gas
Melting point: -95.1 C
Boiling point: 40 C
Class: IUPAC A
Instrument: IFS66V (Bruker)
Instrument parameters: KBr Beam Splitter; MCT Detector; Multipass cell
Sampling: 1 L/min Flow
Resolution: 0.9640
Temperature: 23 C
Pressure: 101.3 Pa
Origin: NIST, Analytical Chemistry Division, 301-975-3108
cm-1	(micromol/mol)-1m-1 (base 10)
575.17	5.94489e-07
583.848	8.24071e-08
592.526	5.22766e-07
601.205	2.76221e-08
609.883	-1.62528e-07
618.561	3.19115e-07
627.239	2.87344e-07
635.917	4.66893e-07
644.595	5.10331e-07
653.274	1.11991e-06
661.952	2.72546e-06
670.63	6.10899e-06
679.308	1.02652e-05
687.986	1.77631e-05
696.665	2.63922e-05
705.343	3.77561e-05
714.021	3.11006e-05
722.699	7.2639e-05
731.377	7.85357e-05
740.055	0.000292444
748.734	0.000817631
757.412	0.000619131
766.09	0.000672516
774.768	0.000109971
783.446	4.35069e-06
792.125	1.28063e-06
800.803	6.40732e-07
809.481	3.59417e-07
818.159	4.7045e-07
826.837	3.09921e-07
835.515	-2.2418e-08
844.194	1.90942e-07
852.872	2.2953e-07
861.55	5.003e-07
870.228	7.68942e-07
878.906	1.73034e-06
887.584	2.79798e-06
896.263	5.99681e-06
904.941	3.00289e-06
913.619	3.28855e-06
922.297	3.04043e-06
930.975	1.89927e-06
939.654	1.17699e-06
948.332	5.80921e-07
957.01	3.11644e-07
965.688	2.23887e-07
974.366	3.38187e-07
983.044	4.06953e-07
991.723	2.72053e-07
1000.4	3.13465e-07
1009.08	2.68564e-07
1017.76	2.87456e-07
1026.44	3.06706e-07
1035.11	2.91693e-07
1043.79	4.25318e-07
1052.47	2.61102e-07
1061.15	9.08289e-08
1069.83	-5.69677e-08
1078.5	-6.47366e-08
1087.18	-6.7847e-08
1095.86	6.54978e-08
1104.54	-3.24324e-08
1113.22	-1.26092e-08
1121.9	-1.10394e-08
1130.57	4.98091e-08
1139.25	5.56699e-09
1147.93	-7.77068e-09
1156.61	6.35006e-09
1165.29	2.88236e-08
1173.96	2.63889e-08
1182.64	8.09437e-08
1191.32	1.21663e-07
1200	7.04582e-09
1208.68	6.00391e-08
1217.36	1.68461e-07
1226.03	1.95942e-07
1234.71	5.07629e-07
1243.39	4.52958e-06
1252.07	6.32392e-05
1260.75	0.000215119
1269.42	5.50626e-05
1278.1	0.000207659
1286.78	2.09539e-05
1295.46	7.17096e-07
1304.14	2.21709e-07
1312.82	1.57561e-07
1321.49	8.49618e-08
1330.17	5.09542e-08
1338.85	8.45371e-09
1347.53	5.98417e-08
1356.21	-1.71539e-08
1364.88	-8.7121e-08
1373.56	5.73615e-08
1382.24	4.23459e-08
1390.92	1.77983e-07
1399.6	1.62288e-07
1408.28	3.84747e-07
1416.95	5.51516e-07
1425.63	1.12886e-06
1434.31	1.23014e-06
1442.99	2.77892e-06
1451.67	5.08283e-06
1460.34	7.4461e-06
1469.02	7.89446e-06
1477.7	5.50566e-06
1486.38	2.55598e-07
1495.06	1.05406e-07
1503.74	4.77619e-08
1512.41	-4.36755e-08
1521.09	-1.80223e-07
1529.77	7.90902e-08
1538.45	2.94572e-07
1547.13	3.71189e-07
1555.8	4.61358e-07
1564.48	1.25662e-07
1573.16	2.5443e-08
1581.84	2.39223e-08
1590.52	3.28371e-08
1599.2	8.66317e-08
1607.87	9.2125e-08
1616.55	-1.68749e-07
1625.23	3.99011e-08
1633.91	-2.62024e-09
1642.59	3.06225e-08
1651.26	-4.52162e-08
1659.94	2.03107e-08
1668.62	-2.61624e-08
1677.3	3.25688e-09
1685.98	-4.52871e-08
1694.66	-2.36649e-09
1703.33	-1.52158e-08
1712.01	1.04264e-08
1720.69	6.45465e-08
1729.37	6.211e-08
1738.05	1.94513e-08
1746.72	2.77313e-08
1755.4	1.12513e-08
1764.08	1.49056e-08
1772.76	-5.42429e-08
1781.44	3.83268e-08
1790.12	6.26766e-08
1798.79	8.35767e-08
1807.47	3.14101e-08
1816.15	2.22452e-08
1824.83	-5.53688e-08
1833.51	-1.12422e-08
1842.18	4.90506e-08
1850.86	8.20542e-09
1859.54	-3.12819e-08
1868.22	6.44283e-09
1876.9	-4.05978e-08
1885.58	-4.23913e-08
1894.25	-4.98491e-08
1902.93	-4.77391e-09
1911.61	-3.6607e-09
1920.29	1.56532e-08
1928.97	-2.46854e-08
1937.64	-7.54768e-08
1946.32	-7.77614e-10
1955	-6.19363e-08
1963.68	6.58043e-08
1972.36	1.92435e-07
1981.04	2.25348e-07
1989.71	3.34163e-07
1998.39	7.47537e-08
2007.07	8.2669e-08
2015.75	8.26426e-08
2024.43	4.07615e-08
2033.1	1.62668e-07
2041.78	2.21796e-07
2050.46	7.56198e-07
2059.14	6.47549e-07
2067.82	7.28699e-07
2076.5	6.18317e-08
2085.17	2.898e-08
2093.85	2.30729e-08
2102.53	-2.20797e-08
2111.21	-2.63543e-08
2119.89	-2.99495e-08
2128.56	1.55564e-07
2137.24	2.34405e-07
2145.92	1.87413e-07
2154.6	3.0664e-07
2163.28	3.52974e-07
2171.96	4.55721e-07
2180.63	6.53152e-07
2189.31	4.27071e-07
2197.99	2.25522e-07
2206.67	-3.99894e-08
2215.35	-4.43113e-08
2224.02	-1.7685e-08
2232.7	5.71751e-08
2241.38	1.23982e-08
2250.06	1.22938e-07
2258.74	1.19924e-07
2267.42	1.91932e-07
2276.09	3.91369e-07
2284.77	7.94271e-07
2293.45	1.29103e-06
2302.13	1.66911e-06
2310.81	2.03367e-06
2319.48	4.90875e-06
2328.16	2.36822e-06
2336.84	1.6931e-06
2345.52	1.55586e-06
2354.2	1.46924e-06
2362.88	1.68935e-06
2371.55	7.68956e-07
2380.23	2.33844e-07
2388.91	2.13454e-07
2397.59	2.44448e-07
2406.27	3.32903e-07
2414.94	8.5046e-07
2423.62	2.80058e-07
2432.3	2.75963e-07
2440.98	2.06147e-07
2449.66	1.77552e-07
2458.34	2.25172e-08
2467.01	1.28193e-08
2475.69	3.25206e-08
2484.37	4.48833e-09
2493.05	7.98014e-08
2501.73	-3.70344e-09
2510.4	-1.31064e-07
2519.08	-1.96733e-07
2527.76	-2.61234e-07
2536.44	-1.64878e-07
2545.12	-2.88208e-07
2553.8	-4.63002e-07
2562.47	-3.45034e-07
2571.15	-1.60981e-07
2579.83	-3.02305e-08
2588.51	-3.47134e-08
2597.19	7.18524e-08
2605.86	-2.14267e-08
2614.54	-4.95454e-08
2623.22	9.87124e-08
2631.9	1.26228e-08
2640.58	-5.17536e-08
2649.26	-2.32275e-08
2657.93	3.97938e-08
2666.61	-5.16518e-08
2675.29	1.35533e-07
2683.97	9.5604e-07
2692.65	2.44221e-06
2701.32	8.59448e-07
2710	2.1991e-06
2718.68	1.06168e-07
2727.36	2.91492e-09
2736.04	2.28737e-09
2744.72	7.72121e-08
2753.39	7.04618e-08
2762.07	2.28891e-08
2770.75	3.18904e-08
2779.43	2.84825e-08
2788.11	-1.18234e-09
2796.78	-5.33234e-09
2805.46	9.1813e-08
2814.14	3.1589e-07
2822.82	3.99198e-07
2831.5	6.1632e-07
2840.18	8.75524e-07
2848.85	9.80592e-07
2857.53	1.00244e-06
2866.21	1.05816e-06
2874.89	7.16448e-07
2883.57	4.92379e-07
2892.24	1.63523e-07
2900.92	1.29848e-07
2909.6	1.00626e-08
2918.28	2.30967e-07
2926.96	1.63389e-07
2935.63	5.76754e-07
2944.31	1.04611e-06
2952.99	2.58758e-06
2961.67	5.31953e-06
2970.35	7.61548e-06
2979.03	1.41442e-05
2987.7	2.09275e-05
2996.38	1.23439e-05
3005.06	2.47003e-05
3013.74	1.92361e-05
3022.42	1.21536e-05
3031.09	7.56138e-06
3039.77	4.08033e-06
3048.45	1.93871e-06
3057.13	7.66586e-07
3065.81	3.03079e-07
3074.49	1.49484e-07
3083.16	-4.38556e-09
3091.84	1.02681e-09
3100.52	1.89228e-08
3109.2	-8.80514e-08
3117.88	1.16551e-08
3126.55	8.88499e-08
3135.23	-5.89277e-08
3143.91	8.62997e-08
3152.59	-7.87891e-09
3161.27	-9.1331e-09
3169.95	-4.8524e-08
3178.62	2.95748e-08
3187.3	-5.74616e-09
3195.98	-3.42268e-08
3204.66	3.30827e-08
3213.34	7.77678e-08
3222.01	-4.21894e-08
3230.69	-9.75555e-08
3239.37	-8.69e-08
3248.05	1.03931e-07
3256.73	1.91357e-08
3265.41	7.5836e-08
3274.08	-1.94176e-09
3282.76	1.30158e-07
3291.44	4.6615e-08
3300.12	-3.74246e-08
3308.8	2.28146e-08
3317.47	1.75695e-08
3326.15	-5.89631e-08
3334.83	9.25952e-08
3343.51	-1.47792e-09
3352.19	-8.01352e-08
3360.87	-2.34212e-08
3369.54	-1.18216e-08
3378.22	-4.82785e-08
3386.9	-2.38432e-08
3395.58	6.1205e-08
3404.26	8.11529e-08
3412.93	1.90229e-08
3421.61	-5.41692e-09
3430.29	1.85018e-08
3438.97	-5.60155e-08
3447.65	8.99395e-09
3456.33	-3.63669e-08
3465	-2.77031e-09
3473.68	5.15408e-08
3482.36	1.37719e-07
3491.04	-7.28665e-08
3499.72	-7.29802e-08
3508.39	-6.98534e-08
3517.07	-1.71548e-07
3525.75	-1.33788e-07
3534.43	1.80561e-08
3543.11	1.6953e-07
3551.79	1.8102e-07
3560.46	2.34155e-07
3569.14	3.29536e-08
3577.82	4.35136e-08
3586.5	5.1509e-08
3595.18	-6.22209e-08
3603.85	-3.40149e-10
3612.53	-1.04216e-07
3621.21	-4.67478e-08
3629.89	-1.03024e-07
3638.57	-2.24571e-08
3647.25	-5.7688e-08
3655.92	-2.06081e-08
3664.6	8.13539e-09
3673.28	5.01593e-08
3681.96	1.84646e-07
3690.64	1.7661e-07
3699.31	4.33526e-07
3707.99	4.16246e-07
3716.67	5.77843e-07
3725.35	5.43957e-07
3734.03	5.21018e-07
3742.71	5.9668e-07
3751.38	7.33744e-07
3760.06	6.75958e-07
3768.74	7.25748e-07
3777.42	2.5629e-07
3786.1	3.07919e-07
3794.77	1.54992e-07
3803.45	-4.04687e-08
3812.13	8.78504e-08
3820.81	-1.08796e-07
3829.49	1.08229e-07
3838.17	-7.02408e-08
3846.84	2.66626e-08
3855.52	3.55392e-08
3864.2	5.51642e-08
3872.88	-2.77085e-08
3881.56	7.52512e-09
3890.23	4.63885e-08
3898.91	-2.83088e-08
3907.59	1.80034e-07
3916.27	2.05554e-07
3924.95	1.67902e-07
3933.63	5.86209e-07
3942.3	5.60361e-07
3950.98	5.00029e-07
3959.66	5.8235e-07
3968.34	3.8239e-07
