Infrared Spectrum: Dichloromethane
Formula: C H2 Cl2
CAS: 75-09-2
State: gas
Melting point: -95.1 C
Boiling point: 40 C
Class: IUPAC A
Instrument: IFS66V (Bruker)
Instrument parameters: KBr Beam Splitter; MCT Detector; Multipass cell
Sampling: 1 L/min Flow
Resolution: 0.2410
Temperature: 23 C
Pressure: 101.3 Pa
Origin: NIST, Analytical Chemistry Division, 301-975-3108
cm-1	(micromol/mol)-1m-1 (base 10)
575.05	-8.51533e-07
583.608	1.82056e-06
592.165	-7.51028e-07
600.723	-3.94118e-07
609.281	-1.18939e-06
617.838	3.9885e-07
626.396	-5.63179e-07
634.954	1.32431e-06
643.511	3.88893e-07
652.069	1.32149e-06
660.626	1.5899e-06
669.184	5.01821e-06
677.742	1.00418e-05
686.299	1.5945e-05
694.857	2.41825e-05
703.415	3.35777e-05
711.972	3.0052e-05
720.53	6.27526e-05
729.088	6.44214e-05
737.645	0.000193519
746.203	0.000689564
754.761	0.000665367
763.318	0.00072385
771.876	0.000257431
780.434	8.51975e-06
788.991	-1.33635e-07
797.549	3.11005e-07
806.106	6.38293e-07
814.664	-4.48615e-08
823.222	1.50089e-07
831.779	3.4911e-07
840.337	-1.6044e-07
848.895	-1.67071e-07
857.452	1.82637e-07
866.01	5.48643e-07
874.568	9.35269e-07
883.125	1.69483e-06
891.683	2.70283e-06
900.241	3.24725e-06
908.798	3.35326e-06
917.356	3.0167e-06
925.914	2.33354e-06
934.471	1.57347e-06
943.029	7.68043e-07
951.586	4.5952e-07
960.144	9.56056e-09
968.702	1.76762e-07
977.259	1.48391e-07
985.817	4.90304e-07
994.375	3.43861e-07
1002.93	5.82699e-07
1011.49	2.61788e-08
1020.05	2.51698e-07
1028.61	2.38792e-07
1037.16	1.13721e-07
1045.72	4.60307e-07
1054.28	4.01603e-08
1062.84	-2.99445e-07
1071.39	-1.52364e-07
1079.95	-1.70508e-07
1088.51	3.22117e-07
1097.07	-2.14521e-07
1105.62	1.25292e-07
1114.18	-1.88268e-07
1122.74	-4.55557e-07
1131.3	-6.45147e-08
1139.85	-8.37722e-08
1148.41	-3.43272e-07
1156.97	-1.95205e-07
1165.53	-1.68046e-07
1174.09	9.55055e-09
1182.64	1.7768e-07
1191.2	2.31113e-07
1199.76	-1.34266e-07
1208.32	-2.6582e-07
1216.87	1.00319e-07
1225.43	-4.21521e-08
1233.99	7.1244e-08
1242.55	2.87795e-06
1251.1	4.83114e-05
1259.66	0.000212284
1268.22	0.000293756
1276.78	0.000241516
1285.33	3.40082e-05
1293.89	5.16379e-07
1302.45	-3.07151e-07
1311.01	2.95481e-07
1319.57	-1.54859e-07
1328.12	6.20554e-08
1336.68	-1.63454e-07
1345.24	3.01041e-09
1353.8	8.82847e-07
1362.35	-2.21215e-07
1370.91	-1.02107e-07
1379.47	-8.52601e-08
1388.03	-5.81801e-08
1396.58	-2.8618e-08
1405.14	3.51743e-07
1413.7	5.93852e-07
1422.26	1.27953e-06
1430.81	1.24878e-06
1439.37	2.13936e-06
1447.93	3.72288e-06
1456.49	6.50509e-06
1465.05	7.62061e-06
1473.6	7.71975e-06
1482.16	3.61922e-07
1490.72	1.33843e-07
1499.28	1.70489e-07
1507.83	2.22825e-08
1516.39	8.39496e-08
1524.95	7.16778e-08
1533.51	4.76209e-09
1542.06	1.41797e-07
1550.62	4.58617e-07
1559.18	5.03949e-07
1567.74	-1.00888e-07
1576.29	-1.12211e-07
1584.85	1.18837e-07
1593.41	1.4332e-07
1601.97	8.75011e-08
1610.53	4.90015e-08
1619.08	1.95109e-07
1627.64	-2.05863e-08
1636.2	-1.65475e-07
1644.76	-1.95082e-07
1653.31	-4.93366e-07
1661.87	1.83999e-08
1670.43	-6.73596e-08
1678.99	-7.15278e-08
1687.54	-1.12046e-07
1696.1	-1.69985e-07
1704.66	-2.4538e-09
1713.22	1.14457e-07
1721.77	9.75037e-08
1730.33	8.09755e-08
1738.89	6.71504e-08
1747.45	-1.13046e-07
1756.01	-1.52604e-07
1764.56	1.45718e-08
1773.12	-1.08048e-07
1781.68	9.67852e-08
1790.24	1.81642e-07
1798.79	1.35057e-07
1807.35	-7.80406e-08
1815.91	-1.09109e-07
1824.47	-8.94929e-08
1833.02	4.0797e-08
1841.58	-8.99413e-08
1850.14	9.7531e-08
1858.7	-4.01222e-08
1867.25	-1.87708e-07
1875.81	2.53648e-08
1884.37	-1.11684e-07
1892.93	1.47426e-07
1901.49	5.30105e-08
1910.04	-1.71312e-08
1918.6	3.31664e-08
1927.16	-3.29708e-08
1935.72	-1.56721e-07
1944.27	-1.86962e-07
1952.83	-1.6131e-07
1961.39	-4.91125e-11
1969.95	1.00298e-07
1978.5	2.21286e-07
1987.06	4.19853e-07
1995.62	-1.8423e-07
2004.18	8.95902e-08
2012.73	1.66978e-07
2021.29	1.10853e-07
2029.85	-1.80034e-08
2038.41	1.25692e-07
2046.97	5.63782e-07
2055.52	6.29055e-07
2064.08	7.72084e-07
2072.64	2.96064e-07
2081.2	3.70508e-08
2089.75	2.26045e-08
2098.31	1.58043e-07
2106.87	7.28893e-08
2115.43	5.89395e-08
2123.98	-7.64581e-08
2132.54	2.59508e-07
2141.1	2.21137e-07
2149.66	2.41842e-07
2158.21	-3.48489e-08
2166.77	5.34226e-07
2175.33	4.43096e-07
2183.89	3.86208e-07
2192.45	2.8735e-07
2201	6.91094e-08
2209.56	1.41759e-07
2218.12	-5.50532e-08
2226.68	6.51559e-08
2235.23	5.09997e-08
2243.79	1.67311e-07
2252.35	6.77033e-08
2260.91	1.75583e-07
2269.46	3.55049e-07
2278.02	4.55542e-07
2286.58	9.79322e-07
2295.14	1.23642e-06
2303.69	1.75627e-06
2312.25	1.71154e-06
2320.81	2.66456e-06
2329.37	1.61342e-06
2337.93	2.0916e-06
2346.48	8.71037e-07
2355.04	9.80739e-07
2363.6	8.46713e-07
2372.16	3.45226e-07
2380.71	5.0453e-07
2389.27	2.22804e-07
2397.83	1.32425e-07
2406.39	2.88582e-07
2414.94	8.34679e-07
2423.5	2.08257e-07
2432.06	1.60691e-07
2440.62	4.70588e-07
2449.17	7.64199e-08
2457.73	1.33208e-07
2466.29	1.44938e-07
2474.85	-1.51581e-07
2483.41	1.09021e-08
2491.96	3.5813e-08
2500.52	2.67272e-08
2509.08	-4.3108e-08
2517.64	-3.13343e-07
2526.19	-2.58908e-07
2534.75	-3.2215e-07
2543.31	-1.97905e-07
2551.87	-7.00152e-07
2560.42	-5.29489e-07
2568.98	-1.38114e-07
2577.54	4.04096e-08
2586.1	8.65534e-08
2594.65	1.68365e-07
2603.21	7.66509e-08
2611.77	2.67163e-08
2620.33	8.7131e-08
2628.89	6.13005e-08
2637.44	-3.63778e-08
2646	1.48933e-07
2654.56	-6.20545e-09
2663.12	-1.4384e-07
2671.67	4.59684e-07
2680.23	3.21952e-07
2688.79	1.96227e-06
2697.35	1.72127e-06
2705.9	2.92996e-06
2714.46	6.71786e-07
2723.02	8.88117e-08
2731.58	-1.92496e-07
2740.13	5.74407e-08
2748.69	-3.37603e-09
2757.25	1.77151e-07
2765.81	7.6941e-08
2774.37	-1.21008e-08
2782.92	-1.59079e-07
2791.48	8.49546e-08
2800.04	2.58207e-07
2808.6	3.23705e-07
2817.15	2.04942e-07
2825.71	3.34741e-07
2834.27	1.08266e-06
2842.83	1.24752e-06
2851.38	8.41075e-07
2859.94	1.3448e-06
2868.5	8.03853e-07
2877.06	6.13436e-07
2885.61	1.20491e-07
2894.17	6.86838e-08
2902.73	-7.33322e-08
2911.29	3.25827e-07
2919.85	3.02721e-07
2928.4	1.14066e-07
2936.96	4.74274e-07
2945.52	1.37989e-06
2954.08	2.99017e-06
2962.63	4.84869e-06
2971.19	1.26694e-05
2979.75	1.4181e-05
2988.31	2.68027e-05
2996.86	1.13647e-05
3005.42	3.13639e-05
3013.98	2.06105e-05
3022.54	1.21132e-05
3031.09	6.7607e-06
3039.65	4.02702e-06
3048.21	1.93703e-06
3056.77	7.22621e-07
3065.33	4.76903e-07
3073.88	3.0433e-07
3082.44	3.35984e-08
3091	-3.52114e-07
3099.56	-2.82317e-07
3108.11	-7.86099e-08
3116.67	2.17081e-07
3125.23	2.38964e-07
3133.79	1.46797e-07
3142.34	2.21918e-07
3150.9	2.26803e-07
3159.46	-5.61774e-08
3168.02	-2.25966e-07
3176.57	1.67655e-08
3185.13	-6.58216e-08
3193.69	1.80039e-07
3202.25	3.22123e-08
3210.81	-3.9802e-08
3219.36	1.43677e-07
3227.92	-1.7632e-07
3236.48	-2.02175e-07
3245.04	2.52929e-09
3253.59	1.71302e-07
3262.15	-1.43238e-07
3270.71	-4.9037e-08
3279.27	-2.24126e-08
3287.82	2.60888e-07
3296.38	4.82803e-08
3304.94	-2.16457e-07
3313.5	-2.5914e-07
3322.05	6.66047e-08
3330.61	1.84214e-07
3339.17	-1.5291e-07
3347.73	-1.32741e-07
3356.29	-1.17232e-07
3364.84	-1.61976e-07
3373.4	-3.69076e-07
3381.96	8.58931e-08
3390.52	-1.22281e-07
3399.07	-2.00876e-07
3407.63	4.29237e-07
3416.19	5.31533e-08
3424.75	-2.09626e-07
3433.3	2.00609e-07
3441.86	-7.60734e-08
3450.42	-9.79175e-08
3458.98	3.30782e-08
3467.53	-3.05412e-07
3476.09	-9.60894e-08
3484.65	-2.20576e-07
3493.21	5.0604e-09
3501.77	-5.4373e-08
3510.32	3.77557e-08
3518.88	-5.98833e-07
3527.44	8.4588e-08
3536	-2.7784e-07
3544.55	3.41456e-07
3553.11	3.54444e-07
3561.67	3.04269e-07
3570.23	1.0077e-07
3578.78	9.56602e-08
3587.34	-1.72507e-07
3595.9	5.13835e-08
3604.46	-1.61331e-07
3613.01	-8.89836e-08
3621.57	-7.41862e-08
3630.13	-3.2215e-07
3638.69	-2.83676e-07
3647.25	-1.02963e-07
3655.8	2.52513e-07
3664.36	1.96885e-07
3672.92	1.66591e-08
3681.48	2.99302e-07
3690.03	3.409e-07
3698.59	5.56229e-07
3707.15	7.42208e-07
3715.71	8.50902e-07
3724.26	8.50454e-07
3732.82	6.36107e-07
3741.38	2.75489e-07
3749.94	4.91343e-07
3758.49	9.4968e-07
3767.05	6.61846e-07
3775.61	2.39843e-07
3784.17	2.69739e-07
3792.73	-1.17988e-08
3801.28	-9.24397e-08
3809.84	3.28087e-07
3818.4	-3.20617e-07
3826.96	-2.04672e-08
3835.51	-3.88361e-08
3844.07	1.48289e-07
3852.63	-1.28537e-07
3861.19	-1.67782e-07
3869.74	-4.98419e-08
3878.3	-4.40234e-07
3886.86	-1.23286e-07
3895.42	4.90303e-07
3903.97	-4.58683e-08
3912.53	4.95126e-08
3921.09	2.45988e-07
3929.65	4.03838e-07
3938.21	5.37595e-07
3946.76	4.53017e-07
3955.32	5.31818e-07
3963.88	4.30384e-07
3972.44	2.39628e-07
