Infrared Spectrum: Nitrile-Acetic Acid
Formula: C H3 C N
CAS: 75-05-8
State: gas
Melting point: -45.72 C
Boiling point: 81.6 C
Class: IUPAC A
Instrument: IFS66V (Bruker)
Instrument parameters: KBr Beam splitter; MCT Detector; Multipass cell
Sampling: 1 L/min Flow
Resolution: 1.9290
Temperature: 23 C
Pressure: 101.3 kPa
Origin: NIST, Anayltical Chemistry Division, 301-975-3108
cm-1	(micromol/mol)-1m-1 (base 10)
574.687	-1.37146e-07
583.365	-4.05959e-07
592.043	-2.65359e-07
600.721	-1.69597e-07
609.4	-8.13105e-08
618.078	-4.66377e-08
626.756	-5.0709e-08
635.434	-1.04992e-07
644.112	-4.15132e-08
652.79	6.70144e-08
661.469	2.55554e-08
670.147	2.68316e-07
678.825	4.94987e-07
687.503	1.8671e-06
696.181	5.4651e-06
704.859	6.45376e-06
713.537	3.96202e-06
722.216	4.84065e-06
730.894	5.11078e-06
739.572	2.44523e-06
748.25	6.88426e-07
756.928	9.3233e-08
765.606	-8.99158e-08
774.285	-9.66289e-08
782.963	-1.04903e-07
791.641	-1.20272e-07
800.319	-1.0359e-07
808.997	-1.60546e-07
817.675	-1.07226e-07
826.353	-1.17953e-07
835.032	-1.18826e-07
843.71	-6.10097e-08
852.388	-8.67641e-08
861.066	-9.76522e-08
869.744	-7.95536e-08
878.422	1.40977e-07
887.101	7.56515e-07
895.779	2.36993e-06
904.457	4.68045e-06
913.135	4.20332e-06
921.813	1.37436e-06
930.491	4.20919e-06
939.169	3.05448e-06
947.848	7.20026e-07
956.526	4.55849e-08
965.204	9.39068e-08
973.882	2.42536e-07
982.56	5.89705e-07
991.238	1.18983e-06
999.917	2.50977e-06
1008.59	2.45467e-06
1017.27	3.15251e-06
1025.95	1.1841e-05
1034.63	4.27398e-06
1043.31	8.01363e-06
1051.99	5.26564e-06
1060.66	4.4321e-06
1069.34	4.65118e-06
1078.02	3.29341e-06
1086.7	2.23882e-06
1095.38	1.98337e-06
1104.05	9.76921e-07
1112.73	7.44005e-07
1121.41	2.83477e-07
1130.09	1.40509e-07
1138.77	2.021e-08
1147.45	1.27192e-09
1156.12	-2.46454e-08
1164.8	-2.0887e-08
1173.48	-3.56929e-08
1182.16	-4.20727e-08
1190.84	-3.29654e-08
1199.51	-1.74143e-08
1208.19	-1.05273e-09
1216.87	5.18563e-08
1225.55	3.18502e-08
1234.23	3.69431e-08
1242.9	8.78211e-08
1251.58	1.07027e-07
1260.26	1.69697e-07
1268.94	4.59568e-07
1277.62	6.00404e-07
1286.3	1.7009e-06
1294.97	1.9147e-06
1303.65	9.74969e-07
1312.33	1.48591e-06
1321.01	1.8539e-06
1329.69	3.19663e-06
1338.36	5.27622e-06
1347.04	3.39543e-06
1355.72	6.44188e-06
1364.4	1.21668e-05
1373.08	1.55796e-05
1381.76	1.34619e-05
1390.43	2.00285e-05
1399.11	2.42395e-05
1407.79	3.30809e-05
1416.47	2.17219e-05
1425.15	2.25968e-05
1433.82	2.42799e-05
1442.5	1.50599e-05
1451.18	1.96039e-05
1459.86	1.43243e-05
1468.54	1.76297e-05
1477.22	1.79873e-05
1485.89	1.55555e-05
1494.57	2.01766e-05
1503.25	1.24801e-05
1511.93	1.09383e-05
1520.61	1.17426e-05
1529.28	1.60073e-05
1537.96	1.07139e-05
1546.64	6.73497e-06
1555.32	9.19573e-06
1564	5.39963e-06
1572.67	3.41086e-06
1581.35	3.38321e-06
1590.03	2.29756e-06
1598.71	1.23864e-06
1607.39	8.09269e-07
1616.07	1.80312e-06
1624.74	7.83352e-07
1633.42	3.16928e-07
1642.1	2.14415e-07
1650.78	3.65046e-07
1659.46	1.32636e-07
1668.13	2.29816e-07
1676.81	1.13809e-07
1685.49	8.67141e-07
1694.17	1.76753e-07
1702.85	1.71063e-07
1711.53	9.91828e-08
1720.2	2.10309e-07
1728.88	2.26964e-07
1737.56	2.82036e-07
1746.24	3.18638e-07
1754.92	2.58522e-07
1763.59	3.05836e-07
1772.27	8.23031e-07
1780.95	3.83639e-07
1789.63	3.41756e-07
1798.31	3.55336e-07
1806.98	4.54746e-07
1815.66	5.41659e-07
1824.34	6.63046e-07
1833.02	4.57104e-07
1841.7	6.94287e-07
1850.38	5.89569e-07
1859.05	3.72751e-07
1867.73	3.60205e-07
1876.41	1.94723e-07
1885.09	2.24091e-07
1893.77	3.06139e-07
1902.44	3.83356e-07
1911.12	2.03394e-07
1919.8	1.93705e-07
1928.48	1.20429e-07
1937.16	7.12281e-08
1945.84	5.89684e-08
1954.51	3.96477e-08
1963.19	1.76613e-08
1971.87	2.1128e-08
1980.55	3.46094e-08
1989.23	1.83084e-08
1997.9	4.65089e-10
2006.58	2.37205e-08
2015.26	3.6824e-09
2023.94	3.22191e-08
2032.62	4.05607e-08
2041.3	7.32912e-08
2049.97	1.70657e-07
2058.65	3.7529e-07
2067.33	3.61823e-07
2076.01	3.57842e-07
2084.69	4.62534e-07
2093.36	3.65721e-07
2102.04	1.84099e-07
2110.72	5.14946e-08
2119.4	9.80945e-08
2128.08	2.87506e-08
2136.75	6.7097e-08
2145.43	3.35996e-08
2154.11	5.1599e-08
2162.79	5.72135e-08
2171.47	5.96962e-08
2180.15	7.19837e-08
2188.82	6.92986e-08
2197.5	1.27147e-07
2206.18	1.33646e-07
2214.86	2.00232e-07
2223.54	3.75979e-07
2232.21	9.35005e-07
2240.89	2.30548e-06
2249.57	4.06331e-06
2258.25	3.59301e-06
2266.93	5.25572e-06
2275.61	6.32391e-06
2284.28	5.79164e-06
2292.96	4.04494e-06
2301.64	2.20812e-06
2310.32	4.54087e-06
2319	4.31289e-06
2327.67	1.77266e-06
2336.35	9.0351e-07
2345.03	5.95716e-07
2353.71	5.41625e-07
2362.39	6.84697e-07
2371.06	7.2519e-07
2379.74	1.0269e-06
2388.42	9.86659e-07
2397.1	1.12659e-06
2405.78	1.46998e-06
2414.46	1.30804e-06
2423.13	1.49577e-06
2431.81	1.44111e-06
2440.49	1.02842e-06
2449.17	9.76251e-07
2457.85	1.00763e-06
2466.52	8.35317e-07
2475.2	1.02579e-06
2483.88	1.00401e-06
2492.56	1.16767e-06
2501.24	8.0571e-07
2509.92	7.31779e-07
2518.59	5.75115e-07
2527.27	5.38908e-07
2535.95	4.52863e-07
2544.63	4.3998e-07
2553.31	4.31434e-07
2561.98	3.22462e-07
2570.66	2.59109e-07
2579.34	2.63199e-07
2588.02	4.59125e-07
2596.7	7.65245e-07
2605.38	1.22857e-06
2614.05	1.95826e-06
2622.73	3.69033e-06
2631.41	1.32373e-06
2640.09	9.54155e-07
2648.77	3.98339e-07
2657.44	2.87157e-07
2666.12	3.58453e-07
2674.8	2.0736e-07
2683.48	1.89242e-07
2692.16	1.59716e-07
2700.83	7.0004e-08
2709.51	7.40009e-08
2718.19	2.32217e-07
2726.87	2.713e-07
2735.55	4.11716e-07
2744.23	4.49095e-07
2752.9	5.08565e-07
2761.58	5.23628e-07
2770.26	2.46349e-07
2778.94	2.21638e-07
2787.62	1.55285e-07
2796.29	3.08146e-07
2804.97	2.58342e-07
2813.65	1.78085e-07
2822.33	5.7651e-07
2831.01	5.32152e-07
2839.69	8.67148e-07
2848.36	1.72915e-06
2857.04	2.18442e-06
2865.72	2.20056e-06
2874.4	3.51281e-06
2883.08	4.00045e-06
2891.75	2.71558e-06
2900.43	2.93244e-06
2909.11	2.65479e-06
2917.79	2.19141e-06
2926.47	2.34878e-06
2935.14	5.93277e-06
2943.82	8.94754e-06
2952.5	5.24188e-06
2961.18	7.25628e-06
2969.86	9.71615e-06
2978.54	5.6167e-06
2987.21	3.40104e-06
2995.89	3.82419e-06
3004.57	6.57787e-06
3013.25	1.31752e-05
3021.93	7.13223e-06
3030.6	5.06867e-06
3039.28	4.24257e-06
3047.96	2.81484e-06
3056.64	2.2575e-06
3065.32	1.98008e-06
3074	1.8357e-06
3082.67	1.38426e-06
3091.35	1.15318e-06
3100.03	9.44652e-07
3108.71	6.51887e-07
3117.39	5.30419e-07
3126.06	4.17927e-07
3134.74	3.99174e-07
3143.42	6.13305e-07
3152.1	1.05069e-06
3160.78	1.95259e-06
3169.46	2.2741e-06
3178.13	2.62738e-06
3186.81	3.17401e-06
3195.49	3.18907e-06
3204.17	9.12559e-07
3212.85	5.81684e-07
3221.52	8.78123e-07
3230.2	9.19896e-07
3238.88	3.31717e-07
3247.56	2.2597e-07
3256.24	2.22068e-07
3264.91	1.89586e-07
3273.59	2.21608e-07
3282.27	1.7132e-07
3290.95	2.20042e-07
3299.63	2.36065e-07
3308.31	2.44406e-07
3316.98	3.20763e-07
3325.66	2.87338e-07
3334.34	3.02533e-07
3343.02	2.955e-07
3351.7	3.54966e-07
3360.37	3.81608e-07
3369.05	3.38314e-07
3377.73	3.77414e-07
3386.41	4.1655e-07
3395.09	3.19588e-07
3403.77	3.44865e-07
3412.44	3.66535e-07
3421.12	3.39798e-07
3429.8	3.07656e-07
3438.48	2.99093e-07
3447.16	3.32496e-07
3455.83	2.39448e-07
3464.51	2.43752e-07
3473.19	2.17549e-07
3481.87	2.10923e-07
3490.55	2.5176e-07
3499.22	2.57518e-07
3507.9	2.47898e-07
3516.58	2.73715e-07
3525.26	2.84321e-07
3533.94	3.27369e-07
3542.62	3.09997e-07
3551.29	3.26863e-07
3559.97	3.00449e-07
3568.65	4.45915e-07
3577.33	2.93173e-07
3586.01	4.66466e-07
3594.68	3.52188e-07
3603.36	3.52524e-07
3612.04	5.35106e-07
3620.72	5.36257e-07
3629.4	1.03146e-06
3638.08	5.10239e-07
3646.75	8.73807e-07
3655.43	8.06232e-07
3664.11	5.66718e-07
3672.79	5.77554e-07
3681.47	6.71481e-07
3690.14	6.69854e-07
3698.82	4.92366e-07
3707.5	4.78956e-07
3716.18	4.58684e-07
3724.86	5.23078e-07
3733.54	5.54955e-07
3742.21	5.48552e-07
3750.89	7.49362e-07
3759.57	6.39733e-07
3768.25	4.43476e-07
3776.93	4.07706e-07
3785.6	4.5235e-07
3794.28	4.37098e-07
3802.96	5.70608e-07
3811.64	4.31875e-07
3820.32	7.78403e-07
3828.99	4.89305e-07
3837.67	1.2616e-06
3846.35	4.74659e-07
3855.03	1.25507e-06
3863.71	6.80395e-07
3872.39	5.64909e-07
3881.06	7.39582e-07
3889.74	6.24903e-07
3898.42	7.40536e-07
3907.1	6.93782e-07
3915.78	8.31406e-07
3924.45	9.31899e-07
3933.13	8.97112e-07
3941.81	8.47969e-07
3950.49	9.09051e-07
3959.17	8.66883e-07
3967.85	1.22903e-06
