Infrared Spectrum: Dichloromethane
Formula: C H2 Cl2
CAS: 75-09-2
State: gas
Melting point: -95.1 C
Boiling point: 40 C
Class: IUPAC A
Instrument: IFS66V (Bruker)
Instrument parameters: KBr Beam Splitter; MCT Detector; Multipass cell
Sampling: 1 L/min Flow
Resolution: 0.4820
Temperature: 23 C
Pressure: 101.3 Pa
Origin: NIST, Analytical Chemistry Division, 301-975-3108
cm-1	(micromol/mol)-1m-1 (base 10)
575.17	5.26063e-07
583.848	-1.26582e-07
592.526	6.7841e-07
601.205	-1.81953e-08
609.883	-1.23069e-07
618.561	4.32388e-07
627.239	4.6238e-07
635.917	5.97108e-07
644.595	5.2516e-07
653.274	1.29827e-06
661.952	2.65199e-06
670.63	6.01561e-06
679.308	1.00903e-05
687.986	1.78012e-05
696.665	2.59467e-05
705.343	3.71663e-05
714.021	3.02823e-05
722.699	7.16442e-05
731.377	7.68269e-05
740.055	0.000291043
748.734	0.000825388
757.412	0.000622722
766.09	0.000678774
774.768	0.000107275
783.446	3.12378e-06
792.124	8.2735e-07
800.803	3.57541e-07
809.481	7.31285e-08
818.159	4.09465e-07
826.837	1.8279e-07
835.515	-9.19503e-08
844.194	2.11951e-07
852.872	3.19387e-07
861.55	4.19221e-07
870.228	7.38291e-07
878.906	1.65546e-06
887.584	2.97765e-06
896.263	5.96363e-06
904.941	3.07266e-06
913.619	3.15273e-06
922.297	3.04897e-06
930.975	1.85563e-06
939.654	1.19921e-06
948.332	5.92194e-07
957.01	2.59367e-07
965.688	2.31575e-07
974.366	3.40457e-07
983.044	3.86619e-07
991.723	2.71136e-07
1000.4	2.93261e-07
1009.08	2.65809e-07
1017.76	3.10612e-07
1026.44	2.83847e-07
1035.11	2.35999e-07
1043.79	4.48772e-07
1052.47	3.27252e-07
1061.15	1.19943e-07
1069.83	-8.25853e-08
1078.5	-9.61513e-08
1087.18	-1.30676e-07
1095.86	4.99692e-08
1104.54	-1.28393e-08
1113.22	1.54286e-08
1121.9	-3.44988e-08
1130.57	8.03207e-08
1139.25	-2.02634e-08
1147.93	-1.26546e-08
1156.61	-8.9612e-09
1165.29	3.50026e-08
1173.96	-1.69165e-08
1182.64	9.01887e-08
1191.32	1.00583e-07
1200	-5.46776e-08
1208.68	3.33783e-10
1217.36	9.11618e-08
1226.03	5.93988e-08
1234.71	3.35355e-07
1243.39	4.07224e-06
1252.07	6.27498e-05
1260.75	0.000217136
1269.42	4.56901e-05
1278.1	0.000209676
1286.78	2.00535e-05
1295.46	3.9266e-07
1304.14	7.09066e-08
1312.82	1.24367e-07
1321.49	3.65879e-08
1330.17	-4.87887e-08
1338.85	-6.89484e-08
1347.53	1.45101e-07
1356.21	-7.33867e-08
1364.88	-1.21202e-07
1373.56	2.50392e-08
1382.24	3.78202e-08
1390.92	2.4087e-07
1399.6	1.56123e-07
1408.28	4.1642e-07
1416.95	5.33732e-07
1425.63	1.1454e-06
1434.31	1.23545e-06
1442.99	2.75117e-06
1451.67	5.06635e-06
1460.34	7.51139e-06
1469.02	8.00349e-06
1477.7	5.56305e-06
1486.38	2.17299e-07
1495.06	9.2748e-08
1503.74	5.16199e-08
1512.41	-7.12867e-08
1521.09	-2.54599e-07
1529.77	1.18903e-07
1538.45	3.20381e-07
1547.13	3.6831e-07
1555.8	4.88178e-07
1564.48	6.87156e-08
1573.16	3.51291e-08
1581.84	3.13974e-08
1590.52	1.74895e-08
1599.2	1.22073e-07
1607.87	5.97362e-08
1616.55	-2.51373e-07
1625.23	4.37847e-08
1633.91	4.01785e-08
1642.59	3.3431e-08
1651.26	-5.3147e-08
1659.94	6.39863e-08
1668.62	2.36104e-09
1677.3	1.49666e-08
1685.98	-3.32519e-08
1694.66	-2.04854e-08
1703.33	-3.5742e-08
1712.01	2.27127e-08
1720.69	8.74884e-08
1729.37	5.81328e-08
1738.05	-8.47463e-09
1746.72	4.65623e-08
1755.4	-1.18961e-09
1764.08	2.10856e-08
1772.76	-9.07335e-08
1781.44	2.57531e-08
1790.12	9.35483e-08
1798.79	9.46534e-08
1807.47	3.69026e-08
1816.15	3.83887e-08
1824.83	-7.82625e-08
1833.51	-2.95903e-08
1842.18	2.88254e-08
1850.86	1.24891e-08
1859.54	-9.29135e-09
1868.22	2.69782e-08
1876.9	-3.82059e-08
1885.58	-6.81599e-08
1894.25	-7.06146e-08
1902.93	-1.02363e-08
1911.61	5.94716e-09
1920.29	3.41368e-08
1928.97	-3.25052e-08
1937.64	-6.94459e-08
1946.32	-3.43787e-10
1955	-7.26719e-08
1963.68	7.04591e-08
1972.36	1.82365e-07
1981.04	2.55002e-07
1989.71	3.64923e-07
1998.39	6.87574e-08
2007.07	7.79515e-08
2015.75	1.23541e-07
2024.43	3.93409e-08
2033.1	2.04678e-07
2041.78	2.00285e-07
2050.46	7.52207e-07
2059.14	6.44613e-07
2067.82	7.03545e-07
2076.5	7.82607e-08
2085.17	2.18078e-08
2093.85	1.05246e-08
2102.53	-8.04007e-08
2111.21	-1.82898e-08
2119.89	-9.64769e-08
2128.56	1.91149e-07
2137.24	2.56926e-07
2145.92	1.77575e-07
2154.6	2.51074e-07
2163.28	3.43054e-07
2171.96	4.45879e-07
2180.63	6.67736e-07
2189.31	4.39917e-07
2197.99	2.44052e-07
2206.67	-6.16489e-08
2215.35	-6.47057e-08
2224.02	2.21434e-08
2232.7	5.18691e-08
2241.38	4.0254e-09
2250.06	1.18812e-07
2258.74	9.19249e-08
2267.42	1.96991e-07
2276.09	3.55707e-07
2284.77	8.03211e-07
2293.45	1.2769e-06
2302.13	1.60839e-06
2310.81	2.09079e-06
2319.48	5.05268e-06
2328.16	2.23854e-06
2336.84	1.6247e-06
2345.52	1.45317e-06
2354.2	1.57126e-06
2362.88	2.34071e-06
2371.55	1.00293e-06
2380.23	1.57846e-07
2388.91	1.88543e-07
2397.59	2.31313e-07
2406.27	3.12729e-07
2414.94	8.36751e-07
2423.62	2.62928e-07
2432.3	2.6408e-07
2440.98	1.86409e-07
2449.66	1.50913e-07
2458.34	1.56805e-08
2467.01	-2.21006e-09
2475.69	5.21683e-08
2484.37	-1.94913e-08
2493.05	9.60021e-08
2501.73	4.00421e-08
2510.4	-1.36683e-07
2519.08	-2.52611e-07
2527.76	-2.71474e-07
2536.44	-2.34706e-07
2545.12	-3.05799e-07
2553.8	-4.76776e-07
2562.47	-3.5775e-07
2571.15	-1.56537e-07
2579.83	-2.62406e-08
2588.51	-5.06031e-08
2597.19	5.72106e-08
2605.86	-1.17661e-08
2614.54	-5.52833e-08
2623.22	1.3667e-07
2631.9	4.52271e-08
2640.58	-8.97176e-08
2649.26	-2.42188e-08
2657.93	2.19969e-08
2666.61	-3.07926e-08
2675.29	1.10802e-07
2683.97	9.88009e-07
2692.65	2.38159e-06
2701.32	7.50077e-07
2710	2.17329e-06
2718.68	1.00536e-07
2727.36	-2.07973e-08
2736.04	9.55783e-09
2744.71	8.34639e-08
2753.39	6.35424e-08
2762.07	-1.28274e-08
2770.75	-2.91128e-09
2779.43	5.0233e-08
2788.11	-7.29265e-08
2796.78	3.24824e-08
2805.46	6.71022e-08
2814.14	3.20773e-07
2822.82	3.87691e-07
2831.5	6.96696e-07
2840.17	8.28806e-07
2848.85	9.75813e-07
2857.53	9.81032e-07
2866.21	9.93225e-07
2874.89	7.97673e-07
2883.57	4.87076e-07
2892.24	1.44745e-07
2900.92	1.0012e-07
2909.6	8.13994e-10
2918.28	2.65273e-07
2926.96	1.61353e-07
2935.63	5.27862e-07
2944.31	9.7919e-07
2952.99	2.57167e-06
2961.67	5.1645e-06
2970.35	7.5256e-06
2979.03	1.49824e-05
2987.7	1.95248e-05
2996.38	1.20911e-05
3005.06	2.4032e-05
3013.74	2.01266e-05
3022.42	1.16717e-05
3031.09	7.26184e-06
3039.77	3.98005e-06
3048.45	1.94995e-06
3057.13	7.88394e-07
3065.81	3.4837e-07
3074.49	7.52821e-08
3083.16	-5.9718e-08
3091.84	1.64272e-08
3100.52	-1.79306e-08
3109.2	-6.08294e-08
3117.88	4.13418e-08
3126.55	1.13151e-07
3135.23	-1.08542e-07
3143.91	1.2185e-07
3152.59	-1.66755e-08
3161.27	-4.18493e-08
3169.95	-8.78822e-08
3178.62	4.06733e-08
3187.3	-7.456e-09
3195.98	-4.36246e-08
3204.66	6.57352e-08
3213.34	9.92636e-08
3222.01	-4.76855e-08
3230.69	-8.47945e-08
3239.37	-7.72166e-08
3248.05	8.68063e-08
3256.73	2.07928e-08
3265.41	1.24478e-07
3274.08	-5.792e-08
3282.76	9.52209e-08
3291.44	3.25825e-08
3300.12	-8.39605e-08
3308.8	3.26325e-09
3317.47	-1.42108e-08
3326.15	-7.76277e-08
3334.83	9.44278e-08
3343.51	-6.85746e-08
3352.19	-8.21479e-08
3360.87	-6.96133e-08
3369.54	-1.32967e-09
3378.22	-8.49182e-08
3386.9	-8.30419e-08
3395.58	2.5674e-08
3404.26	1.30834e-07
3412.93	7.07783e-08
3421.61	-3.6496e-08
3430.29	8.5663e-08
3438.97	-2.09301e-08
3447.65	1.80534e-09
3456.33	-4.21721e-08
3465	2.12821e-09
3473.68	1.77584e-07
3482.36	8.79932e-08
3491.04	-1.21681e-08
3499.72	-7.35668e-08
3508.39	-1.32033e-07
3517.07	-1.98837e-07
3525.75	-1.99548e-07
3534.43	5.77408e-08
3543.11	2.89469e-07
3551.79	1.81447e-07
3560.46	2.95897e-07
3569.14	4.28679e-08
3577.82	3.57093e-08
3586.5	9.72117e-08
3595.18	-6.03729e-08
3603.85	6.5878e-08
3612.53	-1.78331e-07
3621.21	-4.82184e-08
3629.89	-1.31887e-07
3638.57	2.94293e-08
3647.25	-8.93729e-08
3655.92	7.27592e-09
3664.6	2.91482e-08
3673.28	2.55521e-08
3681.96	1.75575e-07
3690.64	1.38372e-07
3699.31	5.28028e-07
3707.99	4.31216e-07
3716.67	5.57828e-07
3725.35	5.61352e-07
3734.03	5.23114e-07
3742.71	6.08442e-07
3751.38	7.39937e-07
3760.06	7.38856e-07
3768.74	6.98788e-07
3777.42	2.53529e-07
3786.1	2.89872e-07
3794.77	1.10541e-07
3803.45	-1.20347e-07
3812.13	1.09655e-07
3820.81	-1.36938e-07
3829.49	1.29811e-07
3838.17	4.1812e-08
3846.84	3.34556e-08
3855.52	-2.27282e-08
3864.2	-2.15467e-08
3872.88	-6.7124e-08
3881.56	4.75036e-08
3890.23	5.08787e-08
3898.91	-3.07244e-08
3907.59	2.14502e-07
3916.27	1.93662e-07
3924.95	1.34034e-07
3933.63	5.88484e-07
3942.3	6.01619e-07
3950.98	5.43826e-07
3959.66	6.00459e-07
3968.34	4.05161e-07
