Infrared Spectrum: Nitrile-Acetic Acid
Formula: C H3 C N
CAS: 75-05-8
State: gas
Melting point: -45.72 C
Boiling point: 81.6 C
Class: IUPAC A
Instrument: IFS66V (Bruker)
Instrument parameters: KBr Beam splitter; MCT Detector; Multipass cell
Sampling: 1 L/min Flow
Resolution: 1.9290
Temperature: 23 C
Pressure: 101.3 kPa
Origin: NIST, Anayltical Chemistry Division, 301-975-3108
cm-1	(micromol/mol)-1m-1 (base 10)
574.687	-1.43061e-07
583.365	-4.17995e-07
592.043	-2.88434e-07
600.721	-1.60137e-07
609.4	-8.956e-08
618.078	-3.16439e-08
626.756	-5.70699e-08
635.434	-1.13963e-07
644.112	-5.60815e-08
652.79	6.64773e-08
661.469	1.75088e-09
670.147	2.52088e-07
678.825	4.40375e-07
687.503	1.8349e-06
696.181	5.54391e-06
704.859	6.60922e-06
713.537	3.83429e-06
722.216	4.88103e-06
730.894	5.2007e-06
739.572	2.43255e-06
748.25	6.4816e-07
756.928	6.58033e-08
765.606	-1.15081e-07
774.285	-1.09085e-07
782.963	-1.17705e-07
791.641	-1.29459e-07
800.319	-1.13837e-07
808.997	-1.68746e-07
817.675	-1.16994e-07
826.353	-1.21971e-07
835.032	-1.28783e-07
843.71	-6.02522e-08
852.388	-9.85945e-08
861.066	-1.10857e-07
869.744	-1.01763e-07
878.422	1.17746e-07
887.101	7.21449e-07
895.779	2.36737e-06
904.457	4.76548e-06
913.135	4.25463e-06
921.813	1.20658e-06
930.491	4.30083e-06
939.169	3.08893e-06
947.848	6.74813e-07
956.526	1.02852e-09
965.204	6.8224e-08
973.882	2.12452e-07
982.56	5.58802e-07
991.238	1.16129e-06
999.917	2.4978e-06
1008.59	2.50505e-06
1017.27	3.02288e-06
1025.95	1.23018e-05
1034.63	4.01862e-06
1043.31	8.5377e-06
1051.99	5.42473e-06
1060.66	4.53768e-06
1069.34	4.77378e-06
1078.02	3.23713e-06
1086.7	2.24002e-06
1095.38	2.00007e-06
1104.05	9.65449e-07
1112.73	7.22548e-07
1121.41	2.77425e-07
1130.09	1.1221e-07
1138.77	1.726e-08
1147.45	-2.57481e-08
1156.12	-2.31466e-08
1164.8	-4.79767e-08
1173.48	-3.20879e-08
1182.16	-6.89926e-08
1190.84	-3.0564e-08
1199.51	-4.35127e-08
1208.19	7.66812e-10
1216.87	2.67617e-08
1225.55	3.28761e-08
1234.23	3.27791e-09
1242.9	8.5336e-08
1251.58	6.69864e-08
1260.26	1.59128e-07
1268.94	4.27254e-07
1277.62	5.95234e-07
1286.3	1.73044e-06
1294.97	1.98623e-06
1303.65	9.19544e-07
1312.33	1.3758e-06
1321.01	1.74307e-06
1329.69	3.16685e-06
1338.36	5.52052e-06
1347.04	3.21428e-06
1355.72	6.3163e-06
1364.4	1.2411e-05
1373.08	1.54729e-05
1381.76	1.29965e-05
1390.43	1.98089e-05
1399.11	2.45619e-05
1407.79	3.39989e-05
1416.47	2.1547e-05
1425.15	2.20406e-05
1433.82	2.51037e-05
1442.5	1.47519e-05
1451.18	1.98336e-05
1459.86	1.24505e-05
1468.54	1.65739e-05
1477.22	1.81201e-05
1485.89	1.44889e-05
1494.57	2.09582e-05
1503.25	1.19723e-05
1511.93	1.08216e-05
1520.61	1.13107e-05
1529.28	1.7022e-05
1537.96	1.06029e-05
1546.64	6.53357e-06
1555.32	9.54964e-06
1564	5.13563e-06
1572.67	3.20842e-06
1581.35	3.37349e-06
1590.03	2.27898e-06
1598.71	1.15776e-06
1607.39	7.05597e-07
1616.07	1.87129e-06
1624.74	7.62408e-07
1633.42	2.9181e-07
1642.1	1.6043e-07
1650.78	3.30652e-07
1659.46	8.79611e-08
1668.13	2.21761e-07
1676.81	9.86926e-08
1685.49	9.22099e-07
1694.17	1.74982e-07
1702.85	1.24745e-07
1711.53	6.41215e-08
1720.2	1.81035e-07
1728.88	2.04595e-07
1737.56	2.47492e-07
1746.24	2.90143e-07
1754.92	2.49896e-07
1763.59	2.91652e-07
1772.27	8.64755e-07
1780.95	3.76912e-07
1789.63	3.27078e-07
1798.31	3.40379e-07
1806.98	4.54585e-07
1815.66	5.32137e-07
1824.34	6.76464e-07
1833.02	4.3312e-07
1841.7	6.96335e-07
1850.38	5.86667e-07
1859.05	3.70668e-07
1867.73	3.61262e-07
1876.41	1.8708e-07
1885.09	2.12531e-07
1893.77	3.08819e-07
1902.44	3.81956e-07
1911.12	1.98344e-07
1919.8	1.90441e-07
1928.48	1.20235e-07
1937.16	6.13533e-08
1945.84	5.55785e-08
1954.51	3.2837e-08
1963.19	1.56243e-08
1971.87	1.41616e-08
1980.55	3.59192e-08
1989.23	1.19451e-08
1997.9	-6.24136e-10
2006.58	1.73235e-08
2015.26	3.59384e-09
2023.94	2.63692e-08
2032.62	4.06697e-08
2041.3	6.46356e-08
2049.97	1.6509e-07
2058.65	3.74384e-07
2067.33	3.6511e-07
2076.01	3.5955e-07
2084.69	4.71488e-07
2093.36	3.62386e-07
2102.04	1.82398e-07
2110.72	4.05231e-08
2119.4	1.01361e-07
2128.08	1.87801e-08
2136.75	6.89745e-08
2145.43	2.55932e-08
2154.11	4.72953e-08
2162.79	4.98663e-08
2171.47	5.74331e-08
2180.15	6.20927e-08
2188.82	6.44724e-08
2197.5	1.16589e-07
2206.18	1.26471e-07
2214.86	1.83913e-07
2223.54	3.56588e-07
2232.21	9.02908e-07
2240.89	2.30926e-06
2249.57	4.11705e-06
2258.25	3.58282e-06
2266.93	5.36814e-06
2275.61	6.43589e-06
2284.28	5.85885e-06
2292.96	4.05322e-06
2301.64	2.07856e-06
2310.32	4.58443e-06
2319	4.38702e-06
2327.67	1.7342e-06
2336.35	8.76862e-07
2345.03	5.75e-07
2353.71	5.27838e-07
2362.39	6.75737e-07
2371.06	7.18596e-07
2379.74	1.03624e-06
2388.42	9.87171e-07
2397.1	1.0867e-06
2405.78	1.47806e-06
2414.46	1.28632e-06
2423.13	1.49313e-06
2431.81	1.43622e-06
2440.49	1.00007e-06
2449.17	9.67575e-07
2457.85	1.01543e-06
2466.52	8.18017e-07
2475.2	1.02777e-06
2483.88	1.00576e-06
2492.56	1.19573e-06
2501.24	8.05242e-07
2509.92	7.26973e-07
2518.59	5.57853e-07
2527.27	5.30026e-07
2535.95	4.44631e-07
2544.63	4.37607e-07
2553.31	4.33446e-07
2561.98	3.11807e-07
2570.66	2.48782e-07
2579.34	2.4928e-07
2588.02	4.50009e-07
2596.7	7.59578e-07
2605.38	1.21341e-06
2614.05	1.96601e-06
2622.73	3.83584e-06
2631.41	1.31196e-06
2640.09	9.55706e-07
2648.77	3.83127e-07
2657.44	2.7681e-07
2666.12	3.59533e-07
2674.8	2.0156e-07
2683.48	1.81979e-07
2692.16	1.58214e-07
2700.83	5.79857e-08
2709.51	6.49422e-08
2718.19	2.33553e-07
2726.87	2.67875e-07
2735.55	4.0996e-07
2744.23	4.49499e-07
2752.9	5.05244e-07
2761.58	5.22675e-07
2770.26	2.33642e-07
2778.94	2.11429e-07
2787.62	1.40738e-07
2796.29	3.08971e-07
2804.97	2.48076e-07
2813.65	1.5206e-07
2822.33	5.8008e-07
2831.01	5.02086e-07
2839.69	8.52787e-07
2848.36	1.73337e-06
2857.04	2.19383e-06
2865.72	2.14867e-06
2874.4	3.52877e-06
2883.08	4.06382e-06
2891.75	2.69797e-06
2900.43	2.94094e-06
2909.11	2.64265e-06
2917.79	2.14503e-06
2926.47	2.21592e-06
2935.14	5.92273e-06
2943.82	9.10767e-06
2952.5	5.11059e-06
2961.18	7.28687e-06
2969.86	9.83369e-06
2978.54	5.4915e-06
2987.21	3.42915e-06
2995.89	3.98907e-06
3004.57	6.87942e-06
3013.25	1.39367e-05
3021.93	7.46442e-06
3030.6	5.37409e-06
3039.28	4.57763e-06
3047.96	2.84637e-06
3056.64	2.25472e-06
3065.32	1.97141e-06
3074	1.80766e-06
3082.67	1.35738e-06
3091.35	1.13899e-06
3100.03	9.36463e-07
3108.71	6.36887e-07
3117.39	5.26629e-07
3126.06	4.02167e-07
3134.74	3.817e-07
3143.42	6.00222e-07
3152.1	1.03865e-06
3160.78	1.97085e-06
3169.46	2.30184e-06
3178.13	2.70309e-06
3186.81	3.2381e-06
3195.49	3.25327e-06
3204.17	8.73323e-07
3212.85	5.54428e-07
3221.52	8.7301e-07
3230.2	9.30077e-07
3238.88	3.1889e-07
3247.56	2.15822e-07
3256.24	2.18496e-07
3264.91	1.85384e-07
3273.59	2.20825e-07
3282.27	1.64019e-07
3290.95	2.16979e-07
3299.63	2.33005e-07
3308.31	2.37893e-07
3316.98	3.19863e-07
3325.66	2.84165e-07
3334.34	2.95105e-07
3343.02	2.91166e-07
3351.7	3.54491e-07
3360.37	3.8279e-07
3369.05	3.32608e-07
3377.73	3.79841e-07
3386.41	4.15324e-07
3395.09	3.13783e-07
3403.77	3.42874e-07
3412.44	3.67173e-07
3421.12	3.3838e-07
3429.8	3.09173e-07
3438.48	2.96836e-07
3447.16	3.3462e-07
3455.83	2.34029e-07
3464.51	2.40515e-07
3473.19	2.13558e-07
3481.87	2.06078e-07
3490.55	2.4857e-07
3499.22	2.55109e-07
3507.9	2.46416e-07
3516.58	2.71731e-07
3525.26	2.84741e-07
3533.94	3.25343e-07
3542.62	3.07846e-07
3551.29	3.28362e-07
3559.97	2.96307e-07
3568.65	4.51959e-07
3577.33	2.86926e-07
3586.01	4.69409e-07
3594.68	3.5371e-07
3603.36	3.46018e-07
3612.04	5.2463e-07
3620.72	5.37465e-07
3629.4	1.07774e-06
3638.08	5.03992e-07
3646.75	8.73758e-07
3655.43	8.27578e-07
3664.11	5.52954e-07
3672.79	5.56828e-07
3681.47	6.5554e-07
3690.14	7.05465e-07
3698.82	4.79344e-07
3707.5	4.74091e-07
3716.18	4.4623e-07
3724.86	5.24348e-07
3733.54	5.54484e-07
3742.21	5.20132e-07
3750.89	8.05937e-07
3759.57	6.41053e-07
3768.25	4.43468e-07
3776.93	3.92261e-07
3785.6	4.52568e-07
3794.28	4.24059e-07
3802.96	5.9295e-07
3811.64	4.14493e-07
3820.32	8.06649e-07
3828.99	4.65671e-07
3837.67	1.29816e-06
3846.35	4.54873e-07
3855.03	1.29457e-06
3863.71	6.95205e-07
3872.39	5.47553e-07
3881.06	7.44305e-07
3889.74	6.3471e-07
3898.42	7.37956e-07
3907.1	6.79485e-07
3915.78	8.45134e-07
3924.45	9.41356e-07
3933.13	9.06596e-07
3941.81	8.4042e-07
3950.49	9.11273e-07
3959.17	8.57179e-07
3967.85	1.25058e-06
