Infrared Spectrum: Dichloromethane
Formula: C H2 Cl2
CAS: 75-09-2
State: gas
Melting point: -95.1 C
Boiling point: 40 C
Class: IUPAC A
Instrument: IFS66V (Bruker)
Instrument parameters: KBr Beam Splitter; MCT Detector; Multipass cell
Sampling: 1 L/min Flow
Resolution: 0.9640
Temperature: 23 C
Pressure: 101.3 Pa
Origin: NIST, Analytical Chemistry Division, 301-975-3108
cm-1	(micromol/mol)-1m-1 (base 10)
575.17	4.23437e-07
583.848	4.56409e-08
592.526	5.30431e-07
601.205	8.6729e-09
609.883	-2.22992e-07
618.561	2.18319e-07
627.239	1.58152e-07
635.917	3.67163e-07
644.595	3.52617e-07
653.274	9.50561e-07
661.952	2.5358e-06
670.63	5.88367e-06
679.308	1.00028e-05
687.986	1.74638e-05
696.665	2.60964e-05
705.343	3.74599e-05
714.021	3.0039e-05
722.699	7.23222e-05
731.377	7.56439e-05
740.055	0.000290461
748.734	0.000829215
757.412	0.000620733
766.09	0.000682689
774.768	0.00010546
783.446	2.03537e-06
792.125	2.30386e-07
800.803	4.43013e-09
809.481	-4.87923e-08
818.159	1.41912e-07
826.837	8.65452e-08
835.515	-2.15115e-07
844.194	2.10838e-08
852.872	6.9094e-08
861.55	3.82305e-07
870.228	6.81977e-07
878.906	1.6593e-06
887.584	2.64675e-06
896.263	6.08915e-06
904.941	2.8704e-06
913.619	3.33312e-06
922.297	2.97281e-06
930.975	1.84887e-06
939.654	1.13744e-06
948.332	5.37142e-07
957.01	2.74515e-07
965.688	2.01788e-07
974.366	2.99416e-07
983.044	3.71351e-07
991.723	2.50283e-07
1000.4	3.04315e-07
1009.08	2.42438e-07
1017.76	2.4743e-07
1026.44	2.73165e-07
1035.11	2.82712e-07
1043.79	3.99709e-07
1052.47	2.30913e-07
1061.15	5.86439e-08
1069.83	-8.01061e-08
1078.5	-7.96668e-08
1087.18	-7.94012e-08
1095.86	4.36182e-08
1104.54	-5.88586e-08
1113.22	-4.90615e-08
1121.9	-4.39002e-08
1130.57	2.5945e-08
1139.25	-1.70757e-08
1147.93	-3.66424e-08
1156.61	-3.03388e-08
1165.29	-1.36751e-08
1173.96	-1.29439e-08
1182.64	2.84152e-08
1191.32	6.58125e-08
1200	-4.80784e-08
1208.68	-2.59059e-08
1217.36	4.58556e-08
1226.03	3.97629e-09
1234.71	1.73204e-07
1243.39	3.71968e-06
1252.07	6.24972e-05
1260.75	0.000219256
1269.42	5.33572e-05
1278.1	0.000211103
1286.78	1.94685e-05
1295.46	1.28283e-07
1304.14	-3.89607e-08
1312.82	-1.37306e-08
1321.49	-2.80841e-08
1330.17	-3.54619e-08
1338.85	-4.29043e-08
1347.53	-2.00633e-08
1356.21	-1.71284e-08
1364.88	-1.22703e-07
1373.56	-7.83071e-10
1382.24	3.61022e-08
1390.92	1.43265e-07
1399.6	1.51619e-07
1408.28	3.55342e-07
1416.95	5.38691e-07
1425.63	1.10244e-06
1434.31	1.18822e-06
1442.99	2.75991e-06
1451.67	5.11796e-06
1460.34	7.47609e-06
1469.02	8.04155e-06
1477.7	5.56336e-06
1486.38	1.97229e-07
1495.06	8.17013e-08
1503.74	1.88619e-08
1512.41	-5.31661e-08
1521.09	-1.83042e-07
1529.77	6.52086e-08
1538.45	2.66521e-07
1547.13	3.69906e-07
1555.8	4.57307e-07
1564.48	1.36504e-07
1573.16	1.95204e-08
1581.84	2.12957e-08
1590.52	2.3865e-08
1599.2	7.25455e-08
1607.87	8.78877e-08
1616.55	-1.55294e-07
1625.23	3.90826e-08
1633.91	-9.2486e-09
1642.59	2.3765e-08
1651.26	-4.36519e-08
1659.94	8.80023e-09
1668.62	-4.6635e-08
1677.3	2.84488e-09
1685.98	-4.76209e-08
1694.66	6.37643e-09
1703.33	-1.53349e-08
1712.01	7.44599e-09
1720.69	5.30469e-08
1729.37	5.47131e-08
1738.05	1.75441e-08
1746.72	2.4719e-08
1755.4	1.14841e-08
1764.08	1.93831e-08
1772.76	-4.57601e-08
1781.44	3.27662e-08
1790.12	5.94743e-08
1798.79	8.06954e-08
1807.47	3.13428e-08
1816.15	1.98915e-08
1824.83	-5.19992e-08
1833.51	-1.59779e-08
1842.18	5.05531e-08
1850.86	5.3769e-09
1859.54	-3.0125e-08
1868.22	8.09446e-11
1876.9	-3.8436e-08
1885.58	-3.85942e-08
1894.25	-5.16809e-08
1902.93	-1.14769e-08
1911.61	-4.20184e-10
1920.29	6.08267e-09
1928.97	-2.34357e-08
1937.64	-7.76086e-08
1946.32	-1.67801e-09
1955	-6.38644e-08
1963.68	6.61572e-08
1972.36	1.86783e-07
1981.04	2.15661e-07
1989.71	3.38398e-07
1998.39	6.6581e-08
2007.07	7.71575e-08
2015.75	6.3778e-08
2024.43	4.06915e-08
2033.1	1.46351e-07
2041.78	2.23579e-07
2050.46	7.63802e-07
2059.14	6.58664e-07
2067.82	7.46843e-07
2076.5	5.81028e-08
2085.17	1.87046e-08
2093.85	1.70047e-08
2102.53	-3.43578e-08
2111.21	-3.13037e-08
2119.89	-1.26365e-08
2128.56	1.33019e-07
2137.24	2.30278e-07
2145.92	1.98029e-07
2154.6	3.22904e-07
2163.28	3.57494e-07
2171.96	4.52956e-07
2180.63	6.45295e-07
2189.31	4.14359e-07
2197.99	2.2015e-07
2206.67	-4.36855e-08
2215.35	-4.79874e-08
2224.02	-3.30727e-08
2232.7	5.41674e-08
2241.38	7.14132e-09
2250.06	1.07523e-07
2258.74	1.14684e-07
2267.42	1.8014e-07
2276.09	3.88616e-07
2284.77	7.88312e-07
2293.45	1.28874e-06
2302.13	1.70999e-06
2310.81	1.96742e-06
2319.48	4.96134e-06
2328.16	2.36475e-06
2336.84	1.94049e-06
2345.52	1.55421e-06
2354.2	1.37527e-06
2362.88	1.47115e-06
2371.55	7.03063e-07
2380.23	2.22881e-07
2388.91	2.12536e-07
2397.59	2.53867e-07
2406.27	3.43852e-07
2414.94	9.1536e-07
2423.62	2.77661e-07
2432.3	2.78208e-07
2440.98	2.01671e-07
2449.66	1.74394e-07
2458.34	2.3714e-08
2467.01	9.58693e-09
2475.69	2.1735e-08
2484.37	2.81942e-11
2493.05	7.48037e-08
2501.73	-2.19351e-08
2510.4	-1.46395e-07
2519.08	-1.96615e-07
2527.76	-2.54451e-07
2536.44	-1.61469e-07
2545.12	-2.84357e-07
2553.8	-4.67279e-07
2562.47	-3.48129e-07
2571.15	-1.60645e-07
2579.83	-3.93391e-08
2588.51	-4.26833e-08
2597.19	7.83244e-08
2605.86	-2.73356e-08
2614.54	-4.67405e-08
2623.22	9.79321e-08
2631.9	7.86254e-09
2640.58	-3.42378e-08
2649.26	-3.34383e-08
2657.93	3.45333e-08
2666.61	-5.93297e-08
2675.29	1.33158e-07
2683.97	9.55417e-07
2692.65	2.49697e-06
2701.32	8.23621e-07
2710	2.23825e-06
2718.68	8.71328e-08
2727.36	-6.20545e-09
2736.04	2.28009e-09
2744.72	7.35714e-08
2753.39	7.53049e-08
2762.07	8.82933e-09
2770.75	3.91572e-08
2779.43	1.02809e-08
2788.11	4.82212e-09
2796.78	-1.1315e-08
2805.46	1.09962e-07
2814.14	3.06523e-07
2822.82	3.95475e-07
2831.5	5.89143e-07
2840.18	8.65081e-07
2848.85	9.90734e-07
2857.53	1.02246e-06
2866.21	1.07802e-06
2874.89	6.87285e-07
2883.57	4.88209e-07
2892.24	1.69915e-07
2900.92	1.18651e-07
2909.6	8.4528e-09
2918.28	2.14216e-07
2926.96	1.49127e-07
2935.63	5.43245e-07
2944.31	1.02817e-06
2952.99	2.54652e-06
2961.67	5.23487e-06
2970.35	7.94583e-06
2979.03	1.39669e-05
2987.7	2.15207e-05
2996.38	1.20885e-05
3005.06	2.5126e-05
3013.74	1.91116e-05
3022.42	1.23847e-05
3031.09	7.70816e-06
3039.77	4.11073e-06
3048.45	1.90382e-06
3057.13	7.28556e-07
3065.81	2.58988e-07
3074.49	1.41128e-07
3083.16	-1.68356e-08
3091.84	-2.31483e-08
3100.52	1.05683e-08
3109.2	-9.50863e-08
3117.88	-8.31729e-09
3126.55	7.65509e-08
3135.23	-7.36778e-08
3143.91	6.46556e-08
3152.59	-2.0891e-09
3161.27	-7.17951e-09
3169.95	-4.48324e-08
3178.62	3.05798e-08
3187.3	-4.14e-09
3195.98	-3.49417e-08
3204.66	2.76285e-08
3213.34	4.97018e-08
3222.01	-4.86959e-08
3230.69	-9.49344e-08
3239.37	-1.12929e-07
3248.05	9.57029e-08
3256.73	2.1755e-08
3265.41	7.37787e-08
3274.08	3.32982e-08
3282.76	1.34461e-07
3291.44	3.51045e-08
3300.12	-3.79012e-08
3308.8	1.85108e-08
3317.47	2.57595e-08
3326.15	-5.96471e-08
3334.83	7.27683e-08
3343.51	-9.78793e-09
3352.19	-8.33802e-08
3360.87	-3.70672e-08
3369.54	1.66664e-08
3378.22	-4.13409e-08
3386.9	1.27147e-09
3395.58	7.38297e-08
3404.26	6.23592e-08
3412.93	4.74481e-09
3421.61	5.46876e-09
3430.29	1.10321e-08
3438.97	-6.42646e-08
3447.65	1.00044e-11
3456.33	-2.97476e-08
3465	-1.69711e-09
3473.68	3.30099e-08
3482.36	1.4147e-07
3491.04	-8.59814e-08
3499.72	-6.78807e-08
3508.39	-7.44718e-08
3517.07	-1.84312e-07
3525.75	-1.34016e-07
3534.43	1.39725e-08
3543.11	1.36946e-07
3551.79	1.73252e-07
3560.46	2.06869e-07
3569.14	2.37986e-08
3577.82	2.94338e-08
3586.5	3.89771e-08
3595.18	-4.51271e-08
3603.85	-3.08317e-09
3612.53	-8.59013e-08
3621.21	-4.52771e-08
3629.89	-9.70517e-08
3638.57	-3.5471e-08
3647.25	-6.54251e-08
3655.92	-3.20486e-08
3664.6	4.36646e-09
3673.28	5.98463e-08
3681.96	1.83501e-07
3690.64	1.93488e-07
3699.31	4.2302e-07
3707.99	4.19946e-07
3716.67	5.88802e-07
3725.35	5.50853e-07
3734.03	5.09522e-07
3742.71	6.02011e-07
3751.38	7.1998e-07
3760.06	6.65797e-07
3768.74	7.29178e-07
3777.42	2.38526e-07
3786.1	3.16354e-07
3794.77	1.45757e-07
3803.45	-3.10755e-08
3812.13	8.25435e-08
3820.81	-9.80503e-08
3829.49	1.12943e-07
3838.17	-8.14266e-08
3846.84	2.34539e-08
3855.52	4.16992e-08
3864.2	5.5367e-08
3872.88	-1.66555e-08
3881.56	2.16277e-09
3890.23	3.37357e-08
3898.91	-1.02845e-08
3907.59	1.76171e-07
3916.27	1.79229e-07
3924.95	1.77602e-07
3933.63	5.63014e-07
3942.3	5.64458e-07
3950.98	4.90134e-07
3959.66	5.97223e-07
3968.34	3.61323e-07
