Infrared Spectrum: Nitrile-Acetic Acid
Formula: C H3 C N
CAS: 75-05-8
State: gas
Melting point: -45.72 C
Boiling point: 81.6 C
Class: IUPAC A
Instrument: IFS66V (Bruker)
Instrument parameters: KBr Beam splitter; MCT Detector; Multipass cell
Sampling: 1 L/min Flow
Resolution: 0.1250
Temperature: 23 C
Pressure: 101.3 kPa
Origin: NIST, Anayltical Chemistry Division, 301-975-3108
cm-1	(micromol/mol)-1m-1 (base 10)
574.988	-8.57295e-07
583.546	4.88519e-07
592.103	-9.92239e-07
600.661	2.27605e-07
609.219	-2.74754e-09
617.776	-2.05477e-07
626.334	-2.63722e-07
634.891	-4.67264e-08
643.449	1.44982e-07
652.007	2.00846e-07
660.564	-9.61734e-08
669.122	-2.88767e-07
677.68	2.12047e-07
686.237	1.50413e-06
694.795	5.1261e-06
703.352	8.00813e-06
711.91	3.42369e-06
720.468	4.8517e-06
729.025	6.41413e-06
737.583	2.76849e-06
746.141	9.6696e-07
754.698	1.73145e-07
763.256	6.70832e-09
771.813	-1.93494e-07
780.371	-1.05097e-07
788.929	-1.49047e-07
797.486	-2.9544e-08
806.044	-8.3719e-08
814.602	-2.11099e-07
823.159	-7.88756e-08
831.717	-8.85765e-08
840.274	4.69396e-08
848.832	-1.65475e-07
857.39	-8.12875e-08
865.947	-4.5042e-08
874.505	-2.72389e-09
883.063	2.31986e-07
891.62	1.24112e-06
900.178	3.11801e-06
908.735	6.90644e-06
917.293	2.45743e-06
925.851	2.13956e-06
934.408	4.30248e-06
942.966	1.77115e-06
951.524	1.03655e-07
960.081	-2.63658e-08
968.639	1.7776e-07
977.196	2.54443e-07
985.754	7.70488e-07
994.312	1.18146e-06
1002.87	2.59043e-06
1011.43	2.71954e-06
1019.98	3.34326e-06
1028.54	3.34576e-06
1037.1	4.95376e-06
1045.66	4.64435e-06
1054.22	3.66752e-06
1062.77	4.33273e-06
1071.33	3.34025e-06
1079.89	2.98642e-06
1088.45	4.38079e-06
1097	1.00992e-06
1105.56	9.86216e-07
1114.12	5.6146e-07
1122.68	1.59645e-07
1131.23	1.89819e-07
1139.79	-3.51705e-08
1148.35	-9.06765e-08
1156.91	-1.20995e-07
1165.46	5.05271e-08
1174.02	-9.41257e-08
1182.58	-1.28912e-07
1191.14	-2.75827e-08
1199.69	-3.91654e-08
1208.25	-1.23389e-08
1216.81	1.75049e-07
1225.37	-5.00023e-08
1233.93	-2.29016e-08
1242.48	5.8872e-08
1251.04	8.63874e-08
1259.6	1.09604e-07
1268.16	4.29815e-07
1276.71	4.78421e-07
1285.27	1.62656e-06
1293.83	6.59119e-07
1302.39	1.1742e-06
1310.94	1.64947e-06
1319.5	1.30307e-06
1328.06	3.45354e-06
1336.62	1.17756e-05
1345.17	3.66711e-06
1353.73	3.01006e-06
1362.29	8.23468e-06
1370.85	1.43625e-05
1379.4	1.49771e-05
1387.96	1.75702e-05
1396.52	2.60072e-05
1405.08	2.10137e-05
1413.64	1.6562e-05
1422.19	5.48807e-05
1430.75	1.36062e-05
1439.31	1.6169e-05
1447.87	1.54948e-05
1456.42	1.64901e-05
1464.98	2.72833e-05
1473.54	1.6903e-05
1482.1	6.88938e-05
1490.65	1.4047e-05
1499.21	3.41333e-05
1507.77	1.33249e-05
1516.33	9.64793e-06
1524.88	1.01283e-05
1533.44	9.06975e-06
1542	1.80322e-05
1550.56	9.37429e-06
1559.11	4.34472e-06
1567.67	8.61191e-06
1576.23	8.0243e-06
1584.79	1.77942e-06
1593.35	1.69003e-06
1601.9	1.50384e-06
1610.46	7.32254e-07
1619.02	5.71057e-07
1627.58	1.19794e-06
1636.13	4.87124e-07
1644.69	1.94734e-07
1653.25	5.12666e-06
1661.81	1.71729e-07
1670.36	6.71028e-08
1678.92	3.22515e-08
1687.48	2.20817e-08
1696.04	3.34672e-06
1704.59	4.69047e-07
1713.15	-1.38773e-08
1721.71	1.66749e-07
1730.27	2.84354e-07
1738.83	3.90493e-07
1747.38	2.338e-07
1755.94	3.21533e-07
1764.5	3.08912e-07
1773.06	6.97486e-07
1781.61	3.16623e-07
1790.17	4.17189e-07
1798.73	3.26751e-07
1807.29	4.20742e-07
1815.84	5.16716e-07
1824.4	5.80727e-07
1832.96	4.29938e-07
1841.52	6.85968e-07
1850.07	7.62997e-07
1858.63	3.44363e-07
1867.19	3.1119e-07
1875.75	2.51262e-07
1884.3	2.25579e-07
1892.86	4.04075e-07
1901.42	4.15451e-07
1909.98	3.55582e-07
1918.54	2.57182e-07
1927.09	1.3814e-07
1935.65	1.52945e-07
1944.21	-2.00822e-08
1952.77	8.85947e-08
1961.32	-7.29994e-09
1969.88	4.15964e-08
1978.44	1.8944e-08
1987	5.14488e-08
1995.55	-4.59065e-08
2004.11	1.17227e-08
2012.67	-6.03053e-08
2021.23	2.51144e-08
2029.78	9.48951e-09
2038.34	6.88035e-08
2046.9	1.15097e-07
2055.46	3.66948e-07
2064.01	4.94405e-07
2072.57	7.82376e-08
2081.13	4.46648e-07
2089.69	4.45934e-07
2098.25	2.76243e-07
2106.8	1.1786e-08
2115.36	-5.61431e-08
2123.92	4.98554e-08
2132.48	3.35871e-09
2141.03	7.07171e-08
2149.59	8.39227e-08
2158.15	4.08379e-08
2166.71	-1.44444e-08
2175.26	1.04632e-07
2183.82	-2.52449e-08
2192.38	8.85579e-08
2200.94	1.35007e-07
2209.49	1.58571e-07
2218.05	1.67667e-07
2226.61	5.49429e-07
2235.17	1.60845e-06
2243.72	3.63462e-06
2252.28	5.88959e-06
2260.84	3.09486e-06
2269.4	3.26083e-06
2277.96	6.45651e-06
2286.51	5.32704e-06
2295.07	3.28735e-06
2303.63	2.46835e-06
2312.19	5.40207e-06
2320.74	3.70585e-06
2329.3	1.41591e-06
2337.86	7.1786e-07
2346.42	4.78836e-07
2354.97	5.75657e-07
2363.53	6.17235e-07
2372.09	7.52238e-07
2380.65	9.0575e-07
2389.2	8.33958e-07
2397.76	1.20588e-06
2406.32	1.6098e-06
2414.88	1.28462e-06
2423.44	1.52739e-06
2431.99	1.48686e-06
2440.55	1.045e-06
2449.11	9.89392e-07
2457.67	1.19582e-06
2466.22	8.3348e-07
2474.78	8.9985e-07
2483.34	1.00981e-06
2491.9	1.56213e-06
2500.45	7.23502e-07
2509.01	6.93027e-07
2517.57	5.63861e-07
2526.13	5.07249e-07
2534.68	7.03208e-07
2543.24	5.22188e-07
2551.8	3.62398e-07
2560.36	2.51797e-07
2568.91	3.07634e-07
2577.47	3.28185e-07
2586.03	3.79932e-07
2594.59	6.85358e-07
2603.15	1.17924e-06
2611.7	1.79909e-06
2620.26	3.77378e-06
2628.82	1.20901e-06
2637.38	1.06646e-06
2645.93	3.20274e-07
2654.49	2.24719e-07
2663.05	4.47244e-07
2671.61	1.14162e-07
2680.16	2.21972e-07
2688.72	2.3193e-07
2697.28	7.47297e-08
2705.84	1.57734e-07
2714.39	1.98125e-07
2722.95	2.89407e-07
2731.51	5.0925e-07
2740.07	4.28921e-07
2748.62	4.30561e-07
2757.18	7.23881e-07
2765.74	2.83534e-07
2774.3	2.70331e-07
2782.86	3.1655e-07
2791.41	1.88928e-07
2799.97	7.9137e-08
2808.53	4.95408e-07
2817.09	2.78143e-07
2825.64	5.52727e-07
2834.2	7.29891e-07
2842.76	8.95681e-07
2851.32	2.0519e-06
2859.87	2.33714e-06
2868.43	3.78697e-06
2876.99	4.10074e-06
2885.55	3.01043e-06
2894.1	2.82007e-06
2902.66	2.8253e-06
2911.22	2.70725e-06
2919.78	2.35213e-06
2928.34	3.65931e-06
2936.89	6.72716e-06
2945.45	9.09457e-06
2954.01	1.32397e-05
2962.57	8.47525e-06
2971.12	8.90382e-06
2979.68	4.41651e-06
2988.24	2.06837e-06
2996.8	2.29899e-06
3005.35	2.86953e-06
3013.91	5.79212e-06
3022.47	3.15262e-05
3031.03	8.47499e-06
3039.58	3.41621e-06
3048.14	2.83168e-06
3056.7	2.17931e-06
3065.26	1.52323e-06
3073.81	1.73364e-06
3082.37	1.27226e-06
3090.93	1.08445e-06
3099.49	7.7001e-07
3108.05	3.39398e-07
3116.6	3.66998e-07
3125.16	4.37243e-07
3133.72	-1.70218e-08
3142.28	3.83023e-07
3150.83	7.36886e-07
3159.39	1.54426e-06
3167.95	2.53002e-06
3176.51	1.20841e-06
3185.06	2.76946e-06
3193.62	3.71175e-06
3202.18	1.33439e-06
3210.74	5.79201e-07
3219.29	8.37898e-07
3227.85	1.0418e-06
3236.41	3.6674e-07
3244.97	3.14584e-07
3253.52	3.12626e-07
3262.08	5.87224e-08
3270.64	2.99449e-07
3279.2	8.94696e-08
3287.76	2.34693e-07
3296.31	3.39823e-07
3304.87	3.76386e-07
3313.43	2.23612e-07
3321.99	2.28729e-07
3330.54	5.56548e-07
3339.1	3.64204e-07
3347.66	4.34379e-07
3356.22	5.76782e-07
3364.77	4.46681e-07
3373.33	1.31212e-07
3381.89	2.87563e-07
3390.45	4.76233e-07
3399	4.30646e-07
3407.56	2.42938e-07
3416.12	4.44762e-07
3424.68	3.61875e-07
3433.23	8.75465e-08
3441.79	3.04605e-07
3450.35	2.28783e-07
3458.91	4.03145e-07
3467.47	2.53372e-07
3476.02	1.74857e-07
3484.58	1.72916e-07
3493.14	8.70295e-08
3501.7	3.634e-07
3510.25	4.05438e-07
3518.81	2.02166e-07
3527.37	4.00236e-07
3535.93	3.47607e-07
3544.48	2.10003e-07
3553.04	2.63817e-07
3561.6	3.88782e-07
3570.16	2.13303e-07
3578.71	1.62056e-07
3587.27	4.08985e-07
3595.83	2.91778e-07
3604.39	2.89048e-07
3612.95	5.87324e-07
3621.5	3.69456e-07
3630.06	4.97526e-07
3638.62	4.05279e-07
3647.18	1.39065e-06
3655.73	7.96287e-07
3664.29	3.98851e-07
3672.85	5.18822e-07
3681.41	5.65009e-07
3689.96	5.5407e-07
3698.52	3.71992e-07
3707.08	5.70878e-07
3715.64	3.82805e-07
3724.19	4.11788e-07
3732.75	6.36519e-07
3741.31	9.68523e-07
3749.87	6.868e-07
3758.42	4.63448e-07
3766.98	4.86704e-07
3775.54	4.1655e-07
3784.1	3.48726e-07
3792.66	3.54056e-07
3801.21	1.50716e-06
3809.77	3.76675e-07
3818.33	5.2522e-07
3826.89	7.53852e-07
3835.44	4.28166e-07
3844	5.85903e-07
3852.56	5.88731e-07
3861.12	6.58937e-07
3869.67	7.29005e-07
3878.23	5.44642e-07
3886.79	4.96356e-07
3895.35	5.55475e-07
3903.9	7.85876e-07
3912.46	6.23557e-07
3921.02	9.85354e-07
3929.58	9.01427e-07
3938.13	7.79724e-07
3946.69	6.66935e-07
3955.25	8.11711e-07
3963.81	1.12916e-06
3972.37	8.36595e-07
