Infrared Spectrum: Nitrile-Acetic Acid
Formula: C H3 C N
CAS: 75-05-8
State: gas
Melting point: -45.72 C
Boiling point: 81.6 C
Class: IUPAC A
Instrument: IFS66V (Bruker)
Instrument parameters: KBr Beam splitter; MCT Detector; Multipass cell
Sampling: 1 L/min Flow
Resolution: 0.9640
Temperature: 23 C
Pressure: 101.3 kPa
Origin: NIST, Anayltical Chemistry Division, 301-975-3108
cm-1	(micromol/mol)-1m-1 (base 10)
575.169	-2.5114e-07
583.847	-6.62765e-07
592.525	-1.95102e-07
601.203	-1.14814e-07
609.882	-2.30529e-07
618.56	-9.63345e-08
627.238	-9.65439e-09
635.916	-1.58993e-07
644.594	-7.16159e-08
653.272	1.44479e-07
661.951	9.87879e-09
670.629	2.18962e-07
679.307	5.44234e-07
687.985	1.93504e-06
696.663	5.81923e-06
705.341	6.43368e-06
714.019	2.5666e-06
722.698	5.12939e-06
731.376	5.0607e-06
740.054	2.30966e-06
748.732	5.94664e-07
757.41	2.78718e-08
766.088	-8.87375e-08
774.767	-1.02781e-07
783.445	-1.32188e-07
792.123	-1.25556e-07
800.801	-7.86441e-08
809.479	-8.44665e-08
818.157	-4.58483e-08
826.835	-1.11314e-07
835.514	-1.92124e-07
844.192	-8.02983e-08
852.87	-7.72715e-08
861.548	-4.71906e-08
870.226	-1.05653e-07
878.904	1.22814e-07
887.583	7.96435e-07
896.261	2.49586e-06
904.939	4.86533e-06
913.617	4.08355e-06
922.295	1.14416e-06
930.973	4.39947e-06
939.651	2.9495e-06
948.33	5.7022e-07
957.008	1.12291e-08
965.686	1.05607e-07
974.364	2.3599e-07
983.042	6.03845e-07
991.72	1.40447e-06
1000.4	2.44395e-06
1009.08	2.27458e-06
1017.75	3.02133e-06
1026.43	1.01184e-05
1035.11	4.13293e-06
1043.79	3.92939e-06
1052.47	5.55824e-06
1061.15	3.77931e-06
1069.82	5.26146e-06
1078.5	3.38644e-06
1087.18	2.32395e-06
1095.86	1.29175e-06
1104.54	1.01472e-06
1113.21	7.12883e-07
1121.89	2.36564e-07
1130.57	1.36833e-07
1139.25	1.33283e-08
1147.93	-1.04963e-08
1156.61	-3.70269e-08
1165.28	-1.91073e-09
1173.96	-5.39603e-08
1182.64	-5.44686e-08
1191.32	-6.15391e-08
1200	-2.93856e-08
1208.67	-5.679e-09
1217.35	1.42778e-08
1226.03	2.40015e-08
1234.71	4.23876e-08
1243.39	6.56395e-08
1252.07	9.72057e-08
1260.74	1.32303e-07
1269.42	4.12737e-07
1278.1	5.89973e-07
1286.78	1.4025e-06
1295.46	3.66415e-06
1304.13	9.03209e-07
1312.81	1.37561e-06
1321.49	1.83274e-06
1330.17	3.09444e-06
1338.85	4.448e-06
1347.52	2.89334e-06
1356.2	4.18424e-06
1364.88	1.18332e-05
1373.56	1.58446e-05
1382.24	1.32531e-05
1390.92	1.91849e-05
1399.59	2.39744e-05
1408.27	3.12689e-05
1416.95	2.28222e-05
1425.63	1.83702e-05
1434.31	3.54395e-05
1442.98	1.46397e-05
1451.66	1.60995e-05
1460.34	1.28408e-05
1469.02	1.61386e-05
1477.7	1.93608e-05
1486.38	1.42959e-05
1495.05	2.65615e-05
1503.73	1.1715e-05
1512.41	9.89118e-06
1521.09	1.06262e-05
1529.77	9.67665e-06
1538.44	1.0729e-05
1547.12	6.82615e-06
1555.8	7.64117e-06
1564.48	4.93334e-06
1573.16	4.32143e-06
1581.83	2.71055e-06
1590.51	2.03835e-06
1599.19	1.35199e-06
1607.87	6.64314e-07
1616.55	2.55058e-06
1625.23	5.74915e-07
1633.9	2.5138e-07
1642.58	1.81853e-07
1651.26	2.60092e-07
1659.94	8.88477e-08
1668.62	2.92915e-07
1677.29	2.90809e-08
1685.97	1.1085e-07
1694.65	1.78605e-07
1703.33	9.07971e-08
1712.01	7.77824e-08
1720.69	1.21367e-07
1729.36	2.46476e-07
1738.04	2.39343e-07
1746.72	2.79867e-07
1755.4	2.42212e-07
1764.08	2.75923e-07
1772.75	1.34106e-06
1781.43	3.25828e-07
1790.11	3.37825e-07
1798.79	3.5771e-07
1807.47	4.73343e-07
1816.15	5.4904e-07
1824.82	7.57444e-07
1833.5	4.81228e-07
1842.18	6.66773e-07
1850.86	5.69645e-07
1859.54	3.55819e-07
1868.21	3.7913e-07
1876.89	1.65233e-07
1885.57	2.02828e-07
1894.25	2.87481e-07
1902.93	3.77441e-07
1911.6	1.7324e-07
1920.28	1.91333e-07
1928.96	1.15731e-07
1937.64	7.2401e-08
1946.32	6.49699e-08
1955	2.53706e-08
1963.67	-3.32605e-09
1972.35	2.64431e-08
1981.03	3.24243e-08
1989.71	3.44905e-09
1998.39	-4.12954e-09
2007.06	4.62564e-09
2015.74	4.0004e-09
2024.42	5.64826e-08
2033.1	3.59711e-08
2041.78	1.01187e-07
2050.46	1.50779e-07
2059.13	3.78142e-07
2067.81	3.48509e-07
2076.49	4.35761e-07
2085.17	5.47936e-07
2093.85	3.32644e-07
2102.52	1.88506e-07
2111.2	7.28812e-08
2119.88	6.71164e-08
2128.56	3.95038e-09
2137.24	7.38984e-08
2145.91	1.79187e-08
2154.59	4.88201e-08
2163.27	2.87208e-08
2171.95	6.0099e-08
2180.63	6.23196e-08
2189.31	7.59903e-08
2197.98	1.35073e-07
2206.66	1.09553e-07
2215.34	2.44418e-07
2224.02	3.77913e-07
2232.7	9.60066e-07
2241.37	2.39627e-06
2250.05	4.22647e-06
2258.73	3.45705e-06
2267.41	2.68866e-06
2276.09	6.57952e-06
2284.77	5.73316e-06
2293.44	4.03865e-06
2302.12	1.88196e-06
2310.8	4.61962e-06
2319.48	4.25253e-06
2328.16	1.60493e-06
2336.83	7.38845e-07
2345.51	6.03783e-07
2354.19	5.82315e-07
2362.87	7.4745e-07
2371.55	7.7835e-07
2380.23	1.03677e-06
2388.9	9.0183e-07
2397.58	1.12388e-06
2406.26	1.58378e-06
2414.94	1.27138e-06
2423.62	1.56593e-06
2432.29	1.50075e-06
2440.97	1.04342e-06
2449.65	8.78438e-07
2458.33	1.01454e-06
2467.01	8.0464e-07
2475.68	1.11814e-06
2484.36	9.77452e-07
2493.04	9.87377e-07
2501.72	9.03518e-07
2510.4	6.94548e-07
2519.08	5.44276e-07
2527.75	5.43906e-07
2536.43	4.43728e-07
2545.11	3.63745e-07
2553.79	4.57535e-07
2562.47	3.41653e-07
2571.14	2.58318e-07
2579.82	2.21016e-07
2588.5	4.38211e-07
2597.18	8.09504e-07
2605.86	1.2491e-06
2614.54	2.04402e-06
2623.21	3.299e-06
2631.89	1.28315e-06
2640.57	9.1065e-07
2649.25	3.92408e-07
2657.93	2.89226e-07
2666.6	3.61242e-07
2675.28	2.49702e-07
2683.96	1.77146e-07
2692.64	1.52012e-07
2701.32	7.04118e-08
2709.99	1.04652e-07
2718.67	2.96228e-07
2727.35	2.67991e-07
2736.03	4.09256e-07
2744.71	4.84307e-07
2753.39	4.7503e-07
2762.06	4.77825e-07
2770.74	1.9771e-07
2779.42	2.22172e-07
2788.1	1.26995e-07
2796.78	2.09912e-07
2805.45	2.47405e-07
2814.13	1.87313e-07
2822.81	6.69977e-07
2831.49	5.034e-07
2840.17	7.34749e-07
2848.85	1.88856e-06
2857.52	2.19422e-06
2866.2	2.21432e-06
2874.88	3.67884e-06
2883.56	4.00468e-06
2892.24	2.91115e-06
2900.91	2.91496e-06
2909.59	2.53533e-06
2918.27	2.14241e-06
2926.95	2.41699e-06
2935.63	6.15194e-06
2944.31	9.11109e-06
2952.98	5.96236e-06
2961.66	7.66579e-06
2970.34	9.64211e-06
2979.02	5.10565e-06
2987.7	2.54781e-06
2996.37	2.26123e-06
3005.05	3.69207e-06
3013.73	1.36205e-05
3022.41	1.26979e-05
3031.09	8.07629e-06
3039.76	5.51812e-06
3048.44	3.04476e-06
3057.12	2.383e-06
3065.8	1.84722e-06
3074.48	1.82e-06
3083.16	1.44735e-06
3091.83	1.25959e-06
3100.51	1.01247e-06
3109.19	8.3236e-07
3117.87	5.90005e-07
3126.55	4.71668e-07
3135.22	5.07725e-07
3143.9	6.05075e-07
3152.58	1.05384e-06
3161.26	1.9742e-06
3169.94	2.28768e-06
3178.62	3.29184e-06
3187.29	3.41172e-06
3195.97	3.10569e-06
3204.65	8.49055e-07
3213.33	5.48298e-07
3222.01	9.44566e-07
3230.68	8.94628e-07
3239.36	3.11164e-07
3248.04	2.30974e-07
3256.72	2.13399e-07
3265.4	1.96065e-07
3274.07	1.77384e-07
3282.75	1.43668e-07
3291.43	1.92563e-07
3300.11	2.70066e-07
3308.79	2.43088e-07
3317.47	3.50387e-07
3326.14	2.69431e-07
3334.82	3.03771e-07
3343.5	3.15198e-07
3352.18	3.49631e-07
3360.86	3.91721e-07
3369.53	2.97709e-07
3378.21	3.91878e-07
3386.89	4.27853e-07
3395.57	3.48918e-07
3404.25	3.33339e-07
3412.93	3.15869e-07
3421.6	3.38509e-07
3430.28	2.98734e-07
3438.96	3.20048e-07
3447.64	3.32588e-07
3456.32	1.57032e-07
3464.99	2.49158e-07
3473.67	2.14101e-07
3482.35	2.09352e-07
3491.03	2.0084e-07
3499.71	2.87298e-07
3508.39	2.9647e-07
3517.06	3.03986e-07
3525.74	2.90129e-07
3534.42	3.54756e-07
3543.1	3.12544e-07
3551.78	3.08307e-07
3560.45	3.21977e-07
3569.13	3.51504e-07
3577.81	2.7872e-07
3586.49	6.38187e-07
3595.17	4.15591e-07
3603.84	3.25865e-07
3612.52	7.51287e-07
3621.2	4.65921e-07
3629.88	1.16023e-06
3638.56	4.88412e-07
3647.24	1.09662e-06
3655.91	1.06805e-06
3664.59	5.25969e-07
3673.27	5.70266e-07
3681.95	6.7232e-07
3690.63	7.22482e-07
3699.3	4.80469e-07
3707.98	4.72227e-07
3716.66	4.69206e-07
3725.34	5.67065e-07
3734.02	5.40517e-07
3742.7	4.61006e-07
3751.37	7.15111e-07
3760.05	7.68037e-07
3768.73	4.1999e-07
3777.41	3.85652e-07
3786.09	4.61371e-07
3794.76	4.16673e-07
3803.44	5.02522e-07
3812.12	4.07696e-07
3820.8	1.08164e-06
3829.48	4.84614e-07
3838.16	1.67931e-06
3846.83	4.73163e-07
3855.51	5.34027e-07
3864.19	7.63332e-07
3872.87	4.88008e-07
3881.55	6.10516e-07
3890.22	5.68518e-07
3898.9	8.84796e-07
3907.58	6.16826e-07
3916.26	8.53349e-07
3924.94	9.87105e-07
3933.61	7.8555e-07
3942.29	9.02181e-07
3950.97	7.98343e-07
3959.65	8.55391e-07
3968.33	9.67756e-07
