Infrared Spectrum: Dichloromethane
Formula: C H2 Cl2
CAS: 75-09-2
State: gas
Melting point: -95.1 C
Boiling point: 40 C
Class: IUPAC A
Instrument: IFS66V (Bruker)
Instrument parameters: KBr Beam Splitter; MCT Detector; Multipass cell
Sampling: 1 L/min Flow
Resolution: 0.2410
Temperature: 23 C
Pressure: 101.3 Pa
Origin: NIST, Analytical Chemistry Division, 301-975-3108
cm-1	(micromol/mol)-1m-1 (base 10)
575.05	-2.79932e-07
583.608	2.27381e-07
592.165	2.24499e-07
600.723	-6.48009e-07
609.281	-6.531e-07
617.838	2.67845e-08
626.396	-3.52756e-07
634.954	6.35607e-07
643.511	5.76758e-07
652.069	8.35167e-07
660.626	1.93747e-06
669.184	5.00173e-06
677.742	9.80206e-06
686.299	1.5953e-05
694.857	2.41492e-05
703.415	3.37322e-05
711.972	3.03699e-05
720.53	6.27913e-05
729.088	6.60679e-05
737.645	0.000193753
746.203	0.000691145
754.761	0.000663352
763.318	0.000720466
771.876	0.000257136
780.434	9.59348e-06
788.991	3.89835e-07
797.549	2.95067e-07
806.106	4.65497e-07
814.664	1.29119e-07
823.222	1.55817e-07
831.779	1.59265e-07
840.337	-2.40042e-08
848.895	-6.79571e-09
857.452	1.18321e-07
866.01	5.5688e-07
874.568	1.19369e-06
883.125	1.85469e-06
891.683	2.77723e-06
900.241	3.28998e-06
908.798	3.50587e-06
917.356	3.10711e-06
925.914	2.37793e-06
934.471	1.67031e-06
943.029	7.67937e-07
951.586	4.75997e-07
960.144	1.15476e-07
968.702	2.97368e-07
977.259	3.08542e-07
985.817	3.07147e-07
994.375	3.39968e-07
1002.93	3.87911e-07
1011.49	1.28784e-07
1020.05	1.68941e-07
1028.61	2.59433e-07
1037.16	2.65537e-07
1045.72	3.62073e-07
1054.28	-3.5763e-08
1062.84	-2.02272e-07
1071.39	-9.73855e-08
1079.95	-1.02055e-07
1088.51	1.00227e-07
1097.07	-1.1522e-07
1105.62	2.31192e-08
1114.18	-1.18123e-07
1122.74	-2.63951e-07
1131.3	-1.53877e-08
1139.85	-2.4488e-08
1148.41	-1.54891e-07
1156.97	-1.22727e-07
1165.53	-4.83139e-08
1174.09	-3.21696e-08
1182.64	1.29309e-07
1191.2	1.74247e-07
1199.76	-7.54358e-08
1208.32	-1.03098e-07
1216.87	9.34246e-08
1225.43	7.9835e-09
1233.99	2.03135e-07
1242.55	3.00536e-06
1251.1	4.86555e-05
1259.66	0.000211062
1268.22	0.000280954
1276.78	0.000239834
1285.33	3.45407e-05
1293.89	6.74222e-07
1302.45	-8.27518e-08
1311.01	1.31115e-07
1319.57	1.42326e-08
1328.12	3.22196e-08
1336.68	-5.55189e-08
1345.24	5.95771e-08
1353.8	3.42059e-07
1362.35	-1.99253e-07
1370.91	-2.86362e-08
1379.47	-3.66988e-08
1388.03	1.57515e-08
1396.58	3.69198e-08
1405.14	3.50689e-07
1413.7	5.43002e-07
1422.26	1.15153e-06
1430.81	1.2884e-06
1439.37	2.08181e-06
1447.93	3.74438e-06
1456.49	6.58396e-06
1465.05	7.55072e-06
1473.6	7.65479e-06
1482.16	4.7544e-07
1490.72	1.3981e-07
1499.28	1.37309e-07
1507.83	-6.39481e-08
1516.39	4.70315e-08
1524.95	2.38696e-08
1533.51	-2.08601e-08
1542.06	1.71473e-07
1550.62	3.59876e-07
1559.18	4.76519e-07
1567.74	-1.41035e-08
1576.29	-2.02697e-07
1584.85	6.47402e-08
1593.41	6.00309e-08
1601.97	7.15941e-08
1610.53	2.81805e-08
1619.08	1.60995e-07
1627.64	-3.93727e-08
1636.2	-6.98306e-08
1644.76	-1.21548e-07
1653.31	-3.78561e-07
1661.87	1.86445e-08
1670.43	-9.22223e-10
1678.99	-7.18779e-08
1687.54	-7.467e-08
1696.1	-2.02794e-07
1704.66	4.68533e-08
1713.22	7.25809e-08
1721.77	7.52221e-08
1730.33	5.83565e-08
1738.89	3.20559e-08
1747.45	-7.45518e-08
1756.01	-9.36502e-08
1764.56	5.14144e-08
1773.12	-3.82695e-08
1781.68	8.33247e-08
1790.24	1.10632e-07
1798.79	9.62459e-08
1807.35	-2.10429e-08
1815.91	-2.48664e-08
1824.47	-4.20084e-08
1833.02	5.01365e-08
1841.58	-3.32882e-08
1850.14	5.06722e-08
1858.7	-4.59292e-09
1867.25	-6.45183e-08
1875.81	-2.32184e-08
1884.37	-4.05669e-08
1892.93	8.73638e-08
1901.49	2.62861e-08
1910.04	-1.52976e-09
1918.6	2.72911e-08
1927.16	-4.63804e-08
1935.72	-6.40063e-08
1944.27	-1.23049e-07
1952.83	-1.00804e-07
1961.39	-6.86665e-10
1969.95	1.02262e-07
1978.5	2.05217e-07
1987.06	3.40857e-07
1995.62	-3.07562e-08
2004.18	5.50314e-08
2012.73	6.38144e-08
2021.29	7.64617e-08
2029.85	-1.37524e-08
2038.41	1.3378e-07
2046.97	5.90708e-07
2055.52	6.42693e-07
2064.08	7.10013e-07
2072.64	3.27059e-07
2081.2	1.14687e-08
2089.75	2.63561e-08
2098.31	4.81557e-08
2106.87	6.58371e-08
2115.43	-1.8248e-08
2123.98	5.37509e-10
2132.54	1.84992e-07
2141.1	2.32467e-07
2149.66	2.09546e-07
2158.21	1.21417e-07
2166.77	4.57862e-07
2175.33	4.71691e-07
2183.89	4.03809e-07
2192.45	2.71228e-07
2201	5.13371e-08
2209.56	7.39897e-08
2218.12	-2.37968e-08
2226.68	2.22243e-08
2235.23	-2.2016e-08
2243.79	1.44193e-07
2252.35	1.33228e-07
2260.91	1.26816e-07
2269.46	2.99551e-07
2278.02	5.18717e-07
2286.58	8.8313e-07
2295.14	1.24689e-06
2303.69	1.74338e-06
2312.25	1.75082e-06
2320.81	2.59787e-06
2329.37	1.74778e-06
2337.93	2.22546e-06
2346.48	9.90925e-07
2355.04	9.32801e-07
2363.6	7.16162e-07
2372.16	4.5514e-07
2380.71	3.81454e-07
2389.27	2.38777e-07
2397.83	1.97159e-07
2406.39	4.02936e-07
2414.94	8.28683e-07
2423.5	2.19743e-07
2432.06	1.99639e-07
2440.62	3.42022e-07
2449.17	1.64314e-07
2457.73	7.79842e-08
2466.29	1.40528e-07
2474.85	-1.13807e-07
2483.41	-3.07571e-08
2491.96	5.99663e-08
2500.52	8.52929e-08
2509.08	-3.93991e-09
2517.64	-2.35506e-07
2526.19	-3.10716e-07
2534.75	-3.60879e-07
2543.31	-3.2529e-07
2551.87	-6.3092e-07
2560.42	-3.96553e-07
2568.98	-1.63395e-07
2577.54	-3.47971e-09
2586.1	8.6729e-09
2594.65	3.35747e-08
2603.21	4.43658e-08
2611.77	-2.0368e-08
2620.33	4.57292e-09
2628.89	-8.10628e-08
2637.44	-8.16531e-08
2646	1.28033e-07
2654.56	-3.14665e-08
2663.12	-2.4961e-08
2671.67	3.38641e-07
2680.23	3.66609e-07
2688.79	2.04724e-06
2697.35	1.72301e-06
2705.9	2.93192e-06
2714.46	6.93911e-07
2723.02	-1.71512e-08
2731.58	-8.14739e-08
2740.13	7.64908e-08
2748.69	6.5365e-09
2757.25	1.31237e-07
2765.81	6.46493e-08
2774.37	-5.07359e-08
2782.92	-9.75064e-08
2791.48	4.01767e-08
2800.04	7.34704e-08
2808.6	2.13728e-07
2817.15	1.90598e-07
2825.71	3.83404e-07
2834.27	8.64493e-07
2842.83	1.23716e-06
2851.38	8.49927e-07
2859.94	1.15369e-06
2868.5	8.6079e-07
2877.06	6.39423e-07
2885.61	2.46373e-07
2894.17	9.40695e-08
2902.73	7.13486e-08
2911.29	1.77619e-07
2919.85	1.93417e-07
2928.4	2.77119e-07
2936.96	5.33333e-07
2945.52	1.48597e-06
2954.08	2.87439e-06
2962.63	4.81921e-06
2971.19	1.21783e-05
2979.75	1.45746e-05
2988.31	2.52845e-05
2996.86	1.15327e-05
3005.42	2.87072e-05
3013.98	1.97065e-05
3022.54	1.24189e-05
3031.09	7.09409e-06
3039.65	4.04201e-06
3048.21	1.89686e-06
3056.77	7.21739e-07
3065.33	3.83303e-07
3073.88	2.87121e-07
3082.44	-2.05445e-08
3091	-1.6785e-07
3099.56	-1.99302e-07
3108.11	-7.86964e-08
3116.67	1.41168e-07
3125.23	1.45874e-07
3133.79	8.56139e-08
3142.34	9.30727e-08
3150.9	4.31326e-08
3159.46	-1.83162e-08
3168.02	-1.30329e-07
3176.57	1.55914e-08
3185.13	-1.48399e-07
3193.69	1.69047e-07
3202.25	3.15957e-08
3210.81	-4.29898e-08
3219.36	1.5214e-07
3227.92	-1.38845e-07
3236.48	-5.9346e-08
3245.04	-8.61414e-08
3253.59	9.42759e-08
3262.15	-9.07089e-08
3270.71	3.65542e-08
3279.27	1.71039e-08
3287.82	1.64148e-07
3296.38	1.05499e-07
3304.94	-1.24799e-07
3313.5	-1.56334e-07
3322.05	1.71128e-07
3330.61	5.58318e-08
3339.17	-5.03794e-08
3347.73	-1.04906e-07
3356.29	-1.26628e-07
3364.84	-1.39408e-07
3373.4	-2.04542e-07
3381.96	7.91284e-08
3390.52	-5.86094e-08
3399.07	-7.96249e-08
3407.63	1.81755e-07
3416.19	1.06142e-07
3424.75	-1.20024e-07
3433.3	-6.48194e-09
3441.86	2.89727e-08
3450.42	1.19771e-08
3458.98	1.75313e-08
3467.53	-1.89295e-07
3476.09	-5.38782e-08
3484.65	-1.4984e-07
3493.21	1.0511e-08
3501.77	-3.8013e-08
3510.32	-2.25672e-08
3518.88	-2.89692e-07
3527.44	8.59195e-08
3536	-2.04417e-07
3544.55	1.88115e-07
3553.11	1.61417e-07
3561.67	1.7203e-07
3570.23	8.42142e-08
3578.78	-4.46569e-08
3587.34	-9.1703e-08
3595.9	6.84046e-08
3604.46	6.6822e-08
3613.01	-3.0306e-08
3621.57	-1.09484e-08
3630.13	-1.60085e-07
3638.69	-5.39937e-08
3647.25	-8.4729e-08
3655.8	9.37648e-08
3664.36	1.35506e-07
3672.92	9.57693e-09
3681.48	1.76541e-07
3690.03	3.80424e-07
3698.59	4.50547e-07
3707.15	5.86095e-07
3715.71	8.03865e-07
3724.26	7.42976e-07
3732.82	6.24441e-07
3741.38	5.88186e-07
3749.94	6.34491e-07
3758.49	7.82375e-07
3767.05	6.57061e-07
3775.61	1.9583e-07
3784.17	3.28778e-07
3792.73	7.70556e-08
3801.28	-4.96909e-08
3809.84	1.95032e-07
3818.4	-1.70318e-07
3826.96	-9.01459e-08
3835.51	7.7725e-09
3844.07	2.45869e-07
3852.63	-6.11832e-08
3861.19	-4.53854e-08
3869.74	-1.36853e-07
3878.3	-2.60074e-07
3886.86	-1.65033e-07
3895.42	2.641e-07
3903.97	-1.1309e-07
3912.53	4.02968e-08
3921.09	2.732e-07
3929.65	2.51993e-07
3938.21	4.30767e-07
3946.76	3.78453e-07
3955.32	5.53816e-07
3963.88	4.82519e-07
3972.44	3.00616e-07
