Infrared Spectrum: Nitrile-Acetic Acid
Formula: C H3 C N
CAS: 75-05-8
State: gas
Melting point: -45.72 C
Boiling point: 81.6 C
Class: IUPAC A
Instrument: IFS66V (Bruker)
Instrument parameters: KBr Beam splitter; MCT Detector; Multipass cell
Sampling: 1 L/min Flow
Resolution: 0.1250
Temperature: 23 C
Pressure: 101.3 kPa
Origin: NIST, Anayltical Chemistry Division, 301-975-3108
cm-1	(micromol/mol)-1m-1 (base 10)
574.988	-8.61437e-07
583.546	5.02053e-07
592.103	-1.00164e-06
600.661	2.33277e-07
609.219	-4.10858e-09
617.776	-2.09968e-07
626.334	-2.66484e-07
634.891	-4.39847e-08
643.449	1.44332e-07
652.007	2.06323e-07
660.564	-9.97554e-08
669.122	-2.90431e-07
677.68	2.10765e-07
686.237	1.50483e-06
694.795	5.12616e-06
703.352	8.01655e-06
711.91	3.42819e-06
720.468	4.85596e-06
729.025	6.42317e-06
737.583	2.76734e-06
746.141	9.68108e-07
754.698	1.73183e-07
763.256	7.72922e-09
771.813	-1.93114e-07
780.371	-1.06254e-07
788.929	-1.51836e-07
797.486	-2.57383e-08
806.044	-8.27531e-08
814.602	-2.13459e-07
823.159	-7.56528e-08
831.717	-8.807e-08
840.274	5.01096e-08
848.832	-1.64197e-07
857.39	-7.99592e-08
865.947	-4.29252e-08
874.505	-1.52975e-09
883.063	2.32651e-07
891.62	1.23897e-06
900.178	3.11719e-06
908.735	6.92033e-06
917.293	2.45756e-06
925.851	2.13575e-06
934.408	4.30158e-06
942.966	1.77037e-06
951.524	1.01896e-07
960.081	-2.59766e-08
968.639	1.78505e-07
977.196	2.53049e-07
985.754	7.70949e-07
994.312	1.17647e-06
1002.87	2.59393e-06
1011.43	2.7117e-06
1019.98	3.34123e-06
1028.54	3.34466e-06
1037.1	4.94043e-06
1045.66	4.64841e-06
1054.22	3.66271e-06
1062.77	4.33396e-06
1071.33	3.33997e-06
1079.89	2.98738e-06
1088.45	4.3791e-06
1097	1.00856e-06
1105.56	9.86252e-07
1114.12	5.62438e-07
1122.68	1.5872e-07
1131.23	1.8954e-07
1139.79	-3.49663e-08
1148.35	-9.21358e-08
1156.91	-1.2193e-07
1165.46	5.14843e-08
1174.02	-9.46923e-08
1182.58	-1.29924e-07
1191.14	-2.66801e-08
1199.69	-3.86797e-08
1208.25	-1.24258e-08
1216.81	1.76846e-07
1225.37	-5.09836e-08
1233.93	-2.26738e-08
1242.48	5.95277e-08
1251.04	8.70077e-08
1259.6	1.0934e-07
1268.16	4.27924e-07
1276.71	4.76809e-07
1285.27	1.62589e-06
1293.83	6.59476e-07
1302.39	1.17398e-06
1310.94	1.64808e-06
1319.5	1.30137e-06
1328.06	3.45784e-06
1336.62	1.17764e-05
1345.17	3.66968e-06
1353.73	3.00642e-06
1362.29	8.23291e-06
1370.85	1.43528e-05
1379.4	1.49838e-05
1387.96	1.7562e-05
1396.52	2.60112e-05
1405.08	2.10337e-05
1413.64	1.65489e-05
1422.19	5.48184e-05
1430.75	1.36081e-05
1439.31	1.61668e-05
1447.87	1.54891e-05
1456.42	1.64828e-05
1464.98	2.72972e-05
1473.54	1.69176e-05
1482.1	6.89354e-05
1490.65	1.40511e-05
1499.21	3.41395e-05
1507.77	1.33252e-05
1516.33	9.6485e-06
1524.88	1.01421e-05
1533.44	9.05768e-06
1542	1.80437e-05
1550.56	9.38406e-06
1559.11	4.34287e-06
1567.67	8.60853e-06
1576.23	8.03878e-06
1584.79	1.77549e-06
1593.35	1.69249e-06
1601.9	1.50254e-06
1610.46	7.33091e-07
1619.02	5.70298e-07
1627.58	1.19835e-06
1636.13	4.8726e-07
1644.69	1.95531e-07
1653.25	5.14742e-06
1661.81	1.72365e-07
1670.36	6.68481e-08
1678.92	3.21451e-08
1687.48	2.17916e-08
1696.04	3.34068e-06
1704.59	4.66148e-07
1713.15	-1.43866e-08
1721.71	1.6707e-07
1730.27	2.82282e-07
1738.83	3.91903e-07
1747.38	2.33956e-07
1755.94	3.22772e-07
1764.5	3.09403e-07
1773.06	6.9679e-07
1781.61	3.16516e-07
1790.17	4.17751e-07
1798.73	3.26336e-07
1807.29	4.20569e-07
1815.84	5.165e-07
1824.4	5.81327e-07
1832.96	4.29607e-07
1841.52	6.86102e-07
1850.07	7.64129e-07
1858.63	3.43426e-07
1867.19	3.11763e-07
1875.75	2.51241e-07
1884.3	2.25517e-07
1892.86	4.04313e-07
1901.42	4.15262e-07
1909.98	3.56278e-07
1918.54	2.57241e-07
1927.09	1.38557e-07
1935.65	1.54136e-07
1944.21	-2.07662e-08
1952.77	8.86125e-08
1961.32	-7.92203e-09
1969.88	4.18993e-08
1978.44	1.92323e-08
1987	5.14416e-08
1995.55	-4.59756e-08
2004.11	1.18892e-08
2012.67	-6.13917e-08
2021.23	2.61203e-08
2029.78	9.99064e-09
2038.34	6.85025e-08
2046.9	1.14416e-07
2055.46	3.66317e-07
2064.01	4.95717e-07
2072.57	7.82544e-08
2081.13	4.45779e-07
2089.69	4.45813e-07
2098.25	2.7619e-07
2106.8	1.13626e-08
2115.36	-5.75819e-08
2123.92	5.0442e-08
2132.48	3.70613e-09
2141.03	7.09931e-08
2149.59	8.51805e-08
2158.15	4.01285e-08
2166.71	-1.53943e-08
2175.26	1.0475e-07
2183.82	-2.60798e-08
2192.38	8.85115e-08
2200.94	1.36042e-07
2209.49	1.59897e-07
2218.05	1.68088e-07
2226.61	5.49041e-07
2235.17	1.61025e-06
2243.72	3.63798e-06
2252.28	5.90259e-06
2260.84	3.09195e-06
2269.4	3.2621e-06
2277.96	6.45184e-06
2286.51	5.32732e-06
2295.07	3.28507e-06
2303.63	2.46963e-06
2312.19	5.40593e-06
2320.74	3.706e-06
2329.3	1.416e-06
2337.86	7.16649e-07
2346.42	4.79377e-07
2354.97	5.75187e-07
2363.53	6.16962e-07
2372.09	7.51858e-07
2380.65	9.07022e-07
2389.2	8.34416e-07
2397.76	1.20614e-06
2406.32	1.60963e-06
2414.88	1.2859e-06
2423.44	1.52709e-06
2431.99	1.4876e-06
2440.55	1.04615e-06
2449.11	9.89676e-07
2457.67	1.19634e-06
2466.22	8.32794e-07
2474.78	8.99462e-07
2483.34	1.00961e-06
2491.9	1.56216e-06
2500.45	7.23242e-07
2509.01	6.92916e-07
2517.57	5.63828e-07
2526.13	5.07164e-07
2534.68	7.04342e-07
2543.24	5.22695e-07
2551.8	3.62754e-07
2560.36	2.51297e-07
2568.91	3.07634e-07
2577.47	3.29045e-07
2586.03	3.79315e-07
2594.59	6.85637e-07
2603.15	1.17818e-06
2611.7	1.79868e-06
2620.26	3.77558e-06
2628.82	1.20831e-06
2637.38	1.06495e-06
2645.93	3.19826e-07
2654.49	2.2472e-07
2663.05	4.47503e-07
2671.61	1.14311e-07
2680.16	2.20984e-07
2688.72	2.33016e-07
2697.28	7.50435e-08
2705.84	1.58015e-07
2714.39	1.98658e-07
2722.95	2.88798e-07
2731.51	5.10633e-07
2740.07	4.28475e-07
2748.62	4.30525e-07
2757.18	7.25383e-07
2765.74	2.84109e-07
2774.3	2.71155e-07
2782.86	3.17447e-07
2791.41	1.89082e-07
2799.97	7.90311e-08
2808.53	4.9542e-07
2817.09	2.76565e-07
2825.64	5.5455e-07
2834.2	7.30063e-07
2842.76	8.96487e-07
2851.32	2.05243e-06
2859.87	2.33626e-06
2868.43	3.78205e-06
2876.99	4.10085e-06
2885.55	3.01097e-06
2894.1	2.82133e-06
2902.66	2.82385e-06
2911.22	2.70571e-06
2919.78	2.35252e-06
2928.34	3.65578e-06
2936.89	6.72504e-06
2945.45	9.0835e-06
2954.01	1.32873e-05
2962.57	8.47569e-06
2971.12	8.90137e-06
2979.68	4.41566e-06
2988.24	2.06741e-06
2996.8	2.30164e-06
3005.35	2.86781e-06
3013.91	5.78686e-06
3022.47	3.16935e-05
3031.03	8.50429e-06
3039.58	3.41984e-06
3048.14	2.83514e-06
3056.7	2.18064e-06
3065.26	1.52103e-06
3073.81	1.73325e-06
3082.37	1.27475e-06
3090.93	1.0848e-06
3099.49	7.69398e-07
3108.05	3.38683e-07
3116.6	3.66053e-07
3125.16	4.38003e-07
3133.72	-1.80286e-08
3142.28	3.8242e-07
3150.83	7.36547e-07
3159.39	1.54068e-06
3167.95	2.52963e-06
3176.51	1.20685e-06
3185.06	2.77234e-06
3193.62	3.70913e-06
3202.18	1.33745e-06
3210.74	5.78876e-07
3219.29	8.37868e-07
3227.85	1.03913e-06
3236.41	3.65736e-07
3244.97	3.15884e-07
3253.52	3.13515e-07
3262.08	5.68657e-08
3270.64	3.00354e-07
3279.2	8.84483e-08
3287.76	2.36419e-07
3296.31	3.40429e-07
3304.87	3.76787e-07
3313.43	2.223e-07
3321.99	2.26549e-07
3330.54	5.5681e-07
3339.1	3.64892e-07
3347.66	4.32889e-07
3356.22	5.78581e-07
3364.77	4.47486e-07
3373.33	1.30822e-07
3381.89	2.84196e-07
3390.45	4.77659e-07
3399	4.32165e-07
3407.56	2.42488e-07
3416.12	4.46104e-07
3424.68	3.63983e-07
3433.23	8.5151e-08
3441.79	3.03383e-07
3450.35	2.27625e-07
3458.91	4.04709e-07
3467.47	2.52235e-07
3476.02	1.72748e-07
3484.58	1.73668e-07
3493.14	8.65679e-08
3501.7	3.64551e-07
3510.25	4.08271e-07
3518.81	1.99921e-07
3527.37	4.01305e-07
3535.93	3.46209e-07
3544.48	2.10217e-07
3553.04	2.63911e-07
3561.6	3.8952e-07
3570.16	2.12554e-07
3578.71	1.60638e-07
3587.27	4.09825e-07
3595.83	2.92131e-07
3604.39	2.89696e-07
3612.95	5.87867e-07
3621.5	3.68234e-07
3630.06	4.98101e-07
3638.62	4.04812e-07
3647.18	1.39462e-06
3655.73	7.97682e-07
3664.29	3.98298e-07
3672.85	5.19997e-07
3681.41	5.64154e-07
3689.96	5.53322e-07
3698.52	3.70025e-07
3707.08	5.72939e-07
3715.64	3.8216e-07
3724.19	4.13255e-07
3732.75	6.3751e-07
3741.31	9.72916e-07
3749.87	6.84621e-07
3758.42	4.65688e-07
3766.98	4.86872e-07
3775.54	4.1644e-07
3784.1	3.48282e-07
3792.66	3.53475e-07
3801.21	1.49988e-06
3809.77	3.76668e-07
3818.33	5.25075e-07
3826.89	7.536e-07
3835.44	4.26548e-07
3844	5.84833e-07
3852.56	5.86874e-07
3861.12	6.59728e-07
3869.67	7.26725e-07
3878.23	5.46136e-07
3886.79	4.96431e-07
3895.35	5.55294e-07
3903.9	7.84701e-07
3912.46	6.21846e-07
3921.02	9.86421e-07
3929.58	9.01613e-07
3938.13	7.77131e-07
3946.69	6.66284e-07
3955.25	8.12199e-07
3963.81	1.13445e-06
3972.37	8.34979e-07
