Infrared Spectrum: Nitrile-Acetic Acid
Formula: C H3 C N
CAS: 75-05-8
State: gas
Melting point: -45.72 C
Boiling point: 81.6 C
Class: IUPAC A
Instrument: IFS66V (Bruker)
Instrument parameters: KBr Beam splitter; MCT Detector; Multipass cell
Sampling: 1 L/min Flow
Resolution: 0.2410
Temperature: 23 C
Pressure: 101.3 kPa
Origin: NIST, Anayltical Chemistry Division, 301-975-3108
cm-1	(micromol/mol)-1m-1 (base 10)
575.048	-6.50136e-07
583.606	6.85939e-07
592.163	-7.74054e-07
600.721	-4.71064e-07
609.279	4.35456e-07
617.836	-3.58787e-07
626.394	-2.23444e-07
634.951	1.01253e-07
643.509	4.47626e-07
652.067	3.84226e-07
660.624	-2.2024e-07
669.182	-8.29387e-08
677.74	1.81132e-07
686.297	1.65561e-06
694.855	5.16839e-06
703.412	8.07593e-06
711.97	3.21685e-06
720.528	4.66474e-06
729.085	6.04118e-06
737.643	2.72033e-06
746.201	8.09375e-07
754.758	1.76712e-07
763.316	-4.42007e-10
771.873	-1.82509e-07
780.431	-7.74222e-08
788.989	-1.9582e-08
797.546	-1.86943e-07
806.104	2.42486e-08
814.662	-1.52742e-07
823.219	-2.6842e-07
831.777	-2.51862e-07
840.334	-2.19189e-08
848.892	2.95872e-08
857.45	-7.85704e-08
866.007	-3.02056e-08
874.565	2.8263e-08
883.123	1.93547e-07
891.68	1.42052e-06
900.238	3.39282e-06
908.795	6.45656e-06
917.353	2.384e-06
925.911	2.14757e-06
934.468	4.62345e-06
943.026	1.85161e-06
951.584	6.91941e-08
960.141	-1.61369e-08
968.699	1.55965e-07
977.256	1.28205e-07
985.814	8.27414e-07
994.372	1.18943e-06
1002.93	2.50486e-06
1011.49	2.40992e-06
1020.04	3.75935e-06
1028.6	3.50868e-06
1037.16	4.2066e-06
1045.72	4.74171e-06
1054.28	3.66883e-06
1062.83	4.53573e-06
1071.39	3.13712e-06
1079.95	2.7277e-06
1088.51	5.40902e-06
1097.06	9.81526e-07
1105.62	1.07456e-06
1114.18	5.36307e-07
1122.74	2.02797e-07
1131.29	1.52881e-07
1139.85	-7.44205e-08
1148.41	-2.99906e-08
1156.97	-2.32099e-07
1165.52	8.16749e-08
1174.08	-1.40914e-07
1182.64	-1.23793e-07
1191.2	-1.62565e-07
1199.75	-7.04438e-08
1208.31	-7.59416e-09
1216.87	7.15402e-08
1225.43	-6.05791e-08
1233.99	3.89621e-09
1242.54	6.84384e-10
1251.1	9.84699e-08
1259.66	3.70768e-08
1268.22	4.71846e-07
1276.77	4.09548e-07
1285.33	1.91394e-06
1293.89	6.52395e-07
1302.45	1.01419e-06
1311	1.77181e-06
1319.56	1.49219e-06
1328.12	3.59032e-06
1336.68	1.26558e-05
1345.23	3.54111e-06
1353.79	3.29775e-06
1362.35	8.80527e-06
1370.91	1.55688e-05
1379.46	1.4608e-05
1388.02	1.83916e-05
1396.58	2.59579e-05
1405.14	2.17432e-05
1413.7	1.68489e-05
1422.25	6.23549e-05
1430.81	1.4139e-05
1439.37	1.60879e-05
1447.93	1.55817e-05
1456.48	1.89826e-05
1465.04	2.51288e-05
1473.6	1.52477e-05
1482.16	8.94516e-05
1490.71	1.469e-05
1499.27	3.07459e-05
1507.83	1.5077e-05
1516.39	8.68829e-06
1524.94	9.7576e-06
1533.5	8.86482e-06
1542.06	1.71686e-05
1550.62	9.65707e-06
1559.18	4.80056e-06
1567.73	8.07674e-06
1576.29	6.14517e-06
1584.85	2.02497e-06
1593.41	1.57805e-06
1601.96	1.56713e-06
1610.52	5.58053e-07
1619.08	5.8972e-07
1627.64	1.16478e-06
1636.19	5.96559e-07
1644.75	1.51791e-07
1653.31	5.3047e-06
1661.87	1.78255e-07
1670.42	1.32325e-07
1678.98	8.19355e-08
1687.54	-1.74447e-08
1696.1	1.51768e-06
1704.65	2.76065e-07
1713.21	-5.15821e-08
1721.77	2.03513e-07
1730.33	2.57481e-07
1738.89	3.8878e-07
1747.44	2.01253e-07
1756	3.62673e-07
1764.56	2.64923e-07
1773.12	5.86726e-07
1781.67	3.3981e-07
1790.23	3.43969e-07
1798.79	3.36413e-07
1807.35	4.06641e-07
1815.9	5.20685e-07
1824.46	5.09866e-07
1833.02	4.11644e-07
1841.58	6.69044e-07
1850.13	7.28335e-07
1858.69	3.86941e-07
1867.25	3.0576e-07
1875.81	2.17547e-07
1884.36	1.80123e-07
1892.92	4.09115e-07
1901.48	4.36932e-07
1910.04	2.76672e-07
1918.6	2.77675e-07
1927.15	1.28391e-07
1935.71	8.598e-08
1944.27	-3.17595e-08
1952.83	1.0728e-07
1961.38	3.17181e-09
1969.94	1.10691e-07
1978.5	-2.22782e-08
1987.06	7.60462e-08
1995.61	-9.72871e-09
2004.17	-1.59023e-08
2012.73	-4.23345e-08
2021.29	-8.00797e-10
2029.84	6.81655e-09
2038.4	1.20942e-07
2046.96	1.08145e-07
2055.52	3.15983e-07
2064.08	5.30352e-07
2072.63	3.98025e-08
2081.19	5.01388e-07
2089.75	5.64635e-07
2098.31	2.99009e-07
2106.86	-2.31481e-08
2115.42	-4.98877e-08
2123.98	-2.68538e-08
2132.54	3.62642e-08
2141.09	8.97261e-08
2149.65	1.31993e-08
2158.21	8.9255e-08
2166.77	-1.34603e-09
2175.32	8.97793e-08
2183.88	-1.58163e-08
2192.44	7.63558e-08
2201	9.84967e-08
2209.55	1.29612e-07
2218.11	1.71001e-07
2226.67	5.28729e-07
2235.23	1.58393e-06
2243.79	3.32283e-06
2252.34	5.55993e-06
2260.9	3.43109e-06
2269.46	3.26332e-06
2278.02	7.08104e-06
2286.57	5.3261e-06
2295.13	3.12143e-06
2303.69	2.40361e-06
2312.25	5.2301e-06
2320.8	3.68145e-06
2329.36	1.38943e-06
2337.92	6.31728e-07
2346.48	4.07563e-07
2355.03	6.22867e-07
2363.59	6.2098e-07
2372.15	8.4683e-07
2380.71	8.90455e-07
2389.26	8.38266e-07
2397.82	1.21549e-06
2406.38	1.65311e-06
2414.94	1.29106e-06
2423.5	1.53623e-06
2432.05	1.53935e-06
2440.61	9.44406e-07
2449.17	9.96008e-07
2457.73	1.17671e-06
2466.28	8.61279e-07
2474.84	8.14626e-07
2483.4	1.03157e-06
2491.96	1.50796e-06
2500.51	7.49487e-07
2509.07	7.14101e-07
2517.63	5.44537e-07
2526.19	4.78345e-07
2534.74	7.48903e-07
2543.3	4.52176e-07
2551.86	3.42054e-07
2560.42	1.67034e-07
2568.98	3.03191e-07
2577.53	3.29768e-07
2586.09	4.38373e-07
2594.65	6.3757e-07
2603.21	1.23905e-06
2611.76	1.87119e-06
2620.32	3.76593e-06
2628.88	1.10155e-06
2637.44	1.09912e-06
2645.99	3.86425e-07
2654.55	2.06593e-07
2663.11	4.56483e-07
2671.67	1.77033e-07
2680.22	2.08079e-07
2688.78	1.96336e-07
2697.34	9.26515e-08
2705.9	2.42284e-07
2714.45	2.10382e-07
2723.01	2.73783e-07
2731.57	4.19431e-07
2740.13	4.31655e-07
2748.69	4.11872e-07
2757.24	6.13902e-07
2765.8	3.53725e-07
2774.36	3.94782e-07
2782.92	3.417e-07
2791.47	1.63686e-07
2800.03	8.62883e-08
2808.59	5.09131e-07
2817.15	3.68792e-07
2825.7	3.83698e-07
2834.26	7.14191e-07
2842.82	9.11115e-07
2851.38	2.17959e-06
2859.93	2.3642e-06
2868.49	4.27835e-06
2877.05	3.95803e-06
2885.61	3.12794e-06
2894.16	2.97374e-06
2902.72	2.95364e-06
2911.28	2.53837e-06
2919.84	2.34879e-06
2928.4	3.63573e-06
2936.95	6.73435e-06
2945.51	8.47048e-06
2954.07	1.18934e-05
2962.63	8.60969e-06
2971.18	8.75134e-06
2979.74	4.50136e-06
2988.3	2.04555e-06
2996.86	1.64372e-06
3005.41	2.42663e-06
3013.97	5.65922e-06
3022.53	2.99674e-05
3031.09	8.40243e-06
3039.64	4.15562e-06
3048.2	2.81985e-06
3056.76	1.87355e-06
3065.32	1.572e-06
3073.88	1.60554e-06
3082.43	1.31935e-06
3090.99	1.11201e-06
3099.55	8.4603e-07
3108.11	3.71931e-07
3116.66	3.87805e-07
3125.22	3.82442e-07
3133.78	5.54419e-09
3142.34	5.11412e-07
3150.89	7.73624e-07
3159.45	1.82102e-06
3168.01	2.97376e-06
3176.57	1.31401e-06
3185.12	2.45012e-06
3193.68	3.85409e-06
3202.24	1.29696e-06
3210.8	5.30377e-07
3219.35	8.33159e-07
3227.91	1.15655e-06
3236.47	2.39905e-07
3245.03	2.16372e-07
3253.59	1.86718e-07
3262.14	2.12815e-07
3270.7	2.19124e-07
3279.26	8.75857e-08
3287.82	2.76294e-07
3296.37	3.18074e-07
3304.93	3.38995e-07
3313.49	2.86322e-07
3322.05	2.78569e-07
3330.6	6.44058e-07
3339.16	2.51516e-07
3347.72	4.06341e-07
3356.28	5.61625e-07
3364.83	3.83884e-07
3373.39	1.07249e-07
3381.95	3.49964e-07
3390.51	5.5361e-07
3399.06	2.52731e-07
3407.62	2.27166e-07
3416.18	3.89523e-07
3424.74	4.32003e-07
3433.3	6.25245e-08
3441.85	2.30678e-07
3450.41	1.52882e-07
3458.97	2.75989e-07
3467.53	3.51478e-07
3476.08	2.89466e-07
3484.64	1.47664e-07
3493.2	1.26045e-07
3501.76	3.10417e-07
3510.31	3.08612e-07
3518.87	2.87994e-07
3527.43	4.31645e-07
3535.99	2.87241e-07
3544.54	1.15244e-07
3553.1	1.22804e-07
3561.66	3.5634e-07
3570.22	1.38107e-07
3578.78	2.94019e-07
3587.33	3.39542e-07
3595.89	3.04596e-07
3604.45	1.10773e-07
3613.01	5.95507e-07
3621.56	3.24676e-07
3630.12	3.25239e-07
3638.68	3.9505e-07
3647.24	1.44937e-06
3655.79	8.20096e-07
3664.35	3.26094e-07
3672.91	3.82696e-07
3681.47	4.53136e-07
3690.02	6.50079e-07
3698.58	3.55428e-07
3707.14	5.46856e-07
3715.7	2.70633e-07
3724.25	3.47356e-07
3732.81	5.35283e-07
3741.37	7.78002e-07
3749.93	6.6163e-07
3758.49	4.26438e-07
3767.04	3.6721e-07
3775.6	5.3964e-07
3784.16	4.05797e-07
3792.72	2.95078e-07
3801.27	2.22237e-06
3809.83	3.69937e-07
3818.39	6.48599e-07
3826.95	5.31743e-07
3835.5	3.59685e-07
3844.06	4.27513e-07
3852.62	7.08662e-07
3861.18	7.05908e-07
3869.73	7.29722e-07
3878.29	4.89637e-07
3886.85	5.09932e-07
3895.41	6.43716e-07
3903.96	9.25199e-07
3912.52	6.43161e-07
3921.08	8.42982e-07
3929.64	9.87505e-07
3938.2	8.47594e-07
3946.75	5.46447e-07
3955.31	7.70117e-07
3963.87	8.28998e-07
3972.43	7.82221e-07
