Infrared Spectrum: Nitrile-Acetic Acid
Formula: C H3 C N
CAS: 75-05-8
State: gas
Melting point: -45.72 C
Boiling point: 81.6 C
Class: IUPAC A
Instrument: IFS66V (Bruker)
Instrument parameters: KBr Beam splitter; MCT Detector; Multipass cell
Sampling: 1 L/min Flow
Resolution: 0.1250
Temperature: 23 C
Pressure: 101.3 kPa
Origin: NIST, Anayltical Chemistry Division, 301-975-3108
cm-1	(micromol/mol)-1m-1 (base 10)
574.988	-6.98278e-07
583.546	2.95451e-07
592.103	-8.85603e-07
600.661	1.65584e-07
609.219	-2.81671e-08
617.776	-1.34719e-07
626.334	-2.23433e-07
634.891	-6.48432e-08
643.449	1.80857e-07
652.007	1.53744e-07
660.564	-8.59836e-08
669.122	-2.65161e-07
677.68	2.76578e-07
686.237	1.53339e-06
694.795	5.13841e-06
703.352	7.95175e-06
711.91	3.36914e-06
720.468	4.79224e-06
729.025	6.31939e-06
737.583	2.78434e-06
746.141	9.56938e-07
754.698	1.9299e-07
763.256	1.13653e-08
771.813	-2.08465e-07
780.371	-1.16041e-07
788.929	-1.24372e-07
797.486	-4.23313e-08
806.044	-1.06829e-07
814.602	-2.14959e-07
823.159	-9.37501e-08
831.717	-1.26871e-07
840.274	3.10424e-08
848.832	-1.50853e-07
857.39	-9.08848e-08
865.947	-4.70465e-08
874.505	-1.8869e-08
883.063	2.39018e-07
891.62	1.26246e-06
900.178	3.13535e-06
908.735	6.77709e-06
917.293	2.45862e-06
925.851	2.17992e-06
934.408	4.31829e-06
942.966	1.78302e-06
951.524	1.16978e-07
960.081	-3.51205e-08
968.639	1.69868e-07
977.196	2.53719e-07
985.754	7.68059e-07
994.312	1.22095e-06
1002.87	2.57271e-06
1011.43	2.76749e-06
1019.98	3.37065e-06
1028.54	3.35773e-06
1037.1	5.06397e-06
1045.66	4.62492e-06
1054.22	3.71494e-06
1062.77	4.32193e-06
1071.33	3.31946e-06
1079.89	2.9729e-06
1088.45	4.35596e-06
1097	1.00478e-06
1105.56	9.83819e-07
1114.12	5.52473e-07
1122.68	1.70867e-07
1131.23	1.72536e-07
1139.79	-3.8632e-08
1148.35	-8.7542e-08
1156.91	-1.24266e-07
1165.46	4.03745e-08
1174.02	-8.75747e-08
1182.58	-1.23534e-07
1191.14	-3.66711e-08
1199.69	-4.22817e-08
1208.25	-1.53379e-08
1216.81	1.52896e-07
1225.37	-5.53487e-08
1233.93	-2.01668e-08
1242.48	4.72211e-08
1251.04	8.73769e-08
1259.6	1.20236e-07
1268.16	4.44055e-07
1276.71	4.90581e-07
1285.27	1.62538e-06
1293.83	6.52693e-07
1302.39	1.17393e-06
1310.94	1.66696e-06
1319.5	1.32288e-06
1328.06	3.40819e-06
1336.62	1.17726e-05
1345.17	3.64114e-06
1353.73	3.03808e-06
1362.29	8.2424e-06
1370.85	1.44571e-05
1379.4	1.4914e-05
1387.96	1.76458e-05
1396.52	2.59567e-05
1405.08	2.08483e-05
1413.64	1.66787e-05
1422.19	5.54551e-05
1430.75	1.35775e-05
1439.31	1.61778e-05
1447.87	1.55526e-05
1456.42	1.6589e-05
1464.98	2.71795e-05
1473.54	1.67641e-05
1482.1	6.85366e-05
1490.65	1.40069e-05
1499.21	3.40792e-05
1507.77	1.33209e-05
1516.33	9.63383e-06
1524.88	1.0008e-05
1533.44	9.16455e-06
1542	1.79211e-05
1550.56	9.28017e-06
1559.11	4.36418e-06
1567.67	8.63302e-06
1576.23	7.91819e-06
1584.79	1.81039e-06
1593.35	1.67003e-06
1601.9	1.50615e-06
1610.46	7.16356e-07
1619.02	5.64513e-07
1627.58	1.19077e-06
1636.13	4.85208e-07
1644.69	1.89397e-07
1653.25	4.91847e-06
1661.81	1.7758e-07
1670.36	7.34214e-08
1678.92	3.90431e-08
1687.48	1.13012e-08
1696.04	3.45278e-06
1704.59	5.04527e-07
1713.15	-1.05809e-08
1721.71	1.63532e-07
1730.27	3.03103e-07
1738.83	3.86381e-07
1747.38	2.3599e-07
1755.94	3.09251e-07
1764.5	2.97468e-07
1773.06	7.02969e-07
1781.61	3.14422e-07
1790.17	4.04042e-07
1798.73	3.29203e-07
1807.29	4.2193e-07
1815.84	5.15831e-07
1824.4	5.73637e-07
1832.96	4.19555e-07
1841.52	6.80934e-07
1850.07	7.48566e-07
1858.63	3.50972e-07
1867.19	3.06578e-07
1875.75	2.53637e-07
1884.3	2.13803e-07
1892.86	3.9471e-07
1901.42	4.11831e-07
1909.98	3.45079e-07
1918.54	2.53813e-07
1927.09	1.36079e-07
1935.65	1.40401e-07
1944.21	-1.21775e-08
1952.77	8.52724e-08
1961.32	-6.74107e-09
1969.88	4.30061e-08
1978.44	1.94497e-08
1987	5.88479e-08
1995.55	-4.02486e-08
2004.11	1.6046e-08
2012.67	-4.97331e-08
2021.23	1.55862e-08
2029.78	1.10147e-08
2038.34	7.84376e-08
2046.9	1.26038e-07
2055.46	3.6997e-07
2064.01	4.86407e-07
2072.57	7.73331e-08
2081.13	4.72343e-07
2089.69	4.49876e-07
2098.25	2.73261e-07
2106.8	1.64079e-08
2115.36	-3.96065e-08
2123.92	4.69369e-08
2132.48	-1.5402e-09
2141.03	6.81687e-08
2149.59	7.19658e-08
2158.15	4.86431e-08
2166.71	-7.06211e-09
2175.26	1.04955e-07
2183.82	-1.95697e-08
2192.38	9.51407e-08
2200.94	1.29556e-07
2209.49	1.48924e-07
2218.05	1.73692e-07
2226.61	5.51618e-07
2235.17	1.60263e-06
2243.72	3.61144e-06
2252.28	5.77493e-06
2260.84	3.11295e-06
2269.4	3.24392e-06
2277.96	6.48756e-06
2286.51	5.3252e-06
2295.07	3.30398e-06
2303.63	2.45712e-06
2312.19	5.3783e-06
2320.74	3.70162e-06
2329.3	1.39981e-06
2337.86	7.26593e-07
2346.42	4.83525e-07
2354.97	5.81848e-07
2363.53	6.06822e-07
2372.09	7.52931e-07
2380.65	8.95583e-07
2389.2	8.30326e-07
2397.76	1.21195e-06
2406.32	1.61158e-06
2414.88	1.2817e-06
2423.44	1.53149e-06
2431.99	1.48079e-06
2440.55	1.036e-06
2449.11	9.8714e-07
2457.67	1.18687e-06
2466.22	8.32454e-07
2474.78	9.07686e-07
2483.34	1.01955e-06
2491.9	1.57428e-06
2500.45	7.24605e-07
2509.01	6.93535e-07
2517.57	5.74747e-07
2526.13	5.09347e-07
2534.68	6.9777e-07
2543.24	5.24029e-07
2551.8	3.50486e-07
2560.36	2.64074e-07
2568.91	2.92844e-07
2577.47	3.12144e-07
2586.03	3.88029e-07
2594.59	6.8319e-07
2603.15	1.18537e-06
2611.7	1.80553e-06
2620.26	3.76248e-06
2628.82	1.21121e-06
2637.38	1.08235e-06
2645.93	3.39633e-07
2654.49	2.14011e-07
2663.05	4.46479e-07
2671.61	1.18264e-07
2680.16	2.32661e-07
2688.72	2.3928e-07
2697.28	7.06721e-08
2705.84	1.53077e-07
2714.39	1.88148e-07
2722.95	2.88718e-07
2731.51	4.81998e-07
2740.07	4.24104e-07
2748.62	4.25949e-07
2757.18	7.13083e-07
2765.74	2.8032e-07
2774.3	2.82179e-07
2782.86	2.9886e-07
2791.41	1.85223e-07
2799.97	8.83542e-08
2808.53	5.07674e-07
2817.09	2.92562e-07
2825.64	5.31935e-07
2834.2	7.13991e-07
2842.76	9.04446e-07
2851.32	2.04634e-06
2859.87	2.35196e-06
2868.43	3.8198e-06
2876.99	4.11164e-06
2885.55	2.99599e-06
2894.1	2.80869e-06
2902.66	2.85453e-06
2911.22	2.72653e-06
2919.78	2.35473e-06
2928.34	3.69264e-06
2936.89	6.75701e-06
2945.45	9.21325e-06
2954.01	1.27147e-05
2962.57	8.49239e-06
2971.12	8.91292e-06
2979.68	4.43343e-06
2988.24	2.0931e-06
2996.8	2.28089e-06
3005.35	2.8852e-06
3013.91	5.83675e-06
3022.47	2.98753e-05
3031.03	8.19613e-06
3039.58	3.38083e-06
3048.14	2.80789e-06
3056.7	2.1735e-06
3065.26	1.55862e-06
3073.81	1.72874e-06
3082.37	1.25193e-06
3090.93	1.07126e-06
3099.49	7.73094e-07
3108.05	3.80606e-07
3116.6	3.88388e-07
3125.16	4.35546e-07
3133.72	1.34257e-08
3142.28	4.03619e-07
3150.83	7.47441e-07
3159.39	1.56838e-06
3167.95	2.53586e-06
3176.51	1.22263e-06
3185.06	2.73042e-06
3193.62	3.74548e-06
3202.18	1.28478e-06
3210.74	5.81628e-07
3219.29	8.37663e-07
3227.85	1.07982e-06
3236.41	3.7036e-07
3244.97	3.01373e-07
3253.52	3.0781e-07
3262.08	5.5953e-08
3270.64	2.82139e-07
3279.2	1.19424e-07
3287.76	2.2832e-07
3296.31	3.06807e-07
3304.87	3.72311e-07
3313.43	2.28464e-07
3321.99	2.35695e-07
3330.54	5.51029e-07
3339.1	3.56553e-07
3347.66	4.12336e-07
3356.22	5.77819e-07
3364.77	4.34617e-07
3373.33	1.30423e-07
3381.89	3.25412e-07
3390.45	4.57445e-07
3399	4.21916e-07
3407.56	2.63233e-07
3416.12	4.4746e-07
3424.68	3.36862e-07
3433.23	1.14061e-07
3441.79	3.13581e-07
3450.35	2.34365e-07
3458.91	3.56078e-07
3467.47	2.76742e-07
3476.02	1.87469e-07
3484.58	1.92916e-07
3493.14	9.79915e-08
3501.7	3.2863e-07
3510.25	3.8571e-07
3518.81	1.93435e-07
3527.37	3.95898e-07
3535.93	3.48968e-07
3544.48	2.09501e-07
3553.04	2.75439e-07
3561.6	3.83001e-07
3570.16	2.23447e-07
3578.71	1.76458e-07
3587.27	3.93669e-07
3595.83	2.85625e-07
3604.39	2.86773e-07
3612.95	5.68759e-07
3621.5	3.86999e-07
3630.06	4.81407e-07
3638.62	4.1275e-07
3647.18	1.37004e-06
3655.73	7.86855e-07
3664.29	4.19386e-07
3672.85	4.91643e-07
3681.41	5.88642e-07
3689.96	5.62627e-07
3698.52	3.90455e-07
3707.08	5.433e-07
3715.64	3.67897e-07
3724.19	3.84967e-07
3732.75	6.15301e-07
3741.31	9.42635e-07
3749.87	7.03863e-07
3758.42	4.51042e-07
3766.98	4.82105e-07
3775.54	4.22149e-07
3784.1	3.42194e-07
3792.66	3.51307e-07
3801.21	1.55922e-06
3809.77	3.76657e-07
3818.33	5.24687e-07
3826.89	7.48554e-07
3835.44	4.34219e-07
3844	5.80313e-07
3852.56	6.21657e-07
3861.12	6.32707e-07
3869.67	7.40958e-07
3878.23	5.35416e-07
3886.79	4.96677e-07
3895.35	5.63787e-07
3903.9	8.12512e-07
3912.46	6.40612e-07
3921.02	9.61322e-07
3929.58	8.95075e-07
3938.13	7.7876e-07
3946.69	6.59959e-07
3955.25	8.00462e-07
3963.81	1.07405e-06
3972.37	8.3091e-07
