Infrared Spectrum: Nitrile-Acetic Acid
Formula: C H3 C N
CAS: 75-05-8
State: gas
Melting point: -45.72 C
Boiling point: 81.6 C
Class: IUPAC A
Instrument: IFS66V (Bruker)
Instrument parameters: KBr Beam splitter; MCT Detector; Multipass cell
Sampling: 1 L/min Flow
Resolution: 0.1250
Temperature: 23 C
Pressure: 101.3 kPa
Origin: NIST, Anayltical Chemistry Division, 301-975-3108
cm-1	(micromol/mol)-1m-1 (base 10)
574.988	-8.59054e-07
583.546	4.15318e-07
592.103	-9.40933e-07
600.661	1.89329e-07
609.219	1.07182e-09
617.776	-2.06075e-07
626.334	-2.49669e-07
634.891	-5.14338e-08
643.449	1.2424e-07
652.007	1.88858e-07
660.564	-8.02784e-08
669.122	-2.56483e-07
677.68	2.09626e-07
686.237	1.49155e-06
694.795	5.0881e-06
703.352	7.88332e-06
711.91	3.43466e-06
720.468	4.77355e-06
729.025	6.32327e-06
737.583	2.79782e-06
746.141	9.65086e-07
754.698	1.67438e-07
763.256	6.0967e-09
771.813	-1.846e-07
780.371	-1.03573e-07
788.929	-1.47792e-07
797.486	-4.51511e-08
806.044	-8.49759e-08
814.602	-2.02518e-07
823.159	-8.89067e-08
831.717	-8.08878e-08
840.274	2.84886e-08
848.832	-1.74016e-07
857.39	-8.36176e-08
865.947	-5.44133e-08
874.505	1.13048e-09
883.063	2.38476e-07
891.62	1.27024e-06
900.178	3.17592e-06
908.735	6.70634e-06
917.293	2.45741e-06
925.851	2.19575e-06
934.408	4.2975e-06
942.966	1.77903e-06
951.524	1.15473e-07
960.081	-1.96939e-08
968.639	1.73141e-07
977.196	2.64447e-07
985.754	7.74156e-07
994.312	1.23822e-06
1002.87	2.54988e-06
1011.43	2.82295e-06
1019.98	3.49345e-06
1028.54	3.38338e-06
1037.1	5.41589e-06
1045.66	4.63703e-06
1054.22	3.8304e-06
1062.77	4.35494e-06
1071.33	3.3932e-06
1079.89	2.98978e-06
1088.45	4.33195e-06
1097	1.03946e-06
1105.56	9.88342e-07
1114.12	5.44141e-07
1122.68	1.66924e-07
1131.23	1.84811e-07
1139.79	-2.84231e-08
1148.35	-7.82849e-08
1156.91	-1.07525e-07
1165.46	4.41857e-08
1174.02	-8.94756e-08
1182.58	-1.18625e-07
1191.14	-2.72244e-08
1199.69	-3.8878e-08
1208.25	-1.47886e-08
1216.81	1.66812e-07
1225.37	-3.81686e-08
1233.93	-2.10522e-08
1242.48	6.44658e-08
1251.04	8.71068e-08
1259.6	1.12646e-07
1268.16	4.37647e-07
1276.71	4.81095e-07
1285.27	1.63762e-06
1293.83	6.71502e-07
1302.39	1.17039e-06
1310.94	1.65386e-06
1319.5	1.33473e-06
1328.06	3.41607e-06
1336.62	1.16768e-05
1345.17	3.65276e-06
1353.73	3.13941e-06
1362.29	8.26187e-06
1370.85	1.44179e-05
1379.4	1.50579e-05
1387.96	1.77397e-05
1396.52	2.59701e-05
1405.08	2.08371e-05
1413.64	1.67854e-05
1422.19	5.49753e-05
1430.75	1.36166e-05
1439.31	1.62698e-05
1447.87	1.57931e-05
1456.42	1.65498e-05
1464.98	2.74344e-05
1473.54	1.67825e-05
1482.1	6.71772e-05
1490.65	1.39838e-05
1499.21	3.38615e-05
1507.77	1.33274e-05
1516.33	9.78314e-06
1524.88	1.00313e-05
1533.44	9.46502e-06
1542	1.77858e-05
1550.56	9.18975e-06
1559.11	4.4181e-06
1567.67	8.71961e-06
1576.23	7.76198e-06
1584.79	1.84331e-06
1593.35	1.68503e-06
1601.9	1.51629e-06
1610.46	7.26141e-07
1619.02	5.85776e-07
1627.58	1.17108e-06
1636.13	5.20808e-07
1644.69	1.97865e-07
1653.25	4.82469e-06
1661.81	1.7197e-07
1670.36	8.00911e-08
1678.92	3.64961e-08
1687.48	3.33252e-08
1696.04	3.15804e-06
1704.59	4.56453e-07
1713.15	2.25597e-09
1721.71	1.67339e-07
1730.27	2.92843e-07
1738.83	3.83964e-07
1747.38	2.42713e-07
1755.94	3.19639e-07
1764.5	3.09964e-07
1773.06	7.25173e-07
1781.61	3.17409e-07
1790.17	4.1324e-07
1798.73	3.2995e-07
1807.29	4.24162e-07
1815.84	5.20603e-07
1824.4	5.86406e-07
1832.96	4.32341e-07
1841.52	6.85324e-07
1850.07	7.48709e-07
1858.63	3.46821e-07
1867.19	3.11084e-07
1875.75	2.46224e-07
1884.3	2.31074e-07
1892.86	3.99381e-07
1901.42	4.13755e-07
1909.98	3.43356e-07
1918.54	2.66911e-07
1927.09	1.39371e-07
1935.65	1.44949e-07
1944.21	-1.23466e-08
1952.77	8.75884e-08
1961.32	-3.3005e-09
1969.88	3.81099e-08
1978.44	1.67544e-08
1987	4.78855e-08
1995.55	-4.24727e-08
2004.11	1.00675e-08
2012.67	-5.53187e-08
2021.23	2.36456e-08
2029.78	6.63829e-09
2038.34	6.41629e-08
2046.9	1.18457e-07
2055.46	3.61803e-07
2064.01	4.87911e-07
2072.57	8.37135e-08
2081.13	4.41299e-07
2089.69	4.44362e-07
2098.25	2.73034e-07
2106.8	1.72842e-08
2115.36	-4.47983e-08
2123.92	4.67004e-08
2132.48	6.00393e-09
2141.03	6.62597e-08
2149.59	7.43764e-08
2158.15	4.20475e-08
2166.71	-7.59007e-09
2175.26	1.00566e-07
2183.82	-1.96484e-08
2192.38	8.62501e-08
2200.94	1.33549e-07
2209.49	1.53097e-07
2218.05	1.69272e-07
2226.61	5.45668e-07
2235.17	1.57306e-06
2243.72	3.55409e-06
2252.28	5.71624e-06
2260.84	3.15154e-06
2269.4	3.25999e-06
2277.96	6.49409e-06
2286.51	5.31223e-06
2295.07	3.31546e-06
2303.63	2.47586e-06
2312.19	5.3544e-06
2320.74	3.71533e-06
2329.3	1.42453e-06
2337.86	7.3814e-07
2346.42	4.82733e-07
2354.97	5.75526e-07
2363.53	6.24363e-07
2372.09	7.58685e-07
2380.65	9.0324e-07
2389.2	8.43481e-07
2397.76	1.19898e-06
2406.32	1.60263e-06
2414.88	1.28439e-06
2423.44	1.52629e-06
2431.99	1.48099e-06
2440.55	1.04275e-06
2449.11	9.89655e-07
2457.67	1.18416e-06
2466.22	8.33751e-07
2474.78	9.01528e-07
2483.34	1.00915e-06
2491.9	1.54466e-06
2500.45	7.23095e-07
2509.01	6.99526e-07
2517.57	5.6163e-07
2526.13	5.10015e-07
2534.68	6.86728e-07
2543.24	5.15677e-07
2551.8	3.67407e-07
2560.36	2.55293e-07
2568.91	3.05204e-07
2577.47	3.25382e-07
2586.03	3.81806e-07
2594.59	6.86422e-07
2603.15	1.17314e-06
2611.7	1.7968e-06
2620.26	3.71281e-06
2628.82	1.21945e-06
2637.38	1.07748e-06
2645.93	3.29534e-07
2654.49	2.28661e-07
2663.05	4.46631e-07
2671.61	1.17742e-07
2680.16	2.20192e-07
2688.72	2.20829e-07
2697.28	7.63827e-08
2705.84	1.56098e-07
2714.39	1.91431e-07
2722.95	2.86164e-07
2731.51	5.03205e-07
2740.07	4.25296e-07
2748.62	4.34381e-07
2757.18	7.22946e-07
2765.74	2.92976e-07
2774.3	2.58223e-07
2782.86	3.17922e-07
2791.41	1.90501e-07
2799.97	8.08764e-08
2808.53	4.91362e-07
2817.09	2.79054e-07
2825.64	5.46817e-07
2834.2	7.31979e-07
2842.76	8.94725e-07
2851.32	2.04333e-06
2859.87	2.3262e-06
2868.43	3.82736e-06
2876.99	4.10192e-06
2885.55	3.0291e-06
2894.1	2.82288e-06
2902.66	2.84294e-06
2911.22	2.69151e-06
2919.78	2.35194e-06
2928.34	3.66838e-06
2936.89	6.74562e-06
2945.45	9.12674e-06
2954.01	1.27738e-05
2962.57	8.46516e-06
2971.12	8.95674e-06
2979.68	4.47591e-06
2988.24	2.09652e-06
2996.8	2.28009e-06
3005.35	2.93321e-06
3013.91	6.04498e-06
3022.47	2.94615e-05
3031.03	8.23839e-06
3039.58	3.5158e-06
3048.14	2.82386e-06
3056.7	2.18664e-06
3065.26	1.55032e-06
3073.81	1.7405e-06
3082.37	1.26638e-06
3090.93	1.0837e-06
3099.49	7.81239e-07
3108.05	3.4113e-07
3116.6	3.68683e-07
3125.16	4.27898e-07
3133.72	-1.83988e-09
3142.28	3.99483e-07
3150.83	7.60203e-07
3159.39	1.5701e-06
3167.95	2.51328e-06
3176.51	1.22842e-06
3185.06	2.74523e-06
3193.62	3.71493e-06
3202.18	1.32152e-06
3210.74	5.76127e-07
3219.29	8.34987e-07
3227.85	1.03632e-06
3236.41	3.79639e-07
3244.97	3.09419e-07
3253.52	2.99211e-07
3262.08	7.13446e-08
3270.64	2.90471e-07
3279.2	9.55231e-08
3287.76	2.32645e-07
3296.31	3.32836e-07
3304.87	3.69619e-07
3313.43	2.32357e-07
3321.99	2.43732e-07
3330.54	5.47713e-07
3339.1	3.7418e-07
3347.66	4.32012e-07
3356.22	5.59365e-07
3364.77	4.40872e-07
3373.33	1.55904e-07
3381.89	3.01445e-07
3390.45	4.70668e-07
3399	4.21213e-07
3407.56	2.48329e-07
3416.12	4.35313e-07
3424.68	3.65703e-07
3433.23	1.07065e-07
3441.79	3.01817e-07
3450.35	2.33255e-07
3458.91	3.99132e-07
3467.47	2.509e-07
3476.02	1.83039e-07
3484.58	1.7529e-07
3493.14	1.04786e-07
3501.7	3.58095e-07
3510.25	3.94416e-07
3518.81	2.1856e-07
3527.37	3.97768e-07
3535.93	3.40208e-07
3544.48	2.18348e-07
3553.04	2.68618e-07
3561.6	3.70363e-07
3570.16	2.13829e-07
3578.71	1.71749e-07
3587.27	4.17415e-07
3595.83	2.97622e-07
3604.39	2.88082e-07
3612.95	5.96744e-07
3621.5	3.68756e-07
3630.06	5.35348e-07
3638.62	4.12444e-07
3647.18	1.35058e-06
3655.73	7.98908e-07
3664.29	4.06954e-07
3672.85	5.35049e-07
3681.41	5.66427e-07
3689.96	5.6415e-07
3698.52	3.80473e-07
3707.08	5.67635e-07
3715.64	3.97597e-07
3724.19	4.2045e-07
3732.75	6.43314e-07
3741.31	9.28073e-07
3749.87	7.33985e-07
3758.42	4.66213e-07
3766.98	4.78093e-07
3775.54	4.1997e-07
3784.1	3.56528e-07
3792.66	3.64028e-07
3801.21	1.53631e-06
3809.77	3.84397e-07
3818.33	5.2508e-07
3826.89	7.48166e-07
3835.44	4.50672e-07
3844	6.04896e-07
3852.56	6.28293e-07
3861.12	6.6089e-07
3869.67	7.64633e-07
3878.23	5.44538e-07
3886.79	4.98798e-07
3895.35	5.54485e-07
3903.9	8.0544e-07
3912.46	6.27886e-07
3921.02	9.7678e-07
3929.58	9.03708e-07
3938.13	7.91127e-07
3946.69	6.83444e-07
3955.25	8.26513e-07
3963.81	1.10999e-06
3972.37	8.52848e-07
