Infrared Spectrum: Dichloromethane
Formula: C H2 Cl2
CAS: 75-09-2
State: gas
Melting point: -95.1 C
Boiling point: 40 C
Class: IUPAC A
Instrument: IFS66V (Bruker)
Instrument parameters: KBr Beam Splitter; MCT Detector; Multipass cell
Sampling: 1 L/min Flow
Resolution: 0.2410
Temperature: 23 C
Pressure: 101.3 Pa
Origin: NIST, Analytical Chemistry Division, 301-975-3108
cm-1	(micromol/mol)-1m-1 (base 10)
575.05	-2.75262e-07
583.608	2.60585e-07
592.165	2.06163e-07
600.723	-7.4396e-07
609.281	-7.28921e-07
617.838	-1.78724e-08
626.396	-3.92139e-07
634.954	5.98522e-07
643.511	5.85207e-07
652.069	7.93711e-07
660.626	1.88206e-06
669.184	4.94068e-06
677.742	9.75427e-06
686.299	1.58814e-05
694.857	2.40547e-05
703.415	3.35925e-05
711.972	3.00072e-05
720.53	6.2777e-05
729.088	6.52808e-05
737.645	0.000193003
746.203	0.000693091
754.761	0.000662813
763.318	0.000723615
771.876	0.000256461
780.434	8.69962e-06
788.991	2.88417e-08
797.549	7.88955e-08
806.106	3.48897e-07
814.664	5.27222e-08
823.222	9.26652e-08
831.779	1.31224e-07
840.337	-8.39186e-08
848.895	-3.94864e-08
857.452	8.2388e-08
866.01	5.51967e-07
874.568	1.17231e-06
883.125	1.82088e-06
891.683	2.80105e-06
900.241	3.26288e-06
908.798	3.52938e-06
917.356	3.064e-06
925.914	2.35264e-06
934.471	1.68003e-06
943.029	7.37244e-07
951.586	4.77489e-07
960.144	9.24196e-08
968.702	2.82224e-07
977.259	2.99093e-07
985.817	2.9192e-07
994.375	3.41118e-07
1002.93	3.83006e-07
1011.49	1.10083e-07
1020.05	1.57256e-07
1028.61	2.52029e-07
1037.16	2.71887e-07
1045.72	3.57338e-07
1054.28	-5.45212e-08
1062.84	-2.09845e-07
1071.39	-9.81158e-08
1079.95	-1.0246e-07
1088.51	9.26261e-08
1097.07	-1.27254e-07
1105.62	2.97994e-08
1114.18	-1.35097e-07
1122.74	-2.88971e-07
1131.3	-3.89917e-08
1139.85	-1.62862e-08
1148.41	-1.72235e-07
1156.97	-1.4315e-07
1165.53	-5.42311e-08
1174.09	-4.01112e-08
1182.64	1.20286e-07
1191.2	1.71486e-07
1199.76	-9.7681e-08
1208.32	-1.22498e-07
1216.87	7.43708e-08
1225.43	-4.40812e-08
1233.99	1.14483e-07
1242.55	2.81647e-06
1251.1	4.83599e-05
1259.66	0.000212073
1268.22	0.000290744
1276.78	0.000241186
1285.33	3.40908e-05
1293.89	4.98142e-07
1302.45	-1.68048e-07
1311.01	9.28016e-08
1319.57	-1.50512e-08
1328.12	1.35223e-08
1336.68	-7.91638e-08
1345.24	4.84849e-08
1353.8	3.67565e-07
1362.35	-2.09949e-07
1370.91	-4.3269e-08
1379.47	-4.92216e-08
1388.03	1.29711e-08
1396.58	2.93301e-08
1405.14	3.52859e-07
1413.7	5.42376e-07
1422.26	1.18405e-06
1430.81	1.28255e-06
1439.37	2.07076e-06
1447.93	3.72415e-06
1456.49	6.58735e-06
1465.05	7.5968e-06
1473.6	7.68273e-06
1482.16	4.38056e-07
1490.72	1.27724e-07
1499.28	1.31309e-07
1507.83	-6.59699e-08
1516.39	5.49759e-08
1524.95	2.35876e-08
1533.51	-3.21277e-08
1542.06	1.49975e-07
1550.62	3.59219e-07
1559.18	4.85307e-07
1567.74	-2.22425e-08
1576.29	-2.21288e-07
1584.85	6.94123e-08
1593.41	6.85692e-08
1601.97	7.00244e-08
1610.53	2.30829e-08
1619.08	1.72301e-07
1627.64	-4.87523e-08
1636.2	-6.18098e-08
1644.76	-1.22972e-07
1653.31	-4.01344e-07
1661.87	2.41661e-08
1670.43	3.84896e-09
1678.99	-7.467e-08
1687.54	-7.67455e-08
1696.1	-2.14373e-07
1704.66	4.65322e-08
1713.22	7.97723e-08
1721.77	7.57423e-08
1730.33	6.49294e-08
1738.89	3.02151e-08
1747.45	-8.5292e-08
1756.01	-9.63668e-08
1764.56	5.01165e-08
1773.12	-4.37146e-08
1781.68	8.9552e-08
1790.24	1.19977e-07
1798.79	1.02231e-07
1807.35	-2.29273e-08
1815.91	-2.77904e-08
1824.47	-4.10162e-08
1833.02	6.15952e-08
1841.58	-3.76665e-08
1850.14	5.95443e-08
1858.7	-2.50383e-09
1867.25	-6.67002e-08
1875.81	-2.34239e-08
1884.37	-3.68634e-08
1892.93	9.91635e-08
1901.49	3.31718e-08
1910.04	-7.40325e-09
1918.6	3.66306e-08
1927.16	-4.83067e-08
1935.72	-6.57252e-08
1944.27	-1.26481e-07
1952.83	-1.08179e-07
1961.39	-8.37004e-09
1969.95	9.24524e-08
1978.5	1.94786e-07
1987.06	3.46564e-07
1995.62	-4.11626e-08
2004.18	5.27941e-08
2012.73	5.80782e-08
2021.29	7.69738e-08
2029.85	-2.07546e-08
2038.41	1.34792e-07
2046.97	5.87525e-07
2055.52	6.46043e-07
2064.08	7.14399e-07
2072.64	3.27138e-07
2081.2	1.47974e-08
2089.75	2.97158e-08
2098.31	5.05849e-08
2106.87	6.73423e-08
2115.43	-3.62277e-08
2123.98	-2.98313e-10
2132.54	1.84355e-07
2141.1	2.30969e-07
2149.66	2.01242e-07
2158.21	1.07856e-07
2166.77	4.66601e-07
2175.33	4.70423e-07
2183.89	3.99567e-07
2192.45	2.76293e-07
2201	4.28524e-08
2209.56	7.68737e-08
2218.12	-2.93538e-08
2226.68	2.06218e-08
2235.23	-3.05389e-08
2243.79	1.44875e-07
2252.35	1.24247e-07
2260.91	1.21824e-07
2269.46	3.01215e-07
2278.02	5.2292e-07
2286.58	8.81151e-07
2295.14	1.23735e-06
2303.69	1.73761e-06
2312.25	1.73174e-06
2320.81	2.54379e-06
2329.37	1.68661e-06
2337.93	2.23383e-06
2346.48	9.49775e-07
2355.04	8.84339e-07
2363.6	6.48013e-07
2372.16	4.1342e-07
2380.71	3.93425e-07
2389.27	2.43207e-07
2397.83	1.89611e-07
2406.39	4.0875e-07
2414.94	8.29431e-07
2423.5	2.11288e-07
2432.06	1.92846e-07
2440.62	3.54544e-07
2449.17	1.66127e-07
2457.73	8.34202e-08
2466.29	1.53465e-07
2474.85	-1.33727e-07
2483.41	-3.31036e-08
2491.96	6.31432e-08
2500.52	1.00731e-07
2509.08	1.58251e-09
2517.64	-2.26475e-07
2526.19	-3.09219e-07
2534.75	-3.69922e-07
2543.31	-3.3514e-07
2551.87	-6.44841e-07
2560.42	-4.0672e-07
2568.98	-1.64623e-07
2577.54	3.78348e-10
2586.1	5.86985e-09
2594.65	4.22949e-08
2603.21	4.28188e-08
2611.77	-1.8771e-08
2620.33	1.16597e-09
2628.89	-8.09382e-08
2637.44	-8.98958e-08
2646	1.26003e-07
2654.56	-2.84243e-08
2663.12	-2.82378e-08
2671.67	3.61119e-07
2680.23	3.56764e-07
2688.79	2.04978e-06
2697.35	1.70715e-06
2705.9	2.94535e-06
2714.46	6.92828e-07
2723.02	-2.84752e-08
2731.58	-8.45953e-08
2740.13	8.34985e-08
2748.69	9.36502e-09
2757.25	1.31631e-07
2765.81	7.72612e-08
2774.37	-6.45583e-08
2782.92	-1.01882e-07
2791.48	4.09161e-08
2800.04	7.98278e-08
2808.6	2.10943e-07
2817.15	1.89387e-07
2825.71	3.68468e-07
2834.27	8.70717e-07
2842.83	1.26145e-06
2851.38	8.54177e-07
2859.94	1.17074e-06
2868.5	8.58849e-07
2877.06	6.29293e-07
2885.61	2.32592e-07
2894.17	8.28664e-08
2902.73	7.37778e-08
2911.29	1.82314e-07
2919.85	1.93833e-07
2928.4	2.73284e-07
2936.96	5.22823e-07
2945.52	1.50026e-06
2954.08	2.85611e-06
2962.63	4.7555e-06
2971.19	1.24524e-05
2979.75	1.44665e-05
2988.31	2.55515e-05
2996.86	1.14171e-05
3005.42	2.91199e-05
3013.98	1.97191e-05
3022.54	1.24318e-05
3031.09	6.9963e-06
3039.65	4.00343e-06
3048.21	1.88382e-06
3056.77	7.14981e-07
3065.33	3.90587e-07
3073.88	2.92365e-07
3082.44	-3.20259e-08
3091	-1.73545e-07
3099.56	-2.1821e-07
3108.11	-9.17648e-08
3116.67	1.49072e-07
3125.23	1.51495e-07
3133.79	1.03649e-07
3142.34	9.42659e-08
3150.9	3.12765e-08
3159.46	-3.15275e-08
3168.02	-1.29626e-07
3176.57	2.11556e-08
3185.13	-1.58289e-07
3193.69	1.89326e-07
3202.25	4.41466e-08
3210.81	-5.09296e-08
3219.36	1.56496e-07
3227.92	-1.47634e-07
3236.48	-5.90259e-08
3245.04	-9.17403e-08
3253.59	1.02861e-07
3262.15	-1.05061e-07
3270.71	2.9854e-08
3279.27	7.86072e-09
3287.82	1.66769e-07
3296.38	1.31965e-07
3304.94	-1.34996e-07
3313.5	-1.66327e-07
3322.05	1.92917e-07
3330.61	6.38562e-08
3339.17	-4.21503e-08
3347.73	-1.1908e-07
3356.29	-1.52883e-07
3364.84	-1.39104e-07
3373.4	-2.33035e-07
3381.96	7.54859e-08
3390.52	-6.70576e-08
3399.07	-7.92675e-08
3407.63	1.92216e-07
3416.19	1.16497e-07
3424.75	-1.35371e-07
3433.3	-1.34677e-08
3441.86	2.64516e-08
3450.42	1.81498e-08
3458.98	2.37113e-08
3467.53	-2.2461e-07
3476.09	-5.07359e-08
3484.65	-1.67178e-07
3493.21	9.64787e-09
3501.77	-4.05896e-08
3510.32	-6.29822e-09
3518.88	-3.12958e-07
3527.44	1.10187e-07
3536	-2.36202e-07
3544.55	2.14257e-07
3553.11	1.71057e-07
3561.67	1.84718e-07
3570.23	8.22506e-08
3578.78	-6.02437e-08
3587.34	-1.08955e-07
3595.9	7.78442e-08
3604.46	9.33146e-08
3613.01	-2.67763e-08
3621.57	-6.35279e-09
3630.13	-1.71051e-07
3638.69	-5.38673e-08
3647.25	-9.72845e-08
3655.8	1.0337e-07
3664.36	1.42257e-07
3672.92	8.72201e-10
3681.48	1.83351e-07
3690.03	3.87882e-07
3698.59	4.66955e-07
3707.15	5.90616e-07
3715.71	8.36208e-07
3724.26	7.52371e-07
3732.82	6.46555e-07
3741.38	5.85222e-07
3749.94	6.34166e-07
3758.49	7.95867e-07
3767.05	6.51409e-07
3775.61	1.82459e-07
3784.17	3.37666e-07
3792.73	5.74998e-08
3801.28	-7.04664e-08
3809.84	2.04916e-07
3818.4	-1.72644e-07
3826.96	-1.04147e-07
3835.51	9.26679e-09
3844.07	2.58323e-07
3852.63	-6.08258e-08
3861.19	-5.43393e-08
3869.74	-1.57604e-07
3878.3	-2.78842e-07
3886.86	-1.90934e-07
3895.42	2.80889e-07
3903.97	-1.1702e-07
3912.53	2.59623e-08
3921.09	2.77875e-07
3929.65	2.49991e-07
3938.21	4.23263e-07
3946.76	3.74458e-07
3955.32	5.55903e-07
3963.88	5.01225e-07
3972.44	3.06287e-07
