Infrared Spectrum: Nitrile-Acetic Acid
Formula: C H3 C N
CAS: 75-05-8
State: gas
Melting point: -45.72 C
Boiling point: 81.6 C
Class: IUPAC A
Instrument: IFS66V (Bruker)
Instrument parameters: KBr Beam splitter; MCT Detector; Multipass cell
Sampling: 1 L/min Flow
Resolution: 0.9640
Temperature: 23 C
Pressure: 101.3 kPa
Origin: NIST, Anayltical Chemistry Division, 301-975-3108
cm-1	(micromol/mol)-1m-1 (base 10)
575.169	-2.65955e-07
583.847	-6.08888e-07
592.525	-2.01175e-07
601.203	-1.19492e-07
609.882	-2.14359e-07
618.56	-9.02633e-08
627.238	-1.80294e-08
635.916	-1.55415e-07
644.594	-5.18215e-08
653.272	1.41138e-07
661.951	2.41384e-08
670.629	2.23162e-07
679.307	5.63103e-07
687.985	1.96116e-06
696.663	5.7658e-06
705.341	6.37507e-06
714.019	2.73741e-06
722.698	5.0845e-06
731.376	5.01166e-06
740.054	2.31391e-06
748.732	6.17244e-07
757.41	4.07413e-08
766.088	-8.32833e-08
774.767	-9.73287e-08
783.445	-1.25085e-07
792.123	-1.21057e-07
800.801	-8.35678e-08
809.479	-8.5463e-08
818.157	-5.11794e-08
826.835	-1.07903e-07
835.514	-1.79514e-07
844.192	-8.1959e-08
852.87	-7.28614e-08
861.548	-4.55689e-08
870.226	-9.51126e-08
878.904	1.3704e-07
887.583	8.14318e-07
896.261	2.49638e-06
904.939	4.81905e-06
913.617	4.06172e-06
922.295	1.31936e-06
930.973	4.34886e-06
939.651	2.93055e-06
948.33	5.93155e-07
957.008	2.78402e-08
965.686	1.11156e-07
974.364	2.45668e-07
983.042	6.12853e-07
991.72	1.39444e-06
1000.4	2.38426e-06
1009.08	2.34509e-06
1017.75	3.1885e-06
1026.43	9.314e-06
1035.11	4.52937e-06
1043.79	4.72646e-06
1052.47	5.50355e-06
1061.15	3.99778e-06
1069.82	5.02271e-06
1078.5	3.45579e-06
1087.18	2.38078e-06
1095.86	1.39772e-06
1104.54	1.01745e-06
1113.21	7.00524e-07
1121.89	2.42267e-07
1130.57	1.37439e-07
1139.25	2.20685e-08
1147.93	-3.57251e-09
1156.61	-2.90352e-08
1165.28	-4.14477e-10
1173.96	-4.801e-08
1182.64	-5.0473e-08
1191.32	-5.38989e-08
1200	-2.28983e-08
1208.67	1.86435e-11
1217.35	2.19812e-08
1226.03	3.00977e-08
1234.71	4.81262e-08
1243.39	7.53316e-08
1252.07	1.17366e-07
1260.74	1.55948e-07
1269.42	4.27509e-07
1278.1	6.08117e-07
1286.78	1.38446e-06
1295.46	3.45333e-06
1304.13	9.49001e-07
1312.81	1.42653e-06
1321.49	1.95442e-06
1330.17	3.15534e-06
1338.85	4.62901e-06
1347.52	3.13133e-06
1356.2	4.50803e-06
1364.88	1.16758e-05
1373.56	1.59857e-05
1382.24	1.35445e-05
1390.92	1.92834e-05
1399.59	2.38795e-05
1408.27	3.08234e-05
1416.95	2.26894e-05
1425.63	1.8933e-05
1434.31	3.39059e-05
1442.98	1.50327e-05
1451.66	1.68894e-05
1460.34	1.35991e-05
1469.02	1.65333e-05
1477.7	2.05411e-05
1486.38	1.47081e-05
1495.05	2.55519e-05
1503.73	1.19591e-05
1512.41	1.20752e-05
1521.09	1.09516e-05
1529.77	1.04202e-05
1538.44	1.07382e-05
1547.12	6.86064e-06
1555.8	7.93754e-06
1564.48	4.99635e-06
1573.16	4.28483e-06
1581.83	2.8105e-06
1590.51	2.14558e-06
1599.19	1.39029e-06
1607.87	7.00005e-07
1616.55	2.41237e-06
1625.23	6.12647e-07
1633.9	2.97445e-07
1642.58	2.01125e-07
1651.26	3.2074e-07
1659.94	1.14677e-07
1668.62	2.7505e-07
1677.29	5.26548e-08
1685.97	1.67279e-07
1694.65	2.41493e-07
1703.33	1.31209e-07
1712.01	9.78701e-08
1720.69	1.43959e-07
1729.36	2.4549e-07
1738.04	2.69367e-07
1746.72	2.87824e-07
1755.4	2.65295e-07
1764.08	2.87294e-07
1772.75	1.27995e-06
1781.43	3.28867e-07
1790.11	3.47133e-07
1798.79	3.61295e-07
1807.47	4.73575e-07
1816.15	5.52643e-07
1824.82	7.3977e-07
1833.5	4.88126e-07
1842.18	6.70809e-07
1850.86	5.68656e-07
1859.54	3.58341e-07
1868.21	3.80754e-07
1876.89	1.7468e-07
1885.57	2.08784e-07
1894.25	2.92406e-07
1902.93	3.78102e-07
1911.6	1.81396e-07
1920.28	1.94516e-07
1928.96	1.18194e-07
1937.64	7.52157e-08
1946.32	6.70869e-08
1955	2.94474e-08
1963.67	2.38114e-09
1972.35	2.836e-08
1981.03	3.29049e-08
1989.71	7.51584e-09
1998.39	-7.26415e-10
2007.06	6.27627e-09
2015.74	7.79163e-09
2024.42	5.51641e-08
2033.1	3.7089e-08
2041.78	1.06563e-07
2050.46	1.55943e-07
2059.13	3.77587e-07
2067.81	3.49654e-07
2076.49	4.32443e-07
2085.17	5.40203e-07
2093.85	3.34022e-07
2102.52	1.86801e-07
2111.2	7.36831e-08
2119.88	7.00601e-08
2128.56	9.3188e-09
2137.24	7.1203e-08
2145.91	2.16369e-08
2154.59	5.20989e-08
2163.27	3.34547e-08
2171.95	6.04671e-08
2180.63	6.41833e-08
2189.31	7.85333e-08
2197.98	1.37197e-07
2206.66	1.1491e-07
2215.34	2.44222e-07
2224.02	3.88055e-07
2232.7	9.73197e-07
2241.37	2.39536e-06
2250.05	4.18466e-06
2258.73	3.47139e-06
2267.41	2.73233e-06
2276.09	6.51288e-06
2284.77	5.70286e-06
2293.44	4.02298e-06
2302.12	1.98775e-06
2310.8	4.60667e-06
2319.48	4.22552e-06
2328.16	1.63082e-06
2336.83	7.58633e-07
2345.51	6.0984e-07
2354.19	5.90946e-07
2362.87	7.61909e-07
2371.55	7.84744e-07
2380.23	1.01929e-06
2388.9	9.20209e-07
2397.58	1.14866e-06
2406.26	1.55327e-06
2414.94	1.30723e-06
2423.62	1.54466e-06
2432.29	1.48592e-06
2440.97	1.06674e-06
2449.65	8.89226e-07
2458.33	1.0014e-06
2467.01	8.13155e-07
2475.68	1.10684e-06
2484.36	9.82262e-07
2493.04	9.96462e-07
2501.72	8.97813e-07
2510.4	7.00987e-07
2519.08	5.56091e-07
2527.75	5.46492e-07
2536.43	4.5008e-07
2545.11	3.72697e-07
2553.79	4.5417e-07
2562.47	3.45714e-07
2571.14	2.62902e-07
2579.82	2.31618e-07
2588.5	4.47769e-07
2597.18	8.14005e-07
2605.86	1.25841e-06
2614.54	2.04298e-06
2623.21	3.21762e-06
2631.89	1.28701e-06
2640.57	9.12703e-07
2649.25	3.97413e-07
2657.93	2.94256e-07
2666.6	3.63968e-07
2675.28	2.491e-07
2683.96	1.80347e-07
2692.64	1.5446e-07
2701.32	7.47842e-08
2709.99	1.08727e-07
2718.67	2.88346e-07
2727.35	2.73477e-07
2736.03	4.1027e-07
2744.71	4.80999e-07
2753.39	4.81762e-07
2762.06	4.82345e-07
2770.74	2.08807e-07
2779.42	2.28762e-07
2788.1	1.38327e-07
2796.78	2.20948e-07
2805.45	2.5787e-07
2814.13	2.0541e-07
2822.81	6.54722e-07
2831.49	5.20761e-07
2840.17	7.65753e-07
2848.85	1.87625e-06
2857.52	2.19428e-06
2866.2	2.28089e-06
2874.88	3.65717e-06
2883.56	3.96327e-06
2892.24	2.90314e-06
2900.91	2.91724e-06
2909.59	2.55862e-06
2918.27	2.18097e-06
2926.95	2.51729e-06
2935.63	6.16451e-06
2944.31	9.02063e-06
2952.98	6.00793e-06
2961.66	7.63874e-06
2970.34	9.59964e-06
2979.02	5.17149e-06
2987.7	2.7802e-06
2996.37	2.46566e-06
3005.05	3.71491e-06
3013.73	1.2512e-05
3022.41	1.19178e-05
3031.09	7.53881e-06
3039.76	5.20178e-06
3048.44	3.16063e-06
3057.12	2.56074e-06
3065.8	2.04924e-06
3074.48	1.91434e-06
3083.16	1.50465e-06
3091.83	1.33131e-06
3100.51	1.02461e-06
3109.19	8.31385e-07
3117.87	5.81765e-07
3126.55	4.72747e-07
3135.22	5.00941e-07
3143.9	6.09278e-07
3152.58	1.06292e-06
3161.26	1.9681e-06
3169.94	2.27206e-06
3178.62	3.15932e-06
3187.29	3.37264e-06
3195.97	3.07347e-06
3204.65	8.66853e-07
3213.33	5.58867e-07
3222.01	9.39334e-07
3230.68	8.8551e-07
3239.36	3.19429e-07
3248.04	2.30448e-07
3256.72	2.16686e-07
3265.4	2.01527e-07
3274.07	1.76977e-07
3282.75	1.503e-07
3291.43	1.96195e-07
3300.11	2.65144e-07
3308.79	2.47739e-07
3317.47	3.47269e-07
3326.14	2.72572e-07
3334.82	3.08695e-07
3343.5	3.19458e-07
3352.18	3.46162e-07
3360.86	3.89234e-07
3369.53	3.07072e-07
3378.21	3.89902e-07
3386.89	4.26978e-07
3395.57	3.53355e-07
3404.25	3.38677e-07
3412.93	3.18708e-07
3421.6	3.39637e-07
3430.28	2.99234e-07
3438.96	3.1771e-07
3447.64	3.29454e-07
3456.32	1.66457e-07
3464.99	2.48237e-07
3473.67	2.14834e-07
3482.35	2.13228e-07
3491.03	2.01102e-07
3499.71	2.83089e-07
3508.39	2.91357e-07
3517.06	3.02738e-07
3525.74	2.94172e-07
3534.42	3.49891e-07
3543.1	3.10803e-07
3551.78	3.06183e-07
3560.45	3.20235e-07
3569.13	3.51877e-07
3577.81	2.84372e-07
3586.49	6.18114e-07
3595.17	4.11783e-07
3603.84	3.30601e-07
3612.52	7.27405e-07
3621.2	4.84824e-07
3629.88	1.1286e-06
3638.56	4.90346e-07
3647.24	1.05983e-06
3655.91	1.02907e-06
3664.59	5.35593e-07
3673.27	6.17314e-07
3681.95	6.78876e-07
3690.63	7.09945e-07
3699.3	4.82863e-07
3707.98	4.87801e-07
3716.66	4.75145e-07
3725.34	5.70673e-07
3734.02	5.61926e-07
3742.7	5.08196e-07
3751.37	6.96074e-07
3760.05	7.41606e-07
3768.73	4.32784e-07
3777.41	3.90327e-07
3786.09	4.62446e-07
3794.76	4.26395e-07
3803.44	5.13148e-07
3812.12	4.13311e-07
3820.8	1.04094e-06
3829.48	4.95316e-07
3838.16	1.5838e-06
3846.83	4.83833e-07
3855.51	6.13059e-07
3864.19	7.48349e-07
3872.87	5.18042e-07
3881.55	6.17721e-07
3890.22	5.80222e-07
3898.9	8.57767e-07
3907.58	6.30515e-07
3916.26	8.44883e-07
3924.94	9.67842e-07
3933.61	7.93499e-07
3942.29	8.96996e-07
3950.97	8.08697e-07
3959.65	8.53476e-07
3968.33	9.51675e-07
