Infrared Spectrum: Dichloromethane
Formula: C H2 Cl2
CAS: 75-09-2
State: gas
Melting point: -95.1 C
Boiling point: 40 C
Class: IUPAC A
Instrument: IFS66V (Bruker)
Instrument parameters: KBr Beam Splitter; MCT Detector; Multipass cell
Sampling: 1 L/min Flow
Resolution: 0.4820
Temperature: 23 C
Pressure: 101.3 Pa
Origin: NIST, Analytical Chemistry Division, 301-975-3108
cm-1	(micromol/mol)-1m-1 (base 10)
575.17	6.26184e-07
583.848	-7.59079e-08
592.526	5.67148e-07
601.205	-5.56772e-08
609.883	-1.89387e-07
618.561	3.71391e-07
627.239	3.61087e-07
635.917	4.82458e-07
644.595	4.63304e-07
653.274	1.1181e-06
661.952	2.567e-06
670.63	5.91448e-06
679.308	9.93595e-06
687.986	1.76087e-05
696.665	2.59168e-05
705.343	3.74728e-05
714.021	2.96449e-05
722.699	7.1804e-05
731.377	7.53851e-05
740.055	0.000289846
748.734	0.000831764
757.412	0.000619155
766.09	0.000684282
774.768	0.000104737
783.446	1.98219e-06
792.124	3.08437e-07
800.803	4.94435e-08
809.481	-1.15184e-07
818.159	2.44585e-07
826.837	8.08719e-08
835.515	-2.23101e-07
844.194	1.04295e-07
852.872	2.0981e-07
861.55	3.90798e-07
870.228	6.65212e-07
878.906	1.62549e-06
887.584	2.93546e-06
896.263	6.00114e-06
904.941	3.04079e-06
913.619	3.14715e-06
922.297	3.03983e-06
930.975	1.84621e-06
939.654	1.16635e-06
948.332	5.68545e-07
957.01	2.60744e-07
965.688	1.98996e-07
974.366	3.23698e-07
983.044	3.85936e-07
991.723	2.426e-07
1000.4	2.74846e-07
1009.08	2.57566e-07
1017.76	3.02148e-07
1026.44	2.79023e-07
1035.11	2.35007e-07
1043.79	4.41681e-07
1052.47	3.09758e-07
1061.15	1.20923e-07
1069.83	-8.46253e-08
1078.5	-1.04931e-07
1087.18	-1.22446e-07
1095.86	5.09669e-08
1104.54	-3.36148e-08
1113.22	-2.14185e-09
1121.9	-2.73565e-08
1130.57	6.37125e-08
1139.25	-2.76649e-08
1147.93	-2.84307e-08
1156.61	-2.38841e-08
1165.29	9.38321e-09
1173.96	-2.69118e-08
1182.64	5.61365e-08
1191.32	7.09566e-08
1200	-8.94647e-08
1208.68	-4.70607e-08
1217.36	4.00094e-08
1226.03	-1.48138e-08
1234.71	1.56771e-07
1243.39	3.65531e-06
1252.07	6.23009e-05
1260.75	0.00021914
1269.42	3.70274e-05
1278.1	0.00021148
1286.78	1.9249e-05
1295.46	1.09654e-07
1304.14	-6.30295e-08
1312.82	3.21796e-08
1321.49	-2.1102e-08
1330.17	-5.59118e-08
1338.85	-8.88917e-08
1347.53	9.2205e-08
1356.21	-1.0458e-07
1364.88	-1.36799e-07
1373.56	5.02393e-08
1382.24	-9.74973e-10
1390.92	2.12825e-07
1399.6	1.36815e-07
1408.28	3.86882e-07
1416.95	5.05475e-07
1425.63	1.13033e-06
1434.31	1.20588e-06
1442.99	2.75118e-06
1451.67	5.06192e-06
1460.34	7.53519e-06
1469.02	8.08169e-06
1477.7	5.5871e-06
1486.38	1.97067e-07
1495.06	8.04935e-08
1503.74	4.64649e-08
1512.41	-7.30693e-08
1521.09	-2.51976e-07
1529.77	9.9098e-08
1538.45	3.18461e-07
1547.13	3.63901e-07
1555.8	4.77878e-07
1564.48	7.15378e-08
1573.16	2.93083e-08
1581.84	1.92421e-08
1590.52	2.12821e-08
1599.2	1.16994e-07
1607.87	7.24845e-08
1616.55	-2.55212e-07
1625.23	4.17947e-08
1633.91	1.79115e-08
1642.59	3.72809e-08
1651.26	-4.89251e-08
1659.94	4.69752e-08
1668.62	-2.30556e-09
1677.3	7.87982e-09
1685.98	-4.09762e-08
1694.66	-1.47119e-08
1703.33	-2.70391e-08
1712.01	1.78824e-08
1720.69	7.98414e-08
1729.37	5.90359e-08
1738.05	2.03726e-10
1746.72	3.37584e-08
1755.4	4.36737e-09
1764.08	9.92254e-09
1772.76	-8.59195e-08
1781.44	3.36984e-08
1790.12	9.01496e-08
1798.79	9.20104e-08
1807.47	3.0336e-08
1816.15	3.0135e-08
1824.83	-7.96559e-08
1833.51	-2.53511e-08
1842.18	4.49288e-08
1850.86	1.16997e-08
1859.54	-2.80096e-08
1868.22	2.2077e-08
1876.9	-4.72616e-08
1885.58	-6.60517e-08
1894.25	-6.91312e-08
1902.93	-9.57693e-09
1911.61	-1.74349e-09
1920.29	3.10727e-08
1928.97	-3.10091e-08
1937.64	-7.873e-08
1946.32	-2.70119e-10
1955	-7.39761e-08
1963.68	6.80389e-08
1972.36	1.90867e-07
1981.04	2.52561e-07
1989.71	3.54419e-07
1998.39	7.57814e-08
2007.07	8.16513e-08
2015.75	1.16547e-07
2024.43	3.26361e-08
2033.1	2.048e-07
2041.78	2.03191e-07
2050.46	7.62508e-07
2059.14	6.65753e-07
2067.82	7.2474e-07
2076.5	5.95589e-08
2085.17	3.28262e-08
2093.85	1.72076e-08
2102.53	-4.87014e-08
2111.21	-3.26752e-08
2119.89	-9.42414e-08
2128.56	1.82973e-07
2137.24	2.48352e-07
2145.92	1.70276e-07
2154.6	2.65856e-07
2163.28	3.52472e-07
2171.96	4.53085e-07
2180.63	6.81511e-07
2189.31	4.57357e-07
2197.99	2.43634e-07
2206.67	-6.47466e-08
2215.35	-6.12396e-08
2224.02	9.35592e-09
2232.7	5.16936e-08
2241.38	-1.59343e-09
2250.06	1.29246e-07
2258.74	1.06001e-07
2267.42	1.94056e-07
2276.09	3.63303e-07
2284.77	8.05022e-07
2293.45	1.29117e-06
2302.13	1.60899e-06
2310.81	2.12164e-06
2319.48	5.21955e-06
2328.16	2.2612e-06
2336.84	1.52816e-06
2345.52	1.49443e-06
2354.2	1.59764e-06
2362.88	2.13531e-06
2371.55	9.26351e-07
2380.23	1.80897e-07
2388.91	1.87847e-07
2397.59	2.22914e-07
2406.27	3.14641e-07
2414.94	8.61957e-07
2423.62	2.64743e-07
2432.3	2.60315e-07
2440.98	1.88543e-07
2449.66	1.66963e-07
2458.34	8.49827e-09
2467.01	-3.45879e-09
2475.69	4.24395e-08
2484.37	-1.12058e-08
2493.05	9.52391e-08
2501.73	2.91728e-08
2510.4	-1.37307e-07
2519.08	-2.30959e-07
2527.76	-2.78811e-07
2536.44	-2.22208e-07
2545.12	-3.03178e-07
2553.8	-4.75931e-07
2562.47	-3.64365e-07
2571.15	-1.67979e-07
2579.83	-2.24371e-08
2588.51	-4.2987e-08
2597.19	7.04773e-08
2605.86	-1.66309e-08
2614.54	-5.50896e-08
2623.22	1.2319e-07
2631.9	3.56938e-08
2640.58	-9.44132e-08
2649.26	-3.09017e-08
2657.93	3.74082e-08
2666.61	-5.5779e-08
2675.29	1.07514e-07
2683.97	9.54874e-07
2692.65	2.42173e-06
2701.32	6.92276e-07
2710	2.19589e-06
2718.68	8.24371e-08
2727.36	-2.35549e-08
2736.04	-3.84714e-10
2744.71	8.90964e-08
2753.39	6.69194e-08
2762.07	1.53576e-08
2770.75	1.10294e-08
2779.43	4.00739e-08
2788.11	-4.20921e-08
2796.78	7.34777e-09
2805.46	7.31166e-08
2814.14	3.37588e-07
2822.82	3.92192e-07
2831.5	6.72875e-07
2840.17	8.4621e-07
2848.85	9.83653e-07
2857.53	9.90766e-07
2866.21	1.00269e-06
2874.89	7.73187e-07
2883.57	4.84462e-07
2892.24	1.24886e-07
2900.92	1.04162e-07
2909.6	-1.80152e-08
2918.28	2.47161e-07
2926.96	1.29091e-07
2935.63	5.50293e-07
2944.31	9.59333e-07
2952.99	2.53811e-06
2961.67	5.27559e-06
2970.35	7.3244e-06
2979.03	1.48297e-05
2987.7	1.96866e-05
2996.38	1.18853e-05
3005.06	2.45182e-05
3013.74	2.0061e-05
3022.42	1.17968e-05
3031.09	7.24711e-06
3039.77	3.96516e-06
3048.45	1.92542e-06
3057.13	7.63176e-07
3065.81	3.23752e-07
3074.49	8.45353e-08
3083.16	-4.51598e-08
3091.84	3.84441e-09
3100.52	-3.99903e-09
3109.2	-9.19976e-08
3117.88	3.67807e-08
3126.55	1.13587e-07
3135.23	-9.19622e-08
3143.91	1.13698e-07
3152.59	-1.59879e-08
3161.27	-3.40495e-08
3169.95	-8.89954e-08
3178.62	3.72654e-08
3187.3	-2.47118e-08
3195.98	-4.94408e-08
3204.66	5.37936e-08
3213.34	1.07031e-07
3222.01	-5.77954e-08
3230.69	-1.05641e-07
3239.37	-8.75812e-08
3248.05	1.09366e-07
3256.73	1.92966e-08
3265.41	1.02998e-07
3274.08	-4.97273e-08
3282.76	1.13293e-07
3291.44	4.32581e-08
3300.12	-7.53085e-08
3308.8	1.57524e-09
3317.47	-1.14314e-08
3326.15	-8.36012e-08
3334.83	1.2339e-07
3343.51	-4.49488e-08
3352.19	-9.0467e-08
3360.87	-4.62321e-08
3369.54	-2.59005e-08
3378.22	-8.66226e-08
3386.9	-7.90356e-08
3395.58	3.65697e-08
3404.26	1.35831e-07
3412.93	4.98873e-08
3421.61	-1.99833e-08
3430.29	5.83638e-08
3438.97	-5.45703e-08
3447.65	8.14175e-09
3456.33	-4.45841e-08
3465	1.2942e-09
3473.68	1.38788e-07
3482.36	1.27879e-07
3491.04	-3.65324e-08
3499.72	-8.11674e-08
3508.39	-1.06686e-07
3517.07	-2.02231e-07
3525.75	-1.82827e-07
3534.43	4.82566e-08
3543.11	2.56945e-07
3551.79	1.83409e-07
3560.46	2.97233e-07
3569.14	4.43113e-08
3577.82	4.45023e-08
3586.5	8.44398e-08
3595.18	-8.10265e-08
3603.85	2.96767e-08
3612.53	-1.67988e-07
3621.21	-5.71569e-08
3629.89	-1.52294e-07
3638.57	5.22502e-09
3647.25	-7.36905e-08
3655.92	1.16142e-09
3664.6	1.16524e-08
3673.28	3.07162e-08
3681.96	1.80784e-07
3690.64	1.34406e-07
3699.31	5.0072e-07
3707.99	4.25596e-07
3716.67	5.67171e-07
3725.35	5.5025e-07
3734.03	5.37755e-07
3742.71	5.92621e-07
3751.38	7.36244e-07
3760.06	7.0809e-07
3768.74	7.24874e-07
3777.42	2.51103e-07
3786.1	2.91499e-07
3794.77	1.39689e-07
3803.45	-1.05929e-07
3812.13	1.04066e-07
3820.81	-1.52402e-07
3829.49	1.35438e-07
3838.17	-1.37733e-08
3846.84	2.65753e-08
3855.52	7.29047e-09
3864.2	2.22598e-08
3872.88	-6.17971e-08
3881.56	1.79233e-08
3890.23	4.78428e-08
3898.91	-5.67613e-08
3907.59	2.20543e-07
3916.27	2.05469e-07
3924.95	1.26104e-07
3933.63	6.19905e-07
3942.3	5.8439e-07
3950.98	5.31539e-07
3959.66	5.86697e-07
3968.34	4.10359e-07
