Infrared Spectrum: Dichloromethane
Formula: C H2 Cl2
CAS: 75-09-2
State: gas
Melting point: -95.1 C
Boiling point: 40 C
Class: IUPAC A
Instrument: IFS66V (Bruker)
Instrument parameters: KBr Beam Splitter; MCT Detector; Multipass cell
Sampling: 1 L/min Flow
Resolution: 0.1250
Temperature: 23 C
Pressure: 101.3 Pa
Origin: NIST, Analytical Chemistry Division, 301-975-3108
cm-1	(micromol/mol)-1m-1 (base 10)
575.05	-8.21877e-07
583.608	7.8826e-07
592.165	-1.64911e-07
600.723	-7.61887e-07
609.281	-8.5682e-07
617.838	1.09874e-07
626.396	-5.17225e-07
634.954	9.91325e-07
643.511	3.85391e-07
652.069	9.98735e-07
660.626	1.70992e-06
669.184	5.0199e-06
677.742	9.7856e-06
686.299	1.58845e-05
694.857	2.41604e-05
703.415	3.35993e-05
711.972	2.99926e-05
720.53	6.27909e-05
729.088	6.49433e-05
737.645	0.000193125
746.203	0.000690982
754.761	0.000665045
763.318	0.000724667
771.876	0.000256813
780.434	8.68541e-06
788.991	-1.1351e-07
797.549	1.70859e-07
806.106	5.32423e-07
814.664	-2.03444e-08
823.222	1.72029e-07
831.779	2.37287e-07
840.337	-9.0014e-08
848.895	-1.5519e-07
857.452	1.36116e-07
866.01	5.34609e-07
874.568	1.06574e-06
883.125	1.77729e-06
891.683	2.83961e-06
900.241	3.23283e-06
908.798	3.46642e-06
917.356	3.04711e-06
925.914	2.3727e-06
934.471	1.6119e-06
943.029	7.69677e-07
951.586	4.33143e-07
960.144	7.56314e-08
968.702	2.60639e-07
977.259	2.45926e-07
985.817	3.35077e-07
994.375	3.63349e-07
1002.93	4.42579e-07
1011.49	1.29387e-07
1020.05	1.94623e-07
1028.61	2.56286e-07
1037.16	2.01107e-07
1045.72	4.13668e-07
1054.28	-7.67018e-08
1062.84	-2.61194e-07
1071.39	-1.62769e-07
1079.95	-1.31012e-07
1088.51	1.80698e-07
1097.07	-1.4007e-07
1105.62	4.29725e-08
1114.18	-1.37666e-07
1122.74	-3.56773e-07
1131.3	-3.88716e-08
1139.85	-5.6513e-08
1148.41	-2.3091e-07
1156.97	-1.73723e-07
1165.53	-9.55801e-08
1174.09	-6.33833e-08
1182.64	1.51407e-07
1191.2	1.73422e-07
1199.76	-9.67479e-08
1208.32	-1.75581e-07
1216.87	8.57394e-08
1225.43	-5.62128e-08
1233.99	1.13915e-07
1242.55	2.86564e-06
1251.1	4.83363e-05
1259.66	0.000212315
1268.22	0.000292414
1276.78	0.000241505
1285.33	3.40731e-05
1293.89	5.26455e-07
1302.45	-1.97633e-07
1311.01	1.93569e-07
1319.57	-6.12896e-08
1328.12	2.41069e-08
1336.68	-1.01508e-07
1345.24	1.95831e-08
1353.8	5.1323e-07
1362.35	-2.32374e-07
1370.91	-3.78602e-08
1379.47	-6.85055e-08
1388.03	-1.26728e-08
1396.58	1.05865e-08
1405.14	3.45282e-07
1413.7	5.43204e-07
1422.26	1.26099e-06
1430.81	1.3138e-06
1439.37	2.11691e-06
1447.93	3.72027e-06
1456.49	6.55377e-06
1465.05	7.61332e-06
1473.6	7.692e-06
1482.16	4.16219e-07
1490.72	1.46057e-07
1499.28	1.6301e-07
1507.83	7.29866e-09
1516.39	7.92484e-08
1524.95	4.87214e-08
1533.51	-7.8971e-09
1542.06	1.48645e-07
1550.62	4.19067e-07
1559.18	4.75232e-07
1567.74	-5.72378e-08
1576.29	-1.86015e-07
1584.85	9.95009e-08
1593.41	7.93521e-08
1601.97	5.66849e-08
1610.53	2.2639e-08
1619.08	1.61758e-07
1627.64	-7.28856e-08
1636.2	-1.12308e-07
1644.76	-1.46272e-07
1653.31	-4.34461e-07
1661.87	2.22079e-08
1670.43	-3.55629e-08
1678.99	-1.2014e-07
1687.54	-9.87461e-08
1696.1	-2.29399e-07
1704.66	5.28496e-08
1713.22	1.10779e-07
1721.77	7.45773e-08
1730.33	7.13895e-08
1738.89	2.33266e-08
1747.45	-9.76228e-08
1756.01	-1.12494e-07
1764.56	5.28632e-08
1773.12	-4.41958e-08
1781.68	8.87962e-08
1790.24	1.47177e-07
1798.79	1.08982e-07
1807.35	-4.52844e-08
1815.91	-6.99616e-08
1824.47	-5.10851e-08
1833.02	4.6334e-08
1841.58	-6.40254e-08
1850.14	7.61925e-08
1858.7	-1.18497e-08
1867.25	-8.97839e-08
1875.81	2.01698e-08
1884.37	-6.4954e-08
1892.93	1.066e-07
1901.49	6.09677e-08
1910.04	-2.36831e-09
1918.6	6.85974e-08
1927.16	-3.13374e-08
1935.72	-9.72727e-08
1944.27	-1.53224e-07
1952.83	-1.57883e-07
1961.39	-2.30465e-09
1969.95	1.178e-07
1978.5	2.1529e-07
1987.06	3.67677e-07
1995.62	-8.18859e-08
2004.18	5.74443e-08
2012.73	9.75019e-08
2021.29	7.1545e-08
2029.85	-9.72609e-09
2038.41	1.08486e-07
2046.97	5.81425e-07
2055.52	6.19262e-07
2064.08	7.46306e-07
2072.64	2.95805e-07
2081.2	-2.27009e-09
2089.75	9.62604e-09
2098.31	1.09918e-07
2106.87	1.11938e-07
2115.43	1.72039e-08
2123.98	-3.4939e-08
2132.54	1.94787e-07
2141.1	2.24068e-07
2149.66	2.15825e-07
2158.21	6.72941e-08
2166.77	4.9691e-07
2175.33	4.73067e-07
2183.89	4.04949e-07
2192.45	2.62095e-07
2201	4.16046e-08
2209.56	1.17641e-07
2218.12	-3.59149e-08
2226.68	4.82594e-08
2235.23	-1.31503e-08
2243.79	1.74209e-07
2252.35	1.15827e-07
2260.91	1.41596e-07
2269.46	3.18414e-07
2278.02	4.78625e-07
2286.58	9.10831e-07
2295.14	1.23652e-06
2303.69	1.77723e-06
2312.25	1.74123e-06
2320.81	2.52882e-06
2329.37	1.64947e-06
2337.93	2.10002e-06
2346.48	9.06986e-07
2355.04	9.10534e-07
2363.6	6.83182e-07
2372.16	4.22145e-07
2380.71	4.19817e-07
2389.27	2.33631e-07
2397.83	1.36825e-07
2406.39	3.91041e-07
2414.94	8.28927e-07
2423.5	2.19095e-07
2432.06	1.73072e-07
2440.62	4.09773e-07
2449.17	1.48061e-07
2457.73	6.28503e-08
2466.29	1.6135e-07
2474.85	-1.41738e-07
2483.41	-3.23478e-08
2491.96	3.07817e-08
2500.52	9.15784e-08
2509.08	6.0663e-10
2517.64	-2.40206e-07
2526.19	-3.19045e-07
2534.75	-3.33863e-07
2543.31	-2.9754e-07
2551.87	-6.65933e-07
2560.42	-4.23348e-07
2568.98	-1.53207e-07
2577.54	4.92962e-08
2586.1	3.37903e-08
2594.65	6.46193e-08
2603.21	7.58369e-08
2611.77	-1.49984e-08
2620.33	4.70779e-08
2628.89	-4.09643e-08
2637.44	-1.15492e-07
2646	1.53598e-07
2654.56	-2.81906e-08
2663.12	-9.94173e-08
2671.67	3.77358e-07
2680.23	3.40559e-07
2688.79	2.02367e-06
2697.35	1.70269e-06
2705.9	2.91692e-06
2714.46	6.73954e-07
2723.02	2.96157e-08
2731.58	-1.4969e-07
2740.13	7.06574e-08
2748.69	-2.1022e-08
2757.25	1.35167e-07
2765.81	7.50438e-08
2774.37	-2.52147e-08
2782.92	-1.27511e-07
2791.48	5.02939e-08
2800.04	1.12699e-07
2808.6	2.79958e-07
2817.15	2.11993e-07
2825.71	3.69148e-07
2834.27	9.70492e-07
2842.83	1.25963e-06
2851.38	8.49759e-07
2859.94	1.23259e-06
2868.5	8.30022e-07
2877.06	6.81826e-07
2885.61	1.99983e-07
2894.17	5.34544e-08
2902.73	-1.94449e-09
2911.29	2.31158e-07
2919.85	2.86506e-07
2928.4	1.56589e-07
2936.96	5.26601e-07
2945.52	1.44754e-06
2954.08	2.94752e-06
2962.63	4.77011e-06
2971.19	1.26229e-05
2979.75	1.43106e-05
2988.31	2.61678e-05
2996.86	1.14066e-05
3005.42	3.02273e-05
3013.98	2.00306e-05
3022.54	1.22583e-05
3031.09	6.90359e-06
3039.65	4.01081e-06
3048.21	1.89601e-06
3056.77	7.4715e-07
3065.33	3.95343e-07
3073.88	3.07935e-07
3082.44	4.75845e-09
3091	-2.7577e-07
3099.56	-2.56397e-07
3108.11	-8.88826e-08
3116.67	1.93436e-07
3125.23	1.57069e-07
3133.79	1.02785e-07
3142.34	1.25482e-07
3150.9	1.62875e-07
3159.46	-3.41723e-08
3168.02	-1.9337e-07
3176.57	1.5987e-08
3185.13	-1.32876e-07
3193.69	2.17729e-07
3202.25	3.56147e-08
3210.81	-3.80039e-08
3219.36	1.92167e-07
3227.92	-1.38772e-07
3236.48	-1.25338e-07
3245.04	-2.65371e-08
3253.59	1.47641e-07
3262.15	-8.73165e-08
3270.71	-3.59139e-08
3279.27	9.12309e-09
3287.82	1.86831e-07
3296.38	1.09926e-07
3304.94	-2.12225e-07
3313.5	-1.86445e-07
3322.05	1.39951e-07
3330.61	1.23768e-07
3339.17	-3.36666e-08
3347.73	-1.26919e-07
3356.29	-1.44545e-07
3364.84	-2.23389e-07
3373.4	-2.98135e-07
3381.96	6.56452e-08
3390.52	-1.17458e-07
3399.07	-1.35527e-07
3407.63	2.8644e-07
3416.19	3.78684e-08
3424.75	-1.50992e-07
3433.3	8.80113e-08
3441.86	3.42887e-08
3450.42	-3.21195e-08
3458.98	5.85803e-09
3467.53	-2.37196e-07
3476.09	-1.04514e-07
3484.65	-1.55843e-07
3493.21	-1.08666e-08
3501.77	-4.10416e-08
3510.32	5.8472e-08
3518.88	-4.41394e-07
3527.44	1.38996e-07
3536	-2.58784e-07
3544.55	2.59126e-07
3553.11	1.98935e-07
3561.67	2.67888e-07
3570.23	1.15418e-07
3578.78	-1.82644e-08
3587.34	-1.25456e-07
3595.9	9.04642e-08
3604.46	1.03918e-08
3613.01	-4.75354e-08
3621.57	-1.09366e-08
3630.13	-2.4545e-07
3638.69	-1.13435e-07
3647.25	-5.22256e-08
3655.8	1.63247e-07
3664.36	1.72094e-07
3672.92	4.5429e-08
3681.48	2.00407e-07
3690.03	3.68806e-07
3698.59	4.71759e-07
3707.15	6.31445e-07
3715.71	8.55926e-07
3724.26	7.97595e-07
3732.82	6.23366e-07
3741.38	4.54344e-07
3749.94	5.8366e-07
3758.49	8.51114e-07
3767.05	6.13416e-07
3775.61	2.05868e-07
3784.17	3.20652e-07
3792.73	6.74605e-08
3801.28	-8.09164e-08
3809.84	2.59493e-07
3818.4	-2.31512e-07
3826.96	-9.02014e-08
3835.51	4.76118e-09
3844.07	2.37463e-07
3852.63	-1.07062e-07
3861.19	-8.24143e-08
3869.74	-1.14219e-07
3878.3	-3.64885e-07
3886.86	-1.68447e-07
3895.42	3.3648e-07
3903.97	-1.07701e-07
3912.53	5.08587e-09
3921.09	2.29764e-07
3929.65	3.63824e-07
3938.21	4.01915e-07
3946.76	4.54692e-07
3955.32	5.83812e-07
3963.88	4.72777e-07
3972.44	3.12515e-07
