Infrared Spectrum: Dichloromethane
Formula: C H2 Cl2
CAS: 75-09-2
State: gas
Melting point: -95.1 C
Boiling point: 40 C
Class: IUPAC A
Instrument: IFS66V (Bruker)
Instrument parameters: KBr Beam Splitter; MCT Detector; Multipass cell
Sampling: 1 L/min Flow
Resolution: 0.2410
Temperature: 23 C
Pressure: 101.3 Pa
Origin: NIST, Analytical Chemistry Division, 301-975-3108
cm-1	(micromol/mol)-1m-1 (base 10)
575.05	-8.30364e-08
583.608	-1.87901e-08
592.165	3.69844e-07
600.723	-6.85685e-07
609.281	-6.33071e-07
617.838	-6.71149e-08
626.396	-3.43384e-07
634.954	4.7116e-07
643.511	6.26409e-07
652.069	7.13282e-07
660.626	1.9446e-06
669.184	4.92496e-06
677.742	9.70572e-06
686.299	1.59057e-05
694.857	2.4043e-05
703.415	3.36258e-05
711.972	3.00331e-05
720.53	6.2739e-05
729.088	6.54492e-05
737.645	0.000192884
746.203	0.000693834
754.761	0.000662293
763.318	0.000723754
771.876	0.000256247
780.434	8.7203e-06
788.991	5.27741e-08
797.549	3.3743e-08
806.106	2.61942e-07
814.664	8.17177e-08
823.222	7.12949e-08
831.779	9.51099e-08
840.337	-8.03189e-08
848.895	5.26322e-09
857.452	7.55886e-08
866.01	5.45934e-07
874.568	1.22719e-06
883.125	1.83938e-06
891.683	2.81174e-06
900.241	3.26592e-06
908.798	3.55374e-06
917.356	3.07603e-06
925.914	2.35031e-06
934.471	1.69378e-06
943.029	7.23294e-07
951.586	4.54844e-07
960.144	1.23193e-07
968.702	2.80495e-07
977.259	3.31792e-07
985.817	2.68443e-07
994.375	3.51111e-07
1002.93	3.42428e-07
1011.49	1.05383e-07
1020.05	1.48453e-07
1028.61	2.60594e-07
1037.16	3.00654e-07
1045.72	3.52939e-07
1054.28	-7.63908e-08
1062.84	-1.99106e-07
1071.39	-7.44909e-08
1079.95	-8.72801e-08
1088.51	4.36946e-08
1097.07	-1.02039e-07
1105.62	1.10358e-08
1114.18	-1.25845e-07
1122.74	-2.51628e-07
1131.3	-5.2021e-08
1139.85	3.91808e-09
1148.41	-1.45209e-07
1156.97	-1.38465e-07
1165.53	-2.89109e-08
1174.09	-3.7823e-08
1182.64	1.01393e-07
1191.2	1.53432e-07
1199.76	-8.88772e-08
1208.32	-8.46235e-08
1216.87	6.41773e-08
1225.43	-3.68516e-08
1233.99	1.28118e-07
1242.55	2.79015e-06
1251.1	4.83753e-05
1259.66	0.00021199
1268.22	0.000288879
1276.78	0.000241082
1285.33	3.41164e-05
1293.89	4.90794e-07
1302.45	-1.40795e-07
1311.01	5.40173e-08
1319.57	7.44509e-09
1328.12	2.25517e-08
1336.68	-6.42564e-08
1345.24	5.14289e-08
1353.8	2.67462e-07
1362.35	-1.91164e-07
1370.91	-3.55392e-08
1379.47	-3.66297e-08
1388.03	2.52947e-08
1396.58	4.30471e-08
1405.14	3.44611e-07
1413.7	5.29962e-07
1422.26	1.15374e-06
1430.81	1.28372e-06
1439.37	2.05325e-06
1447.93	3.73052e-06
1456.49	6.61461e-06
1465.05	7.60332e-06
1473.6	7.68746e-06
1482.16	4.46715e-07
1490.72	1.31781e-07
1499.28	1.1127e-07
1507.83	-8.04962e-08
1516.39	3.25434e-08
1524.95	5.14953e-09
1533.51	-4.26915e-08
1542.06	1.60642e-07
1550.62	3.34106e-07
1559.18	4.81496e-07
1567.74	-7.65245e-09
1576.29	-2.47297e-07
1584.85	5.87849e-08
1593.41	5.66476e-08
1601.97	5.91823e-08
1610.53	1.33086e-08
1619.08	1.56114e-07
1627.64	-4.38793e-08
1636.2	-3.76238e-08
1644.76	-1.03996e-07
1653.31	-3.70099e-07
1661.87	2.65671e-08
1670.43	1.13532e-08
1678.99	-6.80653e-08
1687.54	-6.21573e-08
1696.1	-2.22834e-07
1704.66	4.4224e-08
1713.22	6.86683e-08
1721.77	6.67366e-08
1730.33	5.55589e-08
1738.89	2.64898e-08
1747.45	-6.49312e-08
1756.01	-7.72857e-08
1764.56	5.28523e-08
1773.12	-3.3461e-08
1781.68	8.37777e-08
1790.24	1.09759e-07
1798.79	1.00311e-07
1807.35	-8.66198e-09
1815.91	-1.35932e-08
1824.47	-3.20004e-08
1833.02	6.12069e-08
1841.58	-2.06291e-08
1850.14	4.34427e-08
1858.7	-5.52515e-09
1867.25	-4.90388e-08
1875.81	-3.00423e-08
1884.37	-1.96323e-08
1892.93	8.34021e-08
1901.49	2.60241e-08
1910.04	-6.42464e-09
1918.6	3.41741e-08
1927.16	-4.79001e-08
1935.72	-5.06622e-08
1944.27	-1.06831e-07
1952.83	-9.48935e-08
1961.39	-9.05215e-09
1969.95	9.34819e-08
1978.5	1.9094e-07
1987.06	3.34612e-07
1995.62	-7.37505e-09
2004.18	4.71752e-08
2012.73	4.24177e-08
2021.29	6.91804e-08
2029.85	-7.74158e-09
2038.41	1.45622e-07
2046.97	5.75576e-07
2055.52	6.46986e-07
2064.08	6.99137e-07
2072.64	3.34986e-07
2081.2	1.54631e-08
2089.75	2.98595e-08
2098.31	2.55276e-08
2106.87	6.45692e-08
2115.43	-6.1457e-08
2123.98	-3.22323e-09
2132.54	1.73313e-07
2141.1	2.27977e-07
2149.66	2.01079e-07
2158.21	1.39635e-07
2166.77	4.49878e-07
2175.33	4.75266e-07
2183.89	3.97801e-07
2192.45	2.70451e-07
2201	5.14871e-08
2209.56	5.92687e-08
2218.12	-2.56913e-08
2226.68	9.86524e-09
2235.23	-3.67625e-08
2243.79	1.28849e-07
2252.35	1.34092e-07
2260.91	1.13025e-07
2269.46	2.8483e-07
2278.02	5.28697e-07
2286.58	8.69131e-07
2295.14	1.24905e-06
2303.69	1.74894e-06
2312.25	1.73154e-06
2320.81	2.55917e-06
2329.37	1.70921e-06
2337.93	2.37049e-06
2346.48	9.80449e-07
2355.04	8.62235e-07
2363.6	6.26975e-07
2372.16	4.20123e-07
2380.71	3.58394e-07
2389.27	2.55354e-07
2397.83	2.04284e-07
2406.39	4.20562e-07
2414.94	8.32829e-07
2423.5	2.18823e-07
2432.06	2.03882e-07
2440.62	3.24329e-07
2449.17	1.7705e-07
2457.73	7.58324e-08
2466.29	1.41451e-07
2474.85	-1.23092e-07
2483.41	-3.83659e-08
2491.96	7.30912e-08
2500.52	1.0427e-07
2509.08	-5.53516e-09
2517.64	-2.06043e-07
2526.19	-3.24964e-07
2534.75	-3.67514e-07
2543.31	-3.44213e-07
2551.87	-6.24054e-07
2560.42	-3.86581e-07
2568.98	-1.60794e-07
2577.54	-1.36605e-09
2586.1	-8.80932e-09
2594.65	8.73019e-09
2603.21	2.73329e-08
2611.77	-1.74549e-08
2620.33	-1.19989e-08
2628.89	-1.02029e-07
2637.44	-8.91628e-08
2646	1.12931e-07
2654.56	-3.25416e-08
2663.12	-9.60058e-09
2671.67	3.31163e-07
2680.23	3.71639e-07
2688.79	2.06977e-06
2697.35	1.72463e-06
2705.9	2.9573e-06
2714.46	6.96372e-07
2723.02	-4.66505e-08
2731.58	-5.4624e-08
2740.13	8.59568e-08
2748.69	1.86273e-08
2757.25	1.21982e-07
2765.81	6.01691e-08
2774.37	-7.13322e-08
2782.92	-8.93847e-08
2791.48	2.48364e-08
2800.04	6.00891e-08
2808.6	1.82342e-07
2817.15	1.72708e-07
2825.71	3.66455e-07
2834.27	8.2311e-07
2842.83	1.25107e-06
2851.38	8.518e-07
2859.94	1.15067e-06
2868.5	8.83064e-07
2877.06	6.37938e-07
2885.61	2.60913e-07
2894.17	1.03806e-07
2902.73	1.14689e-07
2911.29	1.46825e-07
2919.85	1.69005e-07
2928.4	3.11209e-07
2936.96	5.27602e-07
2945.52	1.51191e-06
2954.08	2.83054e-06
2962.63	4.76224e-06
2971.19	1.22854e-05
2979.75	1.46351e-05
2988.31	2.51039e-05
2996.86	1.14474e-05
3005.42	2.83733e-05
3013.98	1.95197e-05
3022.54	1.25166e-05
3031.09	7.04616e-06
3039.65	3.99063e-06
3048.21	1.89635e-06
3056.77	7.28487e-07
3065.33	3.66516e-07
3073.88	2.84623e-07
3082.44	-2.59605e-08
3091	-1.32808e-07
3099.56	-1.92916e-07
3108.11	-8.06254e-08
3116.67	1.29418e-07
3125.23	1.23076e-07
3133.79	1.02912e-07
3142.34	5.91323e-08
3150.9	2.13366e-09
3159.46	-3.03961e-08
3168.02	-9.44396e-08
3176.57	1.4048e-08
3185.13	-1.65894e-07
3193.69	1.65829e-07
3202.25	3.75301e-08
3210.81	-4.46469e-08
3219.36	1.47992e-07
3227.92	-1.40995e-07
3236.48	-2.46181e-08
3245.04	-8.99968e-08
3253.59	9.39358e-08
3262.15	-8.71e-08
3270.71	3.56484e-08
3279.27	1.67028e-08
3287.82	1.4555e-07
3296.38	1.40905e-07
3304.94	-1.06936e-07
3313.5	-1.52483e-07
3322.05	2.02628e-07
3330.61	5.83529e-08
3339.17	-1.37915e-08
3347.73	-9.56629e-08
3356.29	-1.3164e-07
3364.84	-1.15959e-07
3373.4	-1.93178e-07
3381.96	6.43228e-08
3390.52	-6.53178e-08
3399.07	-4.94117e-08
3407.63	1.34146e-07
3416.19	1.3153e-07
3424.75	-1.06178e-07
3433.3	-2.89509e-08
3441.86	3.39967e-08
3450.42	5.13134e-08
3458.98	2.06654e-08
3467.53	-2.01199e-07
3476.09	-3.70262e-08
3484.65	-1.55526e-07
3493.21	5.74616e-09
3501.77	-2.34939e-08
3510.32	-3.45788e-09
3518.88	-2.20829e-07
3527.44	9.61158e-08
3536	-2.05566e-07
3544.55	1.92656e-07
3553.11	1.31239e-07
3561.67	1.73941e-07
3570.23	6.72695e-08
3578.78	-7.86009e-08
3587.34	-1.04656e-07
3595.9	8.47945e-08
3604.46	1.33914e-07
3613.01	-2.2087e-08
3621.57	-7.1304e-10
3630.13	-1.30342e-07
3638.69	-2.79104e-08
3647.25	-9.93036e-08
3655.8	7.14486e-08
3664.36	1.171e-07
3672.92	1.9072e-09
3681.48	1.6019e-07
3690.03	3.80852e-07
3698.59	4.50065e-07
3707.15	5.4702e-07
3715.71	8.20758e-07
3724.26	7.20764e-07
3732.82	6.38237e-07
3741.38	6.3384e-07
3749.94	6.69567e-07
3758.49	7.5536e-07
3767.05	6.55681e-07
3775.61	1.68458e-07
3784.17	3.27765e-07
3792.73	5.02339e-08
3801.28	-8.53274e-08
3809.84	1.7961e-07
3818.4	-1.32793e-07
3826.96	-1.03739e-07
3835.51	1.56887e-08
3844.07	2.62013e-07
3852.63	-4.65213e-08
3861.19	-5.29451e-08
3869.74	-1.61012e-07
3878.3	-2.38138e-07
3886.86	-1.69984e-07
3895.42	2.2745e-07
3903.97	-1.15807e-07
3912.53	3.12364e-08
3921.09	2.74486e-07
3929.65	2.46943e-07
3938.21	4.18175e-07
3946.76	3.68451e-07
3955.32	5.67403e-07
3963.88	5.10114e-07
3972.44	2.96344e-07
