Infrared Spectrum: Dichloromethane
Formula: C H2 Cl2
CAS: 75-09-2
State: gas
Melting point: -95.1 C
Boiling point: 40 C
Class: IUPAC A
Instrument: IFS66V (Bruker)
Instrument parameters: KBr Beam Splitter; MCT Detector; Multipass cell
Sampling: 1 L/min Flow
Resolution: 0.9640
Temperature: 23 C
Pressure: 101.3 Pa
Origin: NIST, Analytical Chemistry Division, 301-975-3108
cm-1	(micromol/mol)-1m-1 (base 10)
575.17	5.56811e-07
583.848	5.77526e-08
592.526	5.44552e-07
601.205	-4.15755e-08
609.883	-2.31103e-07
618.561	2.7183e-07
627.239	2.09496e-07
635.917	3.91313e-07
644.595	3.87846e-07
653.274	9.66519e-07
661.952	2.55098e-06
670.63	5.91317e-06
679.308	9.97899e-06
687.986	1.75131e-05
696.665	2.60988e-05
705.343	3.76676e-05
714.021	2.98745e-05
722.699	7.23414e-05
731.377	7.556e-05
740.055	0.000290153
748.734	0.000830382
757.412	0.000618195
766.09	0.000683432
774.768	0.00010508
783.446	2.01155e-06
792.125	2.47938e-07
800.803	6.77661e-09
809.481	-7.18552e-08
818.159	1.71472e-07
826.837	8.4287e-08
835.515	-2.26353e-07
844.194	4.14054e-08
852.872	9.945e-08
861.55	3.97105e-07
870.228	6.63292e-07
878.906	1.65063e-06
887.584	2.75375e-06
896.263	6.04703e-06
904.941	2.94201e-06
913.619	3.26182e-06
922.297	2.99921e-06
930.975	1.84833e-06
939.654	1.13948e-06
948.332	5.37384e-07
957.01	2.79587e-07
965.688	1.91997e-07
974.366	3.04772e-07
983.044	3.82108e-07
991.723	2.37953e-07
1000.4	2.91039e-07
1009.08	2.49746e-07
1017.76	2.64956e-07
1026.44	2.77372e-07
1035.11	2.67313e-07
1043.79	4.12296e-07
1052.47	2.55003e-07
1061.15	8.26872e-08
1069.83	-8.27017e-08
1078.5	-8.99649e-08
1087.18	-9.5149e-08
1095.86	5.34262e-08
1104.54	-5.70323e-08
1113.22	-3.42123e-08
1121.9	-3.6476e-08
1130.57	3.22223e-08
1139.25	-1.89565e-08
1147.93	-3.93345e-08
1156.61	-3.25152e-08
1165.29	-7.50147e-09
1173.96	-1.54404e-08
1182.64	3.30845e-08
1191.32	6.80417e-08
1200	-6.47575e-08
1208.68	-3.59685e-08
1217.36	4.52062e-08
1226.03	9.69516e-10
1234.71	1.65534e-07
1243.39	3.68562e-06
1252.07	6.23892e-05
1260.75	0.000219223
1269.42	4.39564e-05
1278.1	0.000211293
1286.78	1.93687e-05
1295.46	1.26874e-07
1304.14	-4.26651e-08
1312.82	-2.29464e-09
1321.49	-2.22552e-08
1330.17	-3.04306e-08
1338.85	-5.67422e-08
1347.53	9.94164e-09
1356.21	-4.75891e-08
1364.88	-1.232e-07
1373.56	2.51647e-08
1382.24	1.92184e-08
1390.92	1.65702e-07
1399.6	1.41893e-07
1408.28	3.65963e-07
1416.95	5.19139e-07
1425.63	1.11315e-06
1434.31	1.193e-06
1442.99	2.76054e-06
1451.67	5.08984e-06
1460.34	7.49731e-06
1469.02	8.06948e-06
1477.7	5.56946e-06
1486.38	2.01601e-07
1495.06	8.01761e-08
1503.74	3.0146e-08
1512.41	-5.84675e-08
1521.09	-2.03757e-07
1529.77	7.50393e-08
1538.45	2.83593e-07
1547.13	3.6101e-07
1555.8	4.6488e-07
1564.48	1.14464e-07
1573.16	2.05326e-08
1581.84	1.8278e-08
1590.52	2.69245e-08
1599.2	8.59304e-08
1607.87	8.93783e-08
1616.55	-1.89337e-07
1625.23	3.84005e-08
1633.91	-4.73117e-09
1642.59	3.17075e-08
1651.26	-4.57537e-08
1659.94	1.96859e-08
1668.62	-3.19704e-08
1677.3	4.38374e-09
1685.98	-4.24414e-08
1694.66	-9.13128e-10
1703.33	-1.5987e-08
1712.01	8.89936e-09
1720.69	6.34551e-08
1729.37	5.79518e-08
1738.05	1.68838e-08
1746.72	2.68891e-08
1755.4	1.16606e-08
1764.08	1.45136e-08
1772.76	-6.02746e-08
1781.44	3.46125e-08
1790.12	6.71786e-08
1798.79	8.37113e-08
1807.47	2.83652e-08
1816.15	2.19987e-08
1824.83	-6.29722e-08
1833.51	-1.6409e-08
1842.18	5.31697e-08
1850.86	8.60832e-09
1859.54	-3.5371e-08
1868.22	5.08496e-09
1876.9	-4.4324e-08
1885.58	-4.81939e-08
1894.25	-5.70396e-08
1902.93	-8.1845e-09
1911.61	-3.30327e-09
1920.29	1.40607e-08
1928.97	-2.75894e-08
1937.64	-8.18395e-08
1946.32	1.32331e-09
1955	-6.95842e-08
1963.68	6.42473e-08
1972.36	1.91489e-07
1981.04	2.27258e-07
1989.71	3.4086e-07
1998.39	7.25655e-08
2007.07	8.15558e-08
2015.75	7.92129e-08
2024.43	3.93682e-08
2033.1	1.66519e-07
2041.78	2.1853e-07
2050.46	7.6936e-07
2059.14	6.67352e-07
2067.82	7.43643e-07
2076.5	5.37127e-08
2085.17	2.73365e-08
2093.85	2.06663e-08
2102.53	-2.79996e-08
2111.21	-3.51054e-08
2119.89	-3.83359e-08
2128.56	1.5171e-07
2137.24	2.36201e-07
2145.92	1.88193e-07
2154.6	3.05297e-07
2163.28	3.59645e-07
2171.96	4.57971e-07
2180.63	6.67619e-07
2189.31	4.33149e-07
2197.99	2.28124e-07
2206.67	-4.95345e-08
2215.35	-5.29087e-08
2224.02	-2.25326e-08
2232.7	5.591e-08
2241.38	4.23549e-09
2250.06	1.1828e-07
2258.74	1.15418e-07
2267.42	1.84013e-07
2276.09	3.85663e-07
2284.77	7.95144e-07
2293.45	1.29705e-06
2302.13	1.6677e-06
2310.81	2.029e-06
2319.48	5.09643e-06
2328.16	2.38056e-06
2336.84	1.69964e-06
2345.52	1.5563e-06
2354.2	1.462e-06
2362.88	1.65412e-06
2371.55	7.56832e-07
2380.23	2.18478e-07
2388.91	2.05249e-07
2397.59	2.38936e-07
2406.27	3.35532e-07
2414.94	8.98543e-07
2423.62	2.74075e-07
2432.3	2.71004e-07
2440.98	2.00493e-07
2449.66	1.77246e-07
2458.34	1.77041e-08
2467.01	9.49871e-09
2475.69	3.30209e-08
2484.37	1.8017e-09
2493.05	8.31201e-08
2501.73	-5.89077e-09
2510.4	-1.40999e-07
2519.08	-1.99557e-07
2527.76	-2.63675e-07
2536.44	-1.78236e-07
2545.12	-2.91329e-07
2553.8	-4.67979e-07
2562.47	-3.58269e-07
2571.15	-1.65219e-07
2579.83	-3.12437e-08
2588.51	-3.8385e-08
2597.19	7.85527e-08
2605.86	-2.20715e-08
2614.54	-5.35453e-08
2623.22	1.03911e-07
2631.9	1.59652e-08
2640.58	-5.59873e-08
2649.26	-2.93811e-08
2657.93	4.0867e-08
2666.61	-6.35079e-08
2675.29	1.25217e-07
2683.97	9.44598e-07
2692.65	2.47578e-06
2701.32	7.59667e-07
2710	2.22942e-06
2718.68	8.34521e-08
2727.36	-8.08446e-09
2736.04	1.24236e-09
2744.72	8.50091e-08
2753.39	7.59724e-08
2762.07	1.9605e-08
2770.75	3.46961e-08
2779.43	2.26254e-08
2788.11	-4.68478e-09
2796.78	-9.91526e-09
2805.46	9.87833e-08
2814.14	3.27134e-07
2822.82	4.00667e-07
2831.5	6.137e-07
2840.18	8.67748e-07
2848.85	9.91832e-07
2857.53	1.01716e-06
2866.21	1.05833e-06
2874.89	7.11354e-07
2883.57	4.93424e-07
2892.24	1.5306e-07
2900.92	1.22692e-07
2909.6	-2.09092e-09
2918.28	2.29975e-07
2926.96	1.4349e-07
2935.63	5.654e-07
2944.31	1.00552e-06
2952.99	2.5496e-06
2961.67	5.31134e-06
2970.35	7.62425e-06
2979.03	1.4207e-05
2987.7	2.0906e-05
2996.38	1.19737e-05
3005.06	2.49679e-05
3013.74	1.93323e-05
3022.42	1.21808e-05
3031.09	7.52705e-06
3039.77	4.04967e-06
3048.45	1.90008e-06
3057.13	7.31084e-07
3065.81	2.71709e-07
3074.49	1.24593e-07
3083.16	-2.70746e-08
3091.84	-1.73431e-08
3100.52	1.13113e-08
3109.2	-1.01304e-07
3117.88	1.00862e-09
3126.55	9.00022e-08
3135.23	-7.21626e-08
3143.91	8.41415e-08
3152.59	-1.07229e-08
3161.27	-1.35851e-08
3169.95	-5.91059e-08
3178.62	3.20686e-08
3187.3	-1.52112e-08
3195.98	-4.3379e-08
3204.66	3.64769e-08
3213.34	7.20834e-08
3222.01	-5.42893e-08
3230.69	-1.0732e-07
3239.37	-1.04366e-07
3248.05	1.07673e-07
3256.73	1.41635e-08
3265.41	7.31703e-08
3274.08	-2.70573e-09
3282.76	1.34896e-07
3291.44	4.14882e-08
3300.12	-5.14953e-08
3308.8	1.41135e-08
3317.47	1.69584e-08
3326.15	-6.95851e-08
3334.83	9.76247e-08
3343.51	-1.00917e-08
3352.19	-9.2396e-08
3360.87	-2.94575e-08
3369.54	-5.47786e-09
3378.22	-5.10679e-08
3386.9	-2.61615e-08
3395.58	6.36043e-08
3404.26	8.72738e-08
3412.93	1.67974e-08
3421.61	-3.81713e-09
3430.29	1.69356e-08
3438.97	-7.03154e-08
3447.65	4.70115e-09
3456.33	-3.57293e-08
3465	-9.84978e-10
3473.68	6.14251e-08
3482.36	1.55089e-07
3491.04	-7.33385e-08
3499.72	-7.32803e-08
3508.39	-7.3726e-08
3517.07	-1.87276e-07
3525.75	-1.46989e-07
3534.43	1.59224e-08
3543.11	1.66945e-07
3551.79	1.82956e-07
3560.46	2.38054e-07
3569.14	2.68145e-08
3577.82	3.82313e-08
3586.5	5.2865e-08
3595.18	-7.0118e-08
3603.85	-2.76303e-09
3612.53	-1.15422e-07
3621.21	-5.71305e-08
3629.89	-1.15248e-07
3638.57	-2.7352e-08
3647.25	-6.49212e-08
3655.92	-2.49282e-08
3664.6	2.70482e-09
3673.28	5.81228e-08
3681.96	1.87039e-07
3690.64	1.7435e-07
3699.31	4.38734e-07
3707.99	4.17378e-07
3716.67	5.80213e-07
3725.35	5.45267e-07
3734.03	5.23151e-07
3742.71	5.97167e-07
3751.38	7.30054e-07
3760.06	6.73637e-07
3768.74	7.33657e-07
3777.42	2.45206e-07
3786.1	3.09205e-07
3794.77	1.51188e-07
3803.45	-5.36736e-08
3812.13	8.7392e-08
3820.81	-1.20642e-07
3829.49	1.22923e-07
3838.17	-7.55586e-08
3846.84	2.60678e-08
3855.52	4.64186e-08
3864.2	5.76571e-08
3872.88	-2.78722e-08
3881.56	6.74842e-10
3890.23	3.725e-08
3898.91	-3.61068e-08
3907.59	1.90544e-07
3916.27	1.96825e-07
3924.95	1.60892e-07
3933.63	5.96007e-07
3942.3	5.62943e-07
3950.98	5.01614e-07
3959.66	5.90044e-07
3968.34	3.80146e-07
