Infrared Spectrum: Nitrile-Acetic Acid
Formula: C H3 C N
CAS: 75-05-8
State: gas
Melting point: -45.72 C
Boiling point: 81.6 C
Class: IUPAC A
Instrument: IFS66V (Bruker)
Instrument parameters: KBr Beam splitter; MCT Detector; Multipass cell
Sampling: 1 L/min Flow
Resolution: 1.9290
Temperature: 23 C
Pressure: 101.3 kPa
Origin: NIST, Anayltical Chemistry Division, 301-975-3108
cm-1	(micromol/mol)-1m-1 (base 10)
574.687	-1.38863e-07
583.365	-4.23191e-07
592.043	-2.87578e-07
600.721	-1.62053e-07
609.4	-8.74536e-08
618.078	-3.09967e-08
626.756	-5.59823e-08
635.434	-1.14048e-07
644.112	-5.52689e-08
652.79	6.56491e-08
661.469	2.45744e-09
670.147	2.50749e-07
678.825	4.40973e-07
687.503	1.83334e-06
696.181	5.54659e-06
704.859	6.60661e-06
713.537	3.85552e-06
722.216	4.88518e-06
730.894	5.20063e-06
739.572	2.43189e-06
748.25	6.47654e-07
756.928	6.57628e-08
765.606	-1.15732e-07
774.285	-1.0935e-07
782.963	-1.17052e-07
791.641	-1.28934e-07
800.319	-1.13217e-07
808.997	-1.69066e-07
817.675	-1.15911e-07
826.353	-1.22594e-07
835.032	-1.27662e-07
843.71	-5.99738e-08
852.388	-9.77846e-08
861.066	-1.11031e-07
869.744	-1.02166e-07
878.422	1.17633e-07
887.101	7.21617e-07
895.779	2.36609e-06
904.457	4.76673e-06
913.135	4.25407e-06
921.813	1.16099e-06
930.491	4.3e-06
939.169	3.08936e-06
947.848	6.73894e-07
956.526	1.05421e-09
965.204	6.81102e-08
973.882	2.13149e-07
982.56	5.5645e-07
991.238	1.16482e-06
999.917	2.50191e-06
1008.59	2.48737e-06
1017.27	3.00156e-06
1025.95	1.23802e-05
1034.63	3.98357e-06
1043.31	8.57509e-06
1051.99	5.41624e-06
1060.66	4.47651e-06
1069.34	4.77792e-06
1078.02	3.2083e-06
1086.7	2.23024e-06
1095.38	2.0098e-06
1104.05	9.6247e-07
1112.73	7.27004e-07
1121.41	2.75523e-07
1130.09	1.14807e-07
1138.77	1.49892e-08
1147.45	-2.40082e-08
1156.12	-2.54466e-08
1164.8	-4.5804e-08
1173.48	-3.41681e-08
1182.16	-6.70368e-08
1190.84	-3.2801e-08
1199.51	-4.15206e-08
1208.19	-1.56591e-09
1216.87	2.88217e-08
1225.55	3.06198e-08
1234.23	5.8189e-09
1242.9	8.29829e-08
1251.58	6.7725e-08
1260.26	1.5408e-07
1268.94	4.31186e-07
1277.62	5.91605e-07
1286.3	1.74232e-06
1294.97	1.9969e-06
1303.65	9.19929e-07
1312.33	1.37395e-06
1321.01	1.71709e-06
1329.69	3.15197e-06
1338.36	5.52476e-06
1347.04	3.20262e-06
1355.72	6.35779e-06
1364.4	1.24461e-05
1373.08	1.54741e-05
1381.76	1.29847e-05
1390.43	1.98223e-05
1399.11	2.45438e-05
1407.79	3.41416e-05
1416.47	2.15574e-05
1425.15	2.19499e-05
1433.82	2.51478e-05
1442.5	1.46869e-05
1451.18	1.95802e-05
1459.86	1.25473e-05
1468.54	1.66065e-05
1477.22	1.79387e-05
1485.89	1.45269e-05
1494.57	2.09646e-05
1503.25	1.19555e-05
1511.93	1.04617e-05
1520.61	1.12988e-05
1529.28	1.70326e-05
1537.96	1.0642e-05
1546.64	6.54797e-06
1555.32	9.60825e-06
1564	5.16139e-06
1572.67	3.22257e-06
1581.35	3.36096e-06
1590.03	2.26908e-06
1598.71	1.15126e-06
1607.39	7.09101e-07
1616.07	1.88026e-06
1624.74	7.67342e-07
1633.42	2.82581e-07
1642.1	1.61051e-07
1650.78	3.16525e-07
1659.46	8.86933e-08
1668.13	2.23412e-07
1676.81	9.75832e-08
1685.49	9.26938e-07
1694.17	1.68979e-07
1702.85	1.16658e-07
1711.53	6.59047e-08
1720.2	1.76932e-07
1728.88	2.05748e-07
1737.56	2.41226e-07
1746.24	2.91157e-07
1754.92	2.47653e-07
1763.59	2.90214e-07
1772.27	8.70089e-07
1780.95	3.78214e-07
1789.63	3.26582e-07
1798.31	3.41146e-07
1806.98	4.53975e-07
1815.66	5.32876e-07
1824.34	6.77079e-07
1833.02	4.3291e-07
1841.7	6.93322e-07
1850.38	5.86804e-07
1859.05	3.69898e-07
1867.73	3.60818e-07
1876.41	1.86268e-07
1885.09	2.12743e-07
1893.77	3.0818e-07
1902.44	3.826e-07
1911.12	1.97743e-07
1919.8	1.89748e-07
1928.48	1.1937e-07
1937.16	6.18217e-08
1945.84	5.53296e-08
1954.51	3.31862e-08
1963.19	1.504e-08
1971.87	1.44071e-08
1980.55	3.57218e-08
1989.23	1.19736e-08
1997.9	-9.63489e-10
2006.58	1.80567e-08
2015.26	2.77132e-09
2023.94	2.69517e-08
2032.62	4.04809e-08
2041.3	6.4125e-08
2049.97	1.64302e-07
2058.65	3.74949e-07
2067.33	3.64646e-07
2076.01	3.60824e-07
2084.69	4.7073e-07
2093.36	3.63006e-07
2102.04	1.81216e-07
2110.72	4.10684e-08
2119.4	1.01895e-07
2128.08	1.92403e-08
2136.75	6.90532e-08
2145.43	2.62485e-08
2154.11	4.69562e-08
2162.79	5.0338e-08
2171.47	5.72175e-08
2180.15	6.28184e-08
2188.82	6.37777e-08
2197.5	1.17148e-07
2206.18	1.26101e-07
2214.86	1.84842e-07
2223.54	3.56136e-07
2232.21	9.03098e-07
2240.89	2.3084e-06
2249.57	4.11902e-06
2258.25	3.57912e-06
2266.93	5.3996e-06
2275.61	6.43886e-06
2284.28	5.85916e-06
2292.96	4.05479e-06
2301.64	2.07581e-06
2310.32	4.5847e-06
2319	4.38661e-06
2327.67	1.73404e-06
2336.35	8.76826e-07
2345.03	5.75636e-07
2353.71	5.27562e-07
2362.39	6.7576e-07
2371.06	7.17689e-07
2379.74	1.03907e-06
2388.42	9.87214e-07
2397.1	1.08437e-06
2405.78	1.48411e-06
2414.46	1.28107e-06
2423.13	1.49807e-06
2431.81	1.43529e-06
2440.49	9.90834e-07
2449.17	9.68949e-07
2457.85	1.01664e-06
2466.52	8.17694e-07
2475.2	1.02908e-06
2483.88	1.0034e-06
2492.56	1.19926e-06
2501.24	8.04871e-07
2509.92	7.26749e-07
2518.59	5.57855e-07
2527.27	5.29949e-07
2535.95	4.43969e-07
2544.63	4.37163e-07
2553.31	4.33312e-07
2561.98	3.11843e-07
2570.66	2.49012e-07
2579.34	2.49045e-07
2588.02	4.50658e-07
2596.7	7.59053e-07
2605.38	1.21268e-06
2614.05	1.96422e-06
2622.73	3.8473e-06
2631.41	1.31277e-06
2640.09	9.55627e-07
2648.77	3.83619e-07
2657.44	2.76974e-07
2666.12	3.5933e-07
2674.8	2.01233e-07
2683.48	1.8188e-07
2692.16	1.58443e-07
2700.83	5.74725e-08
2709.51	6.42184e-08
2718.19	2.34585e-07
2726.87	2.67184e-07
2735.55	4.09714e-07
2744.23	4.49748e-07
2752.9	5.0455e-07
2761.58	5.22524e-07
2770.26	2.33165e-07
2778.94	2.10906e-07
2787.62	1.40132e-07
2796.29	3.08946e-07
2804.97	2.4716e-07
2813.65	1.50036e-07
2822.33	5.8173e-07
2831.01	5.01191e-07
2839.69	8.50254e-07
2848.36	1.73413e-06
2857.04	2.19315e-06
2865.72	2.14555e-06
2874.4	3.53035e-06
2883.08	4.06668e-06
2891.75	2.6983e-06
2900.43	2.94008e-06
2909.11	2.64131e-06
2917.79	2.14384e-06
2926.47	2.20739e-06
2935.14	5.92104e-06
2943.82	9.10775e-06
2952.5	5.09159e-06
2961.18	7.29429e-06
2969.86	9.83573e-06
2978.54	5.47215e-06
2987.21	3.37774e-06
2995.89	4.00055e-06
3004.57	6.92806e-06
3013.25	1.40451e-05
3021.93	7.51678e-06
3030.6	5.40061e-06
3039.28	4.57042e-06
3047.96	2.82844e-06
3056.64	2.22409e-06
3065.32	1.93978e-06
3074	1.78991e-06
3082.67	1.34421e-06
3091.35	1.12361e-06
3100.03	9.3196e-07
3108.71	6.35068e-07
3117.39	5.26652e-07
3126.06	4.02718e-07
3134.74	3.81095e-07
3143.42	5.99957e-07
3152.1	1.03787e-06
3160.78	1.97117e-06
3169.46	2.30211e-06
3178.13	2.71517e-06
3186.81	3.23846e-06
3195.49	3.25377e-06
3204.17	8.72943e-07
3212.85	5.55241e-07
3221.52	8.7344e-07
3230.2	9.30155e-07
3238.88	3.18883e-07
3247.56	2.16113e-07
3256.24	2.18636e-07
3264.91	1.85193e-07
3273.59	2.21308e-07
3282.27	1.63436e-07
3290.95	2.16402e-07
3299.63	2.33292e-07
3308.31	2.37485e-07
3316.98	3.18972e-07
3325.66	2.83875e-07
3334.34	2.95127e-07
3343.02	2.90304e-07
3351.7	3.54845e-07
3360.37	3.82108e-07
3369.05	3.32647e-07
3377.73	3.80216e-07
3386.41	4.15276e-07
3395.09	3.12379e-07
3403.77	3.42916e-07
3412.44	3.67723e-07
3421.12	3.39055e-07
3429.8	3.08704e-07
3438.48	2.97544e-07
3447.16	3.35262e-07
3455.83	2.33403e-07
3464.51	2.40878e-07
3473.19	2.13865e-07
3481.87	2.06238e-07
3490.55	2.49063e-07
3499.22	2.54854e-07
3507.9	2.45857e-07
3516.58	2.71773e-07
3525.26	2.83644e-07
3533.94	3.2581e-07
3542.62	3.07805e-07
3551.29	3.2875e-07
3559.97	2.96343e-07
3568.65	4.52759e-07
3577.33	2.8645e-07
3586.01	4.69801e-07
3594.68	3.53772e-07
3603.36	3.46109e-07
3612.04	5.25489e-07
3620.72	5.39117e-07
3629.4	1.08376e-06
3638.08	5.03774e-07
3646.75	8.73334e-07
3655.43	8.29674e-07
3664.11	5.52812e-07
3672.79	5.45992e-07
3681.47	6.56527e-07
3690.14	7.00571e-07
3698.82	4.79997e-07
3707.5	4.71297e-07
3716.18	4.46243e-07
3724.86	5.22516e-07
3733.54	5.55087e-07
3742.21	5.09454e-07
3750.89	8.0358e-07
3759.57	6.43587e-07
3768.25	4.40051e-07
3776.93	3.91415e-07
3785.6	4.52486e-07
3794.28	4.22754e-07
3802.96	5.89602e-07
3811.64	4.1226e-07
3820.32	8.08069e-07
3828.99	4.64416e-07
3837.67	1.30394e-06
3846.35	4.53831e-07
3855.03	1.30339e-06
3863.71	6.94347e-07
3872.39	5.40895e-07
3881.06	7.45828e-07
3889.74	6.33329e-07
3898.42	7.41348e-07
3907.1	6.78912e-07
3915.78	8.44959e-07
3924.45	9.43372e-07
3933.13	9.07242e-07
3941.81	8.40415e-07
3950.49	9.12238e-07
3959.17	8.54068e-07
3967.85	1.255e-06
