Infrared Spectrum: Dichloromethane
Formula: C H2 Cl2
CAS: 75-09-2
State: gas
Melting point: -95.1 C
Boiling point: 40 C
Class: IUPAC A
Instrument: IFS66V (Bruker)
Instrument parameters: KBr Beam Splitter; MCT Detector; Multipass cell
Sampling: 1 L/min Flow
Resolution: 0.1250
Temperature: 23 C
Pressure: 101.3 Pa
Origin: NIST, Analytical Chemistry Division, 301-975-3108
cm-1	(micromol/mol)-1m-1 (base 10)
575.05	-1.86688e-06
583.608	2.0323e-06
592.165	-8.03162e-07
600.723	-8.92889e-07
609.281	-3.56948e-07
617.838	-4.53334e-07
626.396	-5.12067e-07
634.954	2.16071e-06
643.511	-5.89231e-07
652.069	1.74018e-06
660.626	1.49051e-06
669.184	5.25387e-06
677.742	9.36229e-06
686.299	1.61867e-05
694.857	2.44211e-05
703.415	3.39088e-05
711.972	3.02354e-05
720.53	6.29403e-05
729.088	6.45693e-05
737.645	0.000192913
746.203	0.000686906
754.761	0.00066899
763.318	0.000729553
771.876	0.0002573
780.434	8.92015e-06
788.991	-6.79732e-07
797.549	1.30266e-07
806.106	5.43192e-07
814.664	-1.881e-07
823.222	4.21914e-07
831.779	3.14855e-07
840.337	-2.32595e-07
848.895	-3.02033e-07
857.452	1.7497e-07
866.01	4.09171e-07
874.568	9.63423e-07
883.125	1.49525e-06
891.683	3.08919e-06
900.241	3.27835e-06
908.798	3.46078e-06
917.356	2.94828e-06
925.914	2.38228e-06
934.471	1.45279e-06
943.029	8.23721e-07
951.586	1.79601e-07
960.144	-4.34027e-08
968.702	2.85399e-07
977.259	6.34979e-08
985.817	5.42806e-07
994.375	5.62562e-07
1002.93	3.76314e-07
1011.49	3.20052e-07
1020.05	3.94237e-07
1028.61	3.72315e-07
1037.16	1.26211e-07
1045.72	5.40182e-07
1054.28	-3.6375e-07
1062.84	-2.23767e-07
1071.39	-2.42465e-07
1079.95	-1.51317e-07
1088.51	7.53185e-08
1097.07	-7.87682e-08
1105.62	-1.80071e-07
1114.18	-3.58919e-07
1122.74	-4.66518e-07
1131.3	-2.36422e-07
1139.85	-2.51122e-07
1148.41	-5.06194e-07
1156.97	-3.01966e-07
1165.53	-4.61275e-08
1174.09	-2.35708e-07
1182.64	2.49249e-07
1191.2	2.56267e-07
1199.76	-5.96307e-08
1208.32	-2.40788e-07
1216.87	2.27232e-07
1225.43	-8.15349e-08
1233.99	-4.54154e-08
1242.55	2.93712e-06
1251.1	4.82205e-05
1259.66	0.000212698
1268.22	0.000293481
1276.78	0.000242308
1285.33	3.39595e-05
1293.89	5.25376e-07
1302.45	-2.98038e-07
1311.01	5.4858e-07
1319.57	-7.66518e-09
1328.12	4.92953e-08
1336.68	-1.00074e-07
1345.24	-2.40045e-07
1353.8	-1.64891e-08
1362.35	-3.01178e-07
1370.91	7.13131e-08
1379.47	-9.22268e-08
1388.03	-1.75284e-07
1396.58	4.22731e-09
1405.14	3.83238e-07
1413.7	7.05125e-07
1422.26	1.37274e-06
1430.81	1.45487e-06
1439.37	2.34577e-06
1447.93	3.73066e-06
1456.49	6.46522e-06
1465.05	7.63132e-06
1473.6	7.81788e-06
1482.16	5.59349e-07
1490.72	2.9981e-07
1499.28	2.52682e-07
1507.83	2.92087e-07
1516.39	5.62892e-08
1524.95	4.38283e-08
1533.51	-6.26075e-08
1542.06	2.36713e-07
1550.62	5.15054e-07
1559.18	4.55665e-07
1567.74	-1.34929e-07
1576.29	-1.31965e-07
1584.85	2.13698e-07
1593.41	1.11501e-07
1601.97	1.77041e-08
1610.53	1.92448e-09
1619.08	4.94044e-08
1627.64	-2.37035e-07
1636.2	-3.09766e-07
1644.76	-3.3835e-07
1653.31	-5.09465e-07
1661.87	-7.93566e-08
1670.43	-2.15143e-07
1678.99	-2.43792e-07
1687.54	-9.94736e-08
1696.1	-2.86801e-07
1704.66	3.94728e-08
1713.22	2.56084e-07
1721.77	-2.22871e-08
1730.33	4.96409e-08
1738.89	-5.97771e-08
1747.45	1.42563e-08
1756.01	-5.14817e-08
1764.56	1.59761e-07
1773.12	3.78484e-08
1781.68	-9.44414e-09
1790.24	2.13973e-07
1798.79	1.21808e-07
1807.35	-4.86377e-08
1815.91	-1.98901e-07
1824.47	-1.29483e-07
1833.02	-1.17785e-07
1841.58	-9.4687e-08
1850.14	7.59242e-08
1858.7	-5.64757e-08
1867.25	3.93718e-09
1875.81	2.25413e-07
1884.37	-6.68857e-08
1892.93	1.10545e-07
1901.49	1.35668e-07
1910.04	-1.09139e-10
1918.6	7.09457e-08
1927.16	-3.33965e-09
1935.72	-1.43215e-07
1944.27	-1.21232e-07
1952.83	-2.99853e-07
1961.39	-3.38521e-08
1969.95	2.95769e-07
1978.5	2.39909e-07
1987.06	3.85027e-07
1995.62	-1.19483e-07
2004.18	-1.67965e-08
2012.73	3.82886e-08
2021.29	-8.06245e-08
2029.85	8.46553e-09
2038.41	1.35183e-07
2046.97	5.05895e-07
2055.52	4.83136e-07
2064.08	8.7211e-07
2072.64	7.12022e-08
2081.2	-2.15058e-07
2089.75	-3.67252e-08
2098.31	1.90072e-07
2106.87	3.75423e-07
2115.43	1.63974e-07
2123.98	-1.21088e-07
2132.54	2.58111e-07
2141.1	2.61008e-07
2149.66	3.54825e-07
2158.21	4.18584e-08
2166.77	6.23375e-07
2175.33	5.58176e-07
2183.89	4.39215e-07
2192.45	1.33214e-07
2201	5.55453e-08
2209.56	1.53828e-07
2218.12	-8.4176e-08
2226.68	2.09808e-07
2235.23	-4.50452e-08
2243.79	1.48447e-07
2252.35	1.45079e-07
2260.91	2.91632e-07
2269.46	2.48345e-07
2278.02	2.65613e-07
2286.58	9.73279e-07
2295.14	1.179e-06
2303.69	2.03544e-06
2312.25	1.76846e-06
2320.81	2.45231e-06
2329.37	1.55503e-06
2337.93	2.02909e-06
2346.48	9.28382e-07
2355.04	8.51937e-07
2363.6	6.86699e-07
2372.16	5.52226e-07
2380.71	4.06276e-07
2389.27	1.28121e-07
2397.83	-1.4001e-07
2406.39	4.06668e-07
2414.94	8.4112e-07
2423.5	1.52006e-07
2432.06	3.15423e-07
2440.62	5.70006e-07
2449.17	1.36092e-07
2457.73	-8.14421e-08
2466.29	1.07745e-07
2474.85	-1.72808e-07
2483.41	-1.16076e-07
2491.96	-1.28942e-07
2500.52	1.65368e-07
2509.08	7.55077e-08
2517.64	-2.22852e-07
2526.19	-3.55189e-07
2534.75	-2.08511e-07
2543.31	-2.14873e-07
2551.87	-7.15199e-07
2560.42	-2.84475e-07
2568.98	-8.59532e-08
2577.54	2.35062e-07
2586.1	7.17669e-08
2594.65	1.64763e-08
2603.21	2.12415e-07
2611.77	6e-08
2620.33	8.83551e-08
2628.89	-1.82589e-07
2637.44	-3.24436e-07
2646	1.77584e-07
2654.56	-1.53858e-07
2663.12	-2.33074e-07
2671.67	2.65485e-07
2680.23	3.36765e-07
2688.79	2.04024e-06
2697.35	1.84456e-06
2705.9	2.95808e-06
2714.46	6.14023e-07
2723.02	1.80009e-07
2731.58	-2.61738e-07
2740.13	1.26499e-07
2748.69	1.03362e-07
2757.25	-3.55574e-08
2765.81	2.10371e-07
2774.37	1.05001e-08
2782.92	-1.04895e-07
2791.48	-1.43436e-08
2800.04	5.81273e-08
2808.6	3.00983e-07
2817.15	2.96395e-07
2825.71	4.30397e-07
2834.27	1.25779e-06
2842.83	1.12894e-06
2851.38	1.01156e-06
2859.94	1.469e-06
2868.5	7.6541e-07
2877.06	9.3045e-07
2885.61	2.53353e-07
2894.17	5.55871e-08
2902.73	-3.2497e-08
2911.29	2.74203e-07
2919.85	5.48567e-07
2928.4	-4.17671e-07
2936.96	4.71279e-07
2945.52	1.19992e-06
2954.08	3.01721e-06
2962.63	4.82403e-06
2971.19	1.27467e-05
2979.75	1.41781e-05
2988.31	2.6865e-05
2996.86	1.14989e-05
3005.42	3.16698e-05
3013.98	2.03395e-05
3022.54	1.19455e-05
3031.09	6.6797e-06
3039.65	3.8264e-06
3048.21	2.02969e-06
3056.77	8.3925e-07
3065.33	3.34013e-07
3073.88	2.40375e-07
3082.44	2.074e-07
3091	-3.74232e-07
3099.56	-2.53513e-07
3108.11	-1.82809e-07
3116.67	2.98883e-07
3125.23	2.91928e-08
3133.79	-6.64819e-08
3142.34	-5.20101e-08
3150.9	3.84172e-07
3159.46	1.77211e-07
3168.02	-2.50816e-07
3176.57	1.83087e-07
3185.13	-3.81559e-07
3193.69	3.49976e-07
3202.25	-5.15253e-08
3210.81	-3.28335e-08
3219.36	7.33013e-08
3227.92	-1.91545e-07
3236.48	-3.48365e-07
3245.04	2.86644e-07
3253.59	4.00461e-07
3262.15	6.91622e-08
3270.71	-3.622e-07
3279.27	4.50243e-08
3287.82	2.4736e-07
3296.38	2.05627e-07
3304.94	-3.87625e-07
3313.5	-3.0352e-07
3322.05	-2.03026e-07
3330.61	1.1075e-07
3339.17	4.89033e-08
3347.73	-2.74766e-07
3356.29	-9.52136e-08
3364.84	-6.24205e-07
3373.4	-4.48311e-07
3381.96	-1.07526e-07
3390.52	-1.92508e-07
3399.07	-3.58228e-07
3407.63	4.59982e-07
3416.19	-2.73222e-07
3424.75	-1.26652e-07
3433.3	2.37872e-07
3441.86	2.11566e-08
3450.42	6.23492e-08
3458.98	5.1167e-08
3467.53	-3.07732e-07
3476.09	-2.95906e-07
3484.65	-7.4027e-08
3493.21	-9.89798e-09
3501.77	3.81413e-08
3510.32	3.71411e-07
3518.88	-8.84941e-07
3527.44	3.40736e-07
3536	-2.63351e-07
3544.55	3.54913e-07
3553.11	1.0578e-07
3561.67	5.58635e-07
3570.23	1.69918e-07
3578.78	1.18788e-08
3587.34	-2.46277e-07
3595.9	3.91764e-07
3604.46	-1.26318e-07
3613.01	-2.10498e-07
3621.57	-2.32029e-08
3630.13	-3.57137e-07
3638.69	-5.51269e-08
3647.25	3.01837e-07
3655.8	3.65016e-07
3664.36	2.78322e-07
3672.92	1.33558e-07
3681.48	4.94854e-09
3690.03	2.88881e-07
3698.59	3.06797e-07
3707.15	5.69099e-07
3715.71	1.12534e-06
3724.26	8.48321e-07
3732.82	2.45851e-07
3741.38	2.4538e-08
3749.94	4.64514e-07
3758.49	9.32287e-07
3767.05	4.26241e-07
3775.61	3.08071e-07
3784.17	1.06111e-07
3792.73	7.17424e-08
3801.28	-1.69452e-07
3809.84	2.53334e-07
3818.4	-3.86772e-07
3826.96	-1.20337e-07
3835.51	-6.92959e-08
3844.07	2.12933e-07
3852.63	-4.20163e-07
3861.19	-3.35135e-07
3869.74	-7.6761e-10
3878.3	-4.80896e-07
3886.86	8.62042e-08
3895.42	4.32273e-07
3903.97	-9.68452e-08
3912.53	-1.82272e-07
3921.09	2.45399e-08
3929.65	5.81944e-07
3938.21	3.95464e-07
3946.76	7.84467e-07
3955.32	7.5976e-07
3963.88	1.97764e-07
3972.44	3.01413e-07
