Infrared Spectrum: Dichloromethane
Formula: C H2 Cl2
CAS: 75-09-2
State: gas
Melting point: -95.1 C
Boiling point: 40 C
Class: IUPAC A
Instrument: IFS66V (Bruker)
Instrument parameters: KBr Beam Splitter; MCT Detector; Multipass cell
Sampling: 1 L/min Flow
Resolution: 1.9290
Temperature: 23 C
Pressure: 101.3 Pa
Origin: NIST, Analytical Chemistry Division, 301-975-3108
cm-1	(micromol/mol)-1m-1 (base 10)
575.652	7.05826e-07
584.33	7.42107e-08
593.008	4.67183e-07
601.687	1.29149e-07
610.365	-2.61824e-08
619.043	-2.90391e-08
627.721	4.8506e-07
636.399	1.4621e-08
645.077	2.80589e-07
653.756	1.1787e-06
662.434	2.74194e-06
671.112	5.69985e-06
679.79	1.05439e-05
688.468	1.77018e-05
697.147	2.69482e-05
705.825	3.66625e-05
714.503	3.2781e-05
723.181	7.40298e-05
731.859	7.87692e-05
740.537	0.000314921
749.216	0.000850333
757.894	0.000619935
766.572	0.000657122
775.25	8.86448e-05
783.928	8.41626e-07
792.607	5.76776e-07
801.285	-2.06656e-07
809.963	2.83589e-07
818.641	-2.30008e-07
827.319	3.76407e-07
835.997	-3.91165e-07
844.676	2.24727e-07
853.354	-1.77331e-07
862.032	5.15073e-07
870.71	6.37402e-07
879.388	1.78185e-06
888.066	2.55098e-06
896.745	7.22221e-06
905.423	2.48099e-06
914.101	3.26724e-06
922.779	2.93564e-06
931.457	1.65032e-06
940.136	1.09244e-06
948.814	5.33331e-07
957.492	2.45622e-07
966.17	2.64272e-07
974.848	2.67439e-07
983.526	4.05892e-07
992.205	2.86094e-07
1000.88	3.47583e-07
1009.56	1.71435e-07
1018.24	2.23607e-07
1026.92	1.17405e-07
1035.6	3.2225e-07
1044.27	2.8146e-07
1052.95	1.99364e-07
1061.63	2.69027e-09
1070.31	-1.16581e-07
1078.99	-1.86036e-08
1087.66	-6.38889e-08
1096.34	1.37133e-08
1105.02	-3.69217e-08
1113.7	1.49302e-08
1122.38	-1.32869e-07
1131.06	-4.44732e-08
1139.73	-6.3918e-08
1148.41	-3.18394e-08
1157.09	-1.17972e-07
1165.77	1.61462e-08
1174.45	-7.07601e-08
1183.12	1.22581e-07
1191.8	-6.30513e-08
1200.48	8.12447e-08
1209.16	-1.2489e-07
1217.84	3.42338e-07
1226.52	-2.32286e-07
1235.19	5.11567e-07
1243.87	3.93955e-06
1252.55	7.07143e-05
1261.23	0.000221392
1269.91	3.43335e-05
1278.58	0.000199951
1287.26	1.47608e-05
1295.94	6.60345e-07
1304.62	-4.63898e-07
1313.3	3.2462e-07
1321.98	-3.33555e-07
1330.65	1.89007e-07
1339.33	-2.1155e-07
1348.01	1.1842e-07
1356.69	-2.19447e-07
1365.37	1.8338e-08
1374.04	-1.33329e-07
1382.72	1.84949e-07
1391.4	4.8655e-08
1400.08	3.89201e-07
1408.76	1.42711e-07
1417.44	6.48389e-07
1426.11	1.11135e-06
1434.79	1.36997e-06
1443.47	2.75279e-06
1452.15	5.35115e-06
1460.83	7.16114e-06
1469.5	8.29962e-06
1478.18	5.10875e-06
1486.86	1.81411e-07
1495.54	-4.96145e-08
1504.22	7.8137e-08
1512.9	-1.31095e-07
1521.57	-8.68317e-08
1530.25	2.02816e-09
1538.93	3.01045e-07
1547.61	4.93917e-07
1556.29	5.86525e-07
1564.96	-1.66928e-08
1573.64	7.77523e-08
1582.32	-1.00877e-07
1591	5.87376e-08
1599.68	3.85442e-09
1608.36	1.53574e-07
1617.03	-2.46952e-07
1625.71	8.6076e-08
1634.39	-9.98138e-08
1643.07	1.14842e-07
1651.75	-1.2683e-07
1660.42	1.12309e-07
1669.1	-2.24304e-07
1677.78	7.71748e-08
1686.46	-7.27183e-08
1695.14	4.90661e-08
1703.82	-8.7965e-08
1712.49	1.05284e-07
1721.17	-6.70385e-09
1729.85	1.08817e-07
1738.53	-3.69962e-08
1747.21	1.02109e-07
1755.88	-9.52782e-08
1764.56	9.67497e-08
1773.24	-6.34842e-08
1781.92	1.08975e-07
1790.6	-5.26376e-08
1799.28	1.09484e-07
1807.95	5.98008e-08
1816.63	5.23803e-08
1825.31	-7.47355e-08
1833.99	2.7643e-08
1842.67	2.05436e-08
1851.34	5.89186e-08
1860.02	-4.30789e-08
1868.7	5.7658e-08
1877.38	-9.63941e-08
1886.06	5.20456e-08
1894.74	-1.01545e-07
1903.41	1.47283e-08
1912.09	-6.95605e-08
1920.77	7.37123e-08
1929.45	-3.60831e-08
1938.13	-3.9732e-08
1946.8	-8.20324e-08
1955.48	-2.6588e-08
1964.16	3.83614e-08
1972.84	2.40843e-07
1981.52	1.61028e-07
1990.2	4.16686e-07
1998.87	-1.83562e-08
2007.55	1.44075e-07
2016.23	-1.89201e-08
2024.91	1.49938e-07
2033.59	9.09435e-08
2042.26	2.83324e-07
2050.94	7.76602e-07
2059.62	7.69457e-07
2068.3	7.32813e-07
2076.98	4.55218e-08
2085.66	-1.46264e-08
2094.33	5.5206e-08
2103.01	-1.57583e-07
2111.69	-7.44554e-08
2120.37	3.50972e-09
2129.05	2.14069e-07
2137.72	1.65956e-07
2146.4	2.33077e-07
2155.08	2.87269e-07
2163.76	4.64612e-07
2172.44	3.60602e-07
2181.12	7.28379e-07
2189.79	2.76895e-07
2198.47	2.19221e-07
2207.15	-9.65806e-08
2215.83	5.6061e-08
2224.51	-1.07832e-07
2233.18	6.46202e-08
2241.86	2.02725e-09
2250.54	1.14576e-07
2259.22	4.59811e-08
2267.9	1.90118e-07
2276.58	3.27626e-07
2285.25	8.71537e-07
2293.93	1.19424e-06
2302.61	1.96175e-06
2311.29	2.0206e-06
2319.97	3.62319e-06
2328.64	2.3764e-06
2337.32	2.13889e-06
2346	1.49436e-06
2354.68	1.28443e-06
2363.36	1.34215e-06
2372.04	6.53274e-07
2380.71	2.42867e-07
2389.39	2.29397e-07
2398.07	2.61863e-07
2406.75	4.12334e-07
2415.43	1.50631e-06
2424.1	2.77875e-07
2432.78	2.84229e-07
2441.46	2.05003e-07
2450.14	2.10679e-07
2458.82	4.68469e-08
2467.5	-4.58719e-08
2476.17	2.00179e-09
2484.85	6.38007e-09
2493.53	9.21814e-08
2502.21	-7.82325e-08
2510.89	-1.97356e-07
2519.56	-2.54908e-07
2528.24	-2.12947e-07
2536.92	8.47235e-08
2545.6	-2.99373e-07
2554.28	-4.58807e-07
2562.96	-3.14885e-07
2571.63	-1.24659e-07
2580.31	-3.99393e-08
2588.99	-1.25953e-07
2597.67	7.09075e-08
2606.35	-1.30421e-09
2615.02	1.30003e-08
2623.7	9.48698e-08
2632.38	-2.22252e-08
2641.06	-3.05825e-08
2649.74	-4.4435e-08
2658.42	4.50025e-08
2667.09	-1.19998e-08
2675.77	1.77828e-07
2684.45	1.07809e-06
2693.13	2.53517e-06
2701.81	7.705e-07
2710.48	2.04665e-06
2719.16	8.65071e-08
2727.84	2.37004e-08
2736.52	-3.12419e-08
2745.2	1.04975e-07
2753.88	9.81394e-08
2762.55	2.4458e-08
2771.23	9.38739e-08
2779.91	4.88915e-08
2788.59	-1.83835e-08
2797.27	8.2538e-08
2805.94	9.02087e-08
2814.62	3.65491e-07
2823.3	2.45049e-07
2831.98	6.25711e-07
2840.66	8.95762e-07
2849.34	1.0787e-06
2858.01	1.04198e-06
2866.69	1.14371e-06
2875.37	5.96167e-07
2884.05	6.18049e-07
2892.73	1.47172e-07
2901.4	2.33105e-07
2910.08	-8.27108e-08
2918.76	3.3034e-07
2927.44	-7.93948e-08
2936.12	7.85153e-07
2944.8	6.85029e-07
2953.47	3.25392e-06
2962.15	3.61157e-06
2970.83	9.3071e-06
2979.51	1.65097e-05
2988.19	2.25413e-05
2996.86	1.15962e-05
3005.54	2.59978e-05
3014.22	1.90078e-05
3022.9	1.19637e-05
3031.58	8.08644e-06
3040.26	3.6484e-06
3048.93	2.02366e-06
3057.61	4.08463e-07
3066.29	3.11234e-07
3074.97	-8.65625e-08
3083.65	1.04312e-07
3092.32	-1.94055e-07
3101	2.29721e-07
3109.68	-2.48763e-07
3118.36	1.36518e-07
3127.04	-6.17544e-10
3135.72	-5.2775e-08
3144.39	-3.61786e-08
3153.07	1.22394e-07
3161.75	-1.07709e-07
3170.43	8.47417e-08
3179.11	-1.25437e-07
3187.78	7.6781e-08
3196.46	-9.51063e-08
3205.14	7.82089e-08
3213.82	-7.40425e-08
3222.5	7.58669e-08
3231.18	-8.35021e-08
3239.85	4.5248e-08
3248.53	-2.60369e-08
3257.21	1.71027e-07
3265.89	-6.60062e-08
3274.57	2.11229e-08
3283.24	5.78226e-08
3291.92	1.04229e-07
3300.6	-9.34183e-08
3309.28	1.04664e-07
3317.96	-2.59168e-08
3326.64	2.30055e-08
3335.31	3.55883e-09
3343.99	-5.601e-08
3352.67	-1.99628e-07
3361.35	-7.35032e-08
3370.03	5.08023e-08
3378.7	9.83259e-08
3387.38	-1.06944e-07
3396.06	1.71589e-07
3404.74	-4.92134e-08
3413.42	1.2835e-07
3422.1	-4.68842e-08
3430.77	1.27713e-07
3439.45	-5.77808e-08
3448.13	-6.30904e-08
3456.81	-4.39211e-08
3465.49	4.39311e-08
3474.16	-1.82717e-09
3482.84	1.8699e-07
3491.52	-8.06645e-08
3500.2	-1.25883e-08
3508.88	-1.40374e-07
3517.56	-1.88881e-07
3526.23	-1.75898e-07
3534.91	1.04491e-08
3543.59	2.81369e-08
3552.27	1.43107e-07
3560.95	1.54789e-07
3569.62	1.16806e-08
3578.3	-2.76831e-08
3586.98	9.67697e-09
3595.66	-4.00685e-08
3604.34	8.1725e-08
3613.02	-1.49447e-07
3621.69	4.11453e-09
3630.37	-3.38339e-08
3639.05	-2.72147e-08
3647.73	-1.45308e-07
3656.41	-8.73538e-08
3665.08	-8.35458e-09
3673.76	1.55443e-07
3682.44	1.68931e-07
3691.12	1.36063e-07
3699.8	3.86849e-07
3708.48	4.11733e-07
3717.15	6.18628e-07
3725.83	5.42532e-07
3734.51	3.1722e-07
3743.19	6.43637e-07
3751.87	6.47608e-07
3760.54	6.9532e-07
3769.22	7.17069e-07
3777.9	2.84506e-07
3786.58	2.73159e-07
3795.26	1.51097e-07
3803.94	-1.67247e-07
3812.61	9.90635e-08
3821.29	-8.78276e-08
3829.97	1.40781e-07
3838.65	-1.82298e-08
3847.33	8.52274e-08
3856	1.06929e-07
3864.68	4.49652e-08
3873.36	-4.9499e-08
3882.04	7.43108e-08
3890.72	-9.79248e-09
3899.4	-3.2587e-09
3908.07	2.31723e-07
3916.75	2.37965e-07
3925.43	1.74877e-07
3934.11	5.19008e-07
3942.79	4.31202e-07
3951.46	5.51117e-07
3960.14	6.40901e-07
3968.82	4.54908e-07
