Infrared Spectrum: Dichloromethane
Formula: C H2 Cl2
CAS: 75-09-2
State: gas
Melting point: -95.1 C
Boiling point: 40 C
Class: IUPAC A
Instrument: IFS66V (Bruker)
Instrument parameters: KBr Beam Splitter; MCT Detector; Multipass cell
Sampling: 1 L/min Flow
Resolution: 1.9290
Temperature: 23 C
Pressure: 101.3 Pa
Origin: NIST, Analytical Chemistry Division, 301-975-3108
cm-1	(micromol/mol)-1m-1 (base 10)
575.652	3.28666e-07
584.33	7.27756e-08
593.008	3.89616e-07
601.687	2.48764e-07
610.365	-1.36736e-07
619.043	5.1549e-08
627.721	1.65527e-07
636.399	2.35209e-07
645.077	2.78729e-07
653.756	1.11626e-06
662.434	2.59772e-06
671.112	5.99624e-06
679.79	1.04593e-05
688.468	1.77906e-05
697.147	2.66645e-05
705.825	3.64372e-05
714.503	3.10627e-05
723.181	7.38555e-05
731.859	7.89973e-05
740.537	0.000316629
749.216	0.000839866
757.894	0.000645641
766.572	0.000654992
775.25	8.98294e-05
783.928	1.60447e-06
792.607	1.76436e-07
801.285	7.19334e-08
809.963	2.27673e-08
818.641	4.12999e-09
827.319	9.92608e-08
835.997	-1.79302e-07
844.676	6.12723e-09
853.354	2.36076e-08
862.032	4.0733e-07
870.71	7.91214e-07
879.388	1.7486e-06
888.066	2.48173e-06
896.745	7.29806e-06
905.423	2.77617e-06
914.101	3.39066e-06
922.779	2.84878e-06
931.457	1.78791e-06
940.136	1.09285e-06
948.814	5.25549e-07
957.492	2.30141e-07
966.17	2.1884e-07
974.848	2.91622e-07
983.526	3.58334e-07
992.205	3.07093e-07
1000.88	3.55197e-07
1009.56	2.20782e-07
1018.24	2.00899e-07
1026.92	2.38157e-07
1035.6	3.17328e-07
1044.27	3.39003e-07
1052.95	1.61889e-07
1061.63	-3.62177e-08
1070.31	-8.30146e-08
1078.99	-5.94552e-08
1087.66	-4.12872e-08
1096.34	-5.50423e-09
1105.02	-6.13833e-08
1113.7	-7.94922e-08
1122.38	-6.83573e-08
1131.06	-4.78756e-09
1139.73	-3.18913e-08
1148.41	-4.4796e-08
1157.09	-9.93254e-09
1165.77	-4.09198e-08
1174.45	-8.04444e-09
1183.12	2.19651e-08
1191.8	3.24033e-08
1200.48	-1.53249e-08
1209.16	-5.59973e-09
1217.84	5.88167e-08
1226.52	-5.07041e-09
1235.19	1.94354e-07
1243.87	4.51738e-06
1252.55	7.07381e-05
1261.23	0.000219567
1269.91	6.63077e-05
1278.58	0.000197794
1287.26	1.604e-05
1295.94	1.73522e-07
1304.62	-8.11674e-08
1313.3	1.19989e-08
1321.98	-6.47675e-08
1330.65	-2.13275e-08
1339.33	-3.83414e-08
1348.01	-6.84537e-08
1356.69	-4.39557e-08
1365.37	-1.07642e-07
1374.04	-2.15786e-08
1382.72	5.22675e-08
1391.4	1.14122e-07
1400.08	1.90093e-07
1408.76	3.23745e-07
1417.44	6.0574e-07
1426.11	1.12256e-06
1434.79	1.25887e-06
1443.47	2.86154e-06
1452.15	5.30134e-06
1460.83	7.31859e-06
1469.5	7.78003e-06
1478.18	5.19357e-06
1486.86	1.72723e-07
1495.54	4.06296e-08
1504.22	-4.7248e-09
1512.9	-5.43266e-08
1521.57	-1.46914e-07
1530.25	3.43214e-08
1538.93	2.55642e-07
1547.61	4.5787e-07
1556.29	4.86654e-07
1564.96	1.17392e-07
1573.64	1.43481e-08
1582.32	1.29511e-09
1591	3.72254e-09
1599.68	4.52944e-08
1608.36	8.75639e-08
1617.03	-1.07704e-07
1625.71	3.74355e-08
1634.39	-5.07123e-08
1643.07	6.83936e-10
1651.75	-1.06284e-07
1660.42	5.30142e-09
1669.1	-9.17775e-08
1677.78	8.03534e-09
1686.46	-5.7548e-08
1695.14	-3.94437e-08
1703.82	-1.69738e-08
1712.49	2.30028e-08
1721.17	3.68034e-08
1729.85	4.55009e-08
1738.53	1.47683e-08
1747.21	2.96003e-08
1755.88	-1.53449e-08
1764.56	4.18656e-08
1773.24	-4.91216e-09
1781.92	5.80873e-08
1790.6	3.32082e-08
1799.28	7.26864e-08
1807.95	6.58125e-08
1816.63	2.37468e-09
1825.31	-2.11302e-08
1833.99	-5.01857e-09
1842.67	1.22927e-08
1851.34	-4.56109e-09
1860.02	-2.02452e-08
1868.7	-1.11694e-08
1877.38	-2.50355e-08
1886.06	3.07226e-09
1894.74	-3.27544e-08
1903.41	-1.23081e-08
1912.09	-9.3441e-09
1920.77	1.34432e-08
1929.45	-7.37778e-09
1938.13	-7.11931e-08
1946.8	-1.75395e-08
1955.48	-3.23733e-08
1964.16	7.05573e-08
1972.84	2.07919e-07
1981.52	1.94484e-07
1990.2	3.38856e-07
1998.87	4.34764e-08
2007.55	8.07118e-08
2016.23	3.01741e-08
2024.91	6.91976e-08
2033.59	1.01089e-07
2042.26	2.39615e-07
2050.94	7.70243e-07
2059.62	6.00567e-07
2068.3	7.19515e-07
2076.98	3.06516e-08
2085.66	-1.60088e-08
2094.33	1.34732e-08
2103.01	-7.16514e-08
2111.69	-2.64134e-08
2120.37	2.37568e-08
2129.05	1.52644e-07
2137.72	2.12976e-07
2146.4	1.92521e-07
2155.08	3.52989e-07
2163.76	3.57264e-07
2172.44	4.45494e-07
2181.12	6.08651e-07
2189.79	3.41242e-07
2198.47	1.97342e-07
2207.15	-2.99477e-08
2215.83	-1.00108e-08
2224.51	-4.42776e-08
2233.18	4.36055e-08
2241.86	2.71337e-08
2250.54	8.09837e-08
2259.22	1.09747e-07
2267.9	1.6686e-07
2276.58	3.96469e-07
2285.25	7.96385e-07
2293.93	1.27875e-06
2302.61	1.83155e-06
2311.29	1.86007e-06
2319.97	3.92773e-06
2328.64	2.34883e-06
2337.32	2.28717e-06
2346	1.46911e-06
2354.68	1.30523e-06
2363.36	1.35282e-06
2372.04	6.71068e-07
2380.71	2.29905e-07
2389.39	2.50411e-07
2398.07	2.89059e-07
2406.75	3.73999e-07
2415.43	1.09908e-06
2424.1	2.9101e-07
2432.78	3.11758e-07
2441.46	2.08133e-07
2450.14	1.82848e-07
2458.82	3.61595e-08
2467.5	-1.43545e-08
2476.17	-1.48429e-09
2484.85	9.91253e-09
2493.53	7.47292e-08
2502.21	-3.26471e-08
2510.89	-1.36776e-07
2519.56	-2.01293e-07
2528.24	-2.23015e-07
2536.92	6.88866e-08
2545.6	-2.77746e-07
2554.28	-4.58133e-07
2562.96	-2.90556e-07
2571.63	-1.33618e-07
2580.31	-5.14935e-08
2588.99	-5.74707e-08
2597.67	6.17198e-08
2606.35	-1.89729e-08
2615.02	-6.32823e-09
2623.7	8.88435e-08
2632.38	-9.4496e-10
2641.06	-1.5907e-09
2649.74	-2.43443e-08
2658.42	3.77602e-08
2667.09	-2.02152e-08
2675.77	1.68185e-07
2684.45	1.09234e-06
2693.13	2.53324e-06
2701.81	1.03598e-06
2710.48	2.05887e-06
2719.16	9.34219e-08
2727.84	1.17488e-08
2736.52	-4.03177e-09
2745.2	3.0356e-08
2753.88	7.2148e-08
2762.55	4.92944e-10
2771.23	7.7132e-08
2779.91	1.85336e-08
2788.59	1.89792e-08
2797.27	9.62422e-09
2805.94	1.1016e-07
2814.62	2.87074e-07
2823.3	3.70632e-07
2831.98	5.74919e-07
2840.66	8.70419e-07
2849.34	9.59141e-07
2858.01	1.05115e-06
2866.69	1.12179e-06
2875.37	6.50635e-07
2884.05	4.74891e-07
2892.73	2.20458e-07
2901.4	1.21547e-07
2910.08	3.73018e-08
2918.76	1.79796e-07
2927.44	1.91212e-07
2936.12	5.58154e-07
2944.8	1.11886e-06
2953.47	2.74038e-06
2962.15	5.15294e-06
2970.83	9.20078e-06
2979.51	1.45873e-05
2988.19	2.30026e-05
2996.86	1.17179e-05
3005.54	2.55617e-05
3014.22	1.81433e-05
3022.9	1.23124e-05
3031.58	7.78919e-06
3040.26	3.93192e-06
3048.93	1.82188e-06
3057.61	6.5596e-07
3066.29	2.39581e-07
3074.97	1.33751e-07
3083.65	-1.25701e-08
3092.32	-4.14837e-08
3101	1.68565e-08
3109.68	-1.02917e-07
3118.36	1.8499e-09
3127.04	3.99403e-08
3135.72	-8.89981e-08
3144.39	1.05146e-08
3153.07	2.52747e-09
3161.75	-3.52955e-08
3170.43	-9.57238e-09
3179.11	-8.69927e-09
3187.78	2.82015e-08
3196.46	-2.39423e-08
3205.14	2.54748e-09
3213.82	3.94428e-08
3222.5	-1.67628e-08
3231.18	-4.17856e-08
3239.85	-6.11577e-08
3248.53	2.29273e-08
3257.21	7.01053e-08
3265.89	4.32362e-08
3274.57	5.15544e-08
3283.24	1.20432e-07
3291.92	3.94555e-08
3300.6	-1.73285e-08
3309.28	4.73135e-08
3317.96	3.55065e-08
3326.64	5.54061e-09
3335.31	1.42608e-08
3343.99	-1.43345e-08
3352.67	-6.92568e-08
3361.35	-6.69212e-08
3370.03	2.85334e-08
3378.7	-1.88719e-09
3387.38	1.60998e-08
3396.06	9.53655e-08
3404.74	-1.99106e-08
3413.42	2.89263e-08
3422.1	-1.31067e-08
3430.77	2.1996e-08
3439.45	-9.16493e-09
3448.13	-1.60962e-08
3456.81	-1.89065e-08
3465.49	8.28273e-09
3474.16	-3.44142e-08
3482.84	7.95258e-08
3491.52	-9.42495e-08
3500.2	-7.99051e-08
3508.88	-8.04699e-08
3517.56	-1.6616e-07
3526.23	-8.10829e-08
3534.91	-5.10497e-09
3543.59	7.43281e-08
3552.27	1.06197e-07
3560.95	1.48874e-07
3569.62	2.90518e-08
3578.3	1.71439e-08
3586.98	-1.74167e-08
3595.66	1.26292e-08
3604.34	1.52021e-08
3613.02	-4.82548e-08
3621.69	-1.07647e-08
3630.37	-3.78075e-08
3639.05	-5.27368e-08
3647.73	-8.97494e-08
3656.41	-7.18743e-08
3665.08	9.20768e-09
3673.76	6.94423e-08
3682.44	2.02912e-07
3691.12	2.05523e-07
3699.8	4.04447e-07
3708.48	3.97867e-07
3717.15	6.25907e-07
3725.83	5.27355e-07
3734.51	4.43859e-07
3743.19	5.87699e-07
3751.87	6.98669e-07
3760.54	6.69387e-07
3769.22	7.29721e-07
3777.9	2.7839e-07
3786.58	3.42943e-07
3795.26	1.69294e-07
3803.94	-1.34896e-08
3812.61	6.67193e-08
3821.29	-6.12232e-08
3829.97	7.3414e-08
3838.65	-3.53146e-08
3847.33	3.75865e-08
3856	4.0646e-08
3864.68	1.58806e-08
3873.36	-7.2932e-09
3882.04	1.76341e-08
3890.72	3.62941e-08
3899.4	3.51081e-08
3908.07	1.67894e-07
3916.75	1.78878e-07
3925.43	2.12229e-07
3934.11	5.16177e-07
3942.79	5.26717e-07
3951.46	4.95656e-07
3960.14	6.11981e-07
3968.82	3.50862e-07
