Infrared Spectrum: Nitrile-Acetic Acid
Formula: C H3 C N
CAS: 75-05-8
State: gas
Melting point: -45.72 C
Boiling point: 81.6 C
Class: IUPAC A
Instrument: IFS66V (Bruker)
Instrument parameters: KBr Beam splitter; MCT Detector; Multipass cell
Sampling: 1 L/min Flow
Resolution: 0.2410
Temperature: 23 C
Pressure: 101.3 kPa
Origin: NIST, Anayltical Chemistry Division, 301-975-3108
cm-1	(micromol/mol)-1m-1 (base 10)
575.048	-6.91641e-07
583.606	1.25167e-07
592.163	-5.3094e-07
600.721	-2.03185e-07
609.279	8.22033e-08
617.836	-1.26256e-07
626.394	-8.00015e-08
634.951	-2.4787e-08
643.509	2.56609e-07
652.067	7.38657e-08
660.624	-2.75836e-08
669.182	-1.56915e-07
677.74	2.82336e-07
686.297	1.62577e-06
694.855	5.07764e-06
703.412	7.7772e-06
711.97	3.14161e-06
720.528	4.45878e-06
729.085	5.88837e-06
737.643	2.67714e-06
746.201	8.70384e-07
754.758	2.01422e-07
763.316	8.98976e-09
771.873	-1.9453e-07
780.431	-1.1541e-07
788.989	-6.51561e-08
797.546	-1.48064e-07
806.104	-1.14786e-07
814.662	-1.39863e-07
823.219	-2.62366e-07
831.777	-1.69662e-07
840.334	-7.77951e-08
848.892	-1.5238e-07
857.45	-1.36229e-07
866.007	-6.09574e-08
874.565	-9.52407e-09
883.123	2.24283e-07
891.68	1.50878e-06
900.238	3.42432e-06
908.795	6.04526e-06
917.353	2.38243e-06
925.911	2.26274e-06
934.468	4.55606e-06
943.026	1.84152e-06
951.584	1.61281e-07
960.141	-2.06434e-08
968.699	1.29289e-07
977.256	2.22889e-07
985.814	8.15875e-07
994.372	1.30745e-06
1002.93	2.4064e-06
1011.49	2.66949e-06
1020.04	3.64169e-06
1028.6	3.44968e-06
1037.16	4.64331e-06
1045.72	4.53846e-06
1054.28	3.82383e-06
1062.83	4.21557e-06
1071.39	3.24922e-06
1079.95	2.83242e-06
1088.51	5.3724e-06
1097.06	1.01375e-06
1105.62	1.03061e-06
1114.18	4.67202e-07
1122.74	2.17939e-07
1131.29	1.39461e-07
1139.85	-4.9458e-08
1148.41	-3.92509e-08
1156.97	-1.13075e-07
1165.52	1.80486e-08
1174.08	-1.04174e-07
1182.64	-1.047e-07
1191.2	-8.56285e-08
1199.75	-7.14037e-08
1208.31	-2.74195e-08
1216.87	9.33727e-08
1225.43	-1.71837e-08
1233.99	-1.03335e-08
1242.54	3.81704e-08
1251.1	7.34114e-08
1259.66	1.00673e-07
1268.22	4.48933e-07
1276.77	4.85892e-07
1285.33	1.95641e-06
1293.89	6.27743e-07
1302.45	1.08109e-06
1311	1.85325e-06
1319.56	1.52792e-06
1328.12	3.34156e-06
1336.68	1.26804e-05
1345.23	3.55825e-06
1353.79	3.33827e-06
1362.35	8.70639e-06
1370.91	1.55015e-05
1379.46	1.44764e-05
1388.02	1.84829e-05
1396.58	2.57939e-05
1405.14	2.04731e-05
1413.7	1.72869e-05
1422.25	6.26328e-05
1430.81	1.37992e-05
1439.37	1.6014e-05
1447.93	1.55284e-05
1456.48	1.84647e-05
1465.04	2.50199e-05
1473.6	1.547e-05
1482.16	8.15587e-05
1490.71	1.44066e-05
1499.27	3.08916e-05
1507.83	1.46838e-05
1516.39	8.94568e-06
1524.94	9.29489e-06
1533.5	9.57291e-06
1542.06	1.65876e-05
1550.62	9.29885e-06
1559.18	4.82763e-06
1567.73	7.96115e-06
1576.29	6.487e-06
1584.85	2.14313e-06
1593.41	1.5737e-06
1601.96	1.51682e-06
1610.52	6.07459e-07
1619.08	6.09469e-07
1627.64	1.23133e-06
1636.19	4.77492e-07
1644.75	1.60846e-07
1653.31	4.4297e-06
1661.87	1.71805e-07
1670.42	1.10311e-07
1678.98	6.17628e-08
1687.54	-1.08551e-08
1696.1	2.34754e-06
1704.65	3.87555e-07
1713.21	3.34689e-09
1721.77	1.59349e-07
1730.33	3.03097e-07
1738.89	3.59679e-07
1747.44	2.22356e-07
1756	2.92144e-07
1764.56	2.85927e-07
1773.12	6.20855e-07
1781.67	3.09653e-07
1790.23	3.55717e-07
1798.79	3.44006e-07
1807.35	4.25813e-07
1815.9	5.12659e-07
1824.46	5.27688e-07
1833.02	4.2073e-07
1841.58	6.61934e-07
1850.13	7.02069e-07
1858.69	3.71979e-07
1867.25	2.91263e-07
1875.81	2.37027e-07
1884.36	2.15526e-07
1892.92	3.79037e-07
1901.48	4.066e-07
1910.04	2.86965e-07
1918.6	2.53253e-07
1927.15	1.36746e-07
1935.71	9.08734e-08
1944.27	-1.5161e-09
1952.83	8.87748e-08
1961.38	1.02253e-08
1969.94	4.33758e-08
1978.5	5.70881e-09
1987.06	7.21058e-08
1995.61	-1.84779e-08
2004.17	-8.23943e-09
2012.73	-1.44707e-08
2021.29	-3.91395e-09
2029.84	-6.69514e-09
2038.4	9.19471e-08
2046.96	1.38557e-07
2055.52	3.54627e-07
2064.08	4.75671e-07
2072.63	5.95914e-08
2081.19	5.16189e-07
2089.75	5.00232e-07
2098.31	2.69958e-07
2106.86	2.8464e-08
2115.42	1.67585e-08
2123.98	4.13177e-09
2132.54	3.17136e-09
2141.09	6.83538e-08
2149.65	1.16877e-08
2158.21	8.08964e-08
2166.77	9.39811e-09
2175.32	1.02436e-07
2183.88	-9.23395e-09
2192.44	8.57862e-08
2201	1.02595e-07
2209.55	1.11472e-07
2218.11	1.81247e-07
2226.67	5.21664e-07
2235.23	1.50626e-06
2243.79	3.34875e-06
2252.34	5.16373e-06
2260.9	3.50879e-06
2269.46	3.22644e-06
2278.02	7.03753e-06
2286.57	5.25468e-06
2295.13	3.23127e-06
2303.69	2.3936e-06
2312.25	5.1787e-06
2320.8	3.70287e-06
2329.36	1.38341e-06
2337.92	6.97211e-07
2346.48	4.56301e-07
2355.03	5.89761e-07
2363.59	6.07666e-07
2372.15	8.13917e-07
2380.71	8.43852e-07
2389.26	8.53258e-07
2397.82	1.19856e-06
2406.38	1.64504e-06
2414.94	1.23935e-06
2423.5	1.5415e-06
2432.05	1.51851e-06
2440.61	9.93671e-07
2449.17	9.76882e-07
2457.73	1.12738e-06
2466.28	8.51758e-07
2474.84	8.89841e-07
2483.4	1.03811e-06
2491.96	1.51905e-06
2500.51	7.20552e-07
2509.07	7.2323e-07
2517.63	5.78128e-07
2526.19	4.97709e-07
2534.74	6.76834e-07
2543.3	4.98483e-07
2551.86	3.33746e-07
2560.42	2.52787e-07
2568.98	2.75748e-07
2577.53	2.97831e-07
2586.09	4.14778e-07
2594.65	6.7312e-07
2603.21	1.22985e-06
2611.76	1.83413e-06
2620.32	3.64422e-06
2628.88	1.20405e-06
2637.44	1.16068e-06
2645.99	4.00602e-07
2654.55	2.19818e-07
2663.11	4.51198e-07
2671.67	1.4676e-07
2680.22	2.43211e-07
2688.78	1.87952e-07
2697.34	7.70702e-08
2705.9	1.62412e-07
2714.45	1.73011e-07
2723.01	2.73352e-07
2731.57	4.16864e-07
2740.13	4.04047e-07
2748.69	4.22222e-07
2757.24	6.56036e-07
2765.8	2.99428e-07
2774.36	2.91411e-07
2782.92	3.07392e-07
2791.47	1.69648e-07
2800.03	7.85723e-08
2808.59	5.22968e-07
2817.15	3.36511e-07
2825.7	4.22001e-07
2834.26	7.11684e-07
2842.82	9.15293e-07
2851.38	2.11289e-06
2859.93	2.32967e-06
2868.49	4.47276e-06
2877.05	4.04616e-06
2885.61	3.06438e-06
2894.16	2.90497e-06
2902.72	2.93603e-06
2911.28	2.60605e-06
2919.84	2.33365e-06
2928.4	3.78003e-06
2936.95	6.88674e-06
2945.51	8.96498e-06
2954.07	1.093e-05
2962.63	8.54427e-06
2971.18	8.96195e-06
2979.74	4.54945e-06
2988.3	2.1145e-06
2996.86	1.92364e-06
3005.41	2.63741e-06
3013.97	6.10772e-06
3022.53	2.42712e-05
3031.09	7.29921e-06
3039.64	3.55187e-06
3048.2	2.65271e-06
3056.76	2.01132e-06
3065.32	1.62756e-06
3073.88	1.69401e-06
3082.43	1.20875e-06
3090.99	1.069e-06
3099.55	9.059e-07
3108.11	3.84277e-07
3116.66	4.00717e-07
3125.22	3.74271e-07
3133.78	4.59092e-08
3142.34	4.88119e-07
3150.89	8.6129e-07
3159.45	1.92647e-06
3168.01	2.80779e-06
3176.57	1.26033e-06
3185.12	2.52388e-06
3193.68	3.8696e-06
3202.24	1.20605e-06
3210.8	5.54655e-07
3219.35	8.35358e-07
3227.91	1.12907e-06
3236.47	3.60336e-07
3245.03	2.18065e-07
3253.59	2.633e-07
3262.14	1.16379e-07
3270.7	2.12655e-07
3279.26	1.33017e-07
3287.82	2.20037e-07
3296.37	2.61529e-07
3304.93	3.77511e-07
3313.49	2.71008e-07
3322.05	2.81068e-07
3330.6	5.25632e-07
3339.16	3.69924e-07
3347.72	3.88143e-07
3356.28	5.64537e-07
3364.83	3.6461e-07
3373.39	1.70207e-07
3381.95	4.08649e-07
3390.51	4.59517e-07
3399.06	3.42958e-07
3407.62	2.66708e-07
3416.18	4.16552e-07
3424.74	3.25895e-07
3433.3	2.04089e-07
3441.85	2.64919e-07
3450.41	2.00795e-07
3458.97	2.97636e-07
3467.53	3.15275e-07
3476.08	2.80184e-07
3484.64	2.09767e-07
3493.2	1.53831e-07
3501.76	2.46301e-07
3510.31	2.92728e-07
3518.87	2.72235e-07
3527.43	3.96853e-07
3535.99	3.49652e-07
3544.54	1.84371e-07
3553.1	2.42005e-07
3561.66	3.24216e-07
3570.22	2.13263e-07
3578.78	2.52846e-07
3587.33	3.61361e-07
3595.89	3.03728e-07
3604.45	2.28906e-07
3613.01	5.65384e-07
3621.56	3.62747e-07
3630.12	4.08088e-07
3638.68	4.0759e-07
3647.24	1.28655e-06
3655.79	7.64794e-07
3664.35	4.21663e-07
3672.91	4.63762e-07
3681.47	5.53489e-07
3690.02	6.18453e-07
3698.58	4.2493e-07
3707.14	5.16064e-07
3715.7	3.76772e-07
3724.25	3.59342e-07
3732.81	5.35001e-07
3741.37	7.64991e-07
3749.93	6.65016e-07
3758.49	4.04519e-07
3767.04	4.08009e-07
3775.6	4.86346e-07
3784.16	3.82726e-07
3792.72	3.45712e-07
3801.27	2.4566e-06
3809.83	3.96081e-07
3818.39	5.49437e-07
3826.95	6.3271e-07
3835.5	4.20434e-07
3844.06	5.23796e-07
3852.62	6.38478e-07
3861.18	6.36899e-07
3869.73	7.86942e-07
3878.29	5.29704e-07
3886.85	4.82266e-07
3895.41	5.83815e-07
3903.96	1.02705e-06
3912.52	6.97166e-07
3921.08	8.91285e-07
3929.64	8.92658e-07
3938.2	8.67459e-07
3946.75	6.29458e-07
3955.31	7.55027e-07
3963.87	8.80417e-07
3972.43	8.58298e-07
