Infrared Spectrum: Dichloromethane
Formula: C H2 Cl2
CAS: 75-09-2
State: gas
Melting point: -95.1 C
Boiling point: 40 C
Class: IUPAC A
Instrument: IFS66V (Bruker)
Instrument parameters: KBr Beam Splitter; MCT Detector; Multipass cell
Sampling: 1 L/min Flow
Resolution: 0.1250
Temperature: 23 C
Pressure: 101.3 Pa
Origin: NIST, Analytical Chemistry Division, 301-975-3108
cm-1	(micromol/mol)-1m-1 (base 10)
575.05	-1.12858e-06
583.608	1.12885e-06
592.165	-3.92743e-07
600.723	-7.6938e-07
609.281	-8.48393e-07
617.838	1.02334e-07
626.396	-5.65556e-07
634.954	1.27571e-06
643.511	2.07521e-07
652.069	1.15342e-06
660.626	1.61677e-06
669.184	5.07779e-06
677.742	9.75397e-06
686.299	1.59261e-05
694.857	2.4232e-05
703.415	3.36316e-05
711.972	3.00095e-05
720.53	6.28088e-05
729.088	6.47665e-05
737.645	0.000193136
746.203	0.000689748
754.761	0.000666319
763.318	0.000725734
771.876	0.000256999
780.434	8.70601e-06
788.991	-2.28037e-07
797.549	2.08521e-07
806.106	6.04037e-07
814.664	-6.56624e-08
823.222	2.268e-07
831.779	3.01882e-07
840.337	-1.11703e-07
848.895	-2.20519e-07
857.452	1.56188e-07
866.01	5.13417e-07
874.568	1.01225e-06
883.125	1.73173e-06
891.683	2.886e-06
900.241	3.22849e-06
908.798	3.43955e-06
917.356	3.03015e-06
925.914	2.38286e-06
934.471	1.56244e-06
943.029	7.7834e-07
951.586	3.80802e-07
960.144	6.3074e-08
968.702	2.45698e-07
977.259	2.11258e-07
985.817	3.73837e-07
994.375	3.94539e-07
1002.93	4.58547e-07
1011.49	1.5689e-07
1020.05	2.28711e-07
1028.61	2.70548e-07
1037.16	1.67058e-07
1045.72	4.51473e-07
1054.28	-1.19572e-07
1062.84	-2.78936e-07
1071.39	-1.94044e-07
1079.95	-1.48688e-07
1088.51	2.01593e-07
1097.07	-1.35844e-07
1105.62	2.63661e-08
1114.18	-1.62013e-07
1122.74	-3.94492e-07
1131.3	-6.82409e-08
1139.85	-8.82487e-08
1148.41	-2.83207e-07
1156.97	-2.02218e-07
1165.53	-1.00657e-07
1174.09	-8.75875e-08
1182.64	1.71928e-07
1191.2	1.78488e-07
1199.76	-9.10436e-08
1208.32	-1.96684e-07
1216.87	1.06208e-07
1225.43	-6.56879e-08
1233.99	9.89962e-08
1242.55	2.8873e-06
1251.1	4.83158e-05
1259.66	0.000212451
1268.22	0.000292964
1276.78	0.000241717
1285.33	3.40551e-05
1293.89	5.39189e-07
1302.45	-2.20026e-07
1311.01	2.70411e-07
1319.57	-7.63617e-08
1328.12	3.733e-08
1336.68	-1.09024e-07
1345.24	-1.9776e-08
1353.8	5.10039e-07
1362.35	-2.35138e-07
1370.91	-2.99641e-08
1379.47	-7.6087e-08
1388.03	-4.50952e-08
1396.58	3.27325e-09
1405.14	3.38954e-07
1413.7	5.52361e-07
1422.26	1.302e-06
1430.81	1.34243e-06
1439.37	2.15376e-06
1447.93	3.72521e-06
1456.49	6.5324e-06
1465.05	7.62555e-06
1473.6	7.71344e-06
1482.16	4.19876e-07
1490.72	1.70736e-07
1499.28	1.78282e-07
1507.83	7.16533e-08
1516.39	8.2739e-08
1524.95	5.49996e-08
1533.51	-5.90623e-09
1542.06	1.59829e-07
1550.62	4.54045e-07
1559.18	4.69039e-07
1567.74	-7.78596e-08
1576.29	-1.684e-07
1584.85	1.21391e-07
1593.41	9.11091e-08
1601.97	3.93382e-08
1610.53	2.07182e-08
1619.08	1.40387e-07
1627.64	-1.00631e-07
1636.2	-1.45965e-07
1644.76	-1.71319e-07
1653.31	-4.48599e-07
1661.87	1.33468e-08
1670.43	-7.09148e-08
1678.99	-1.52861e-07
1687.54	-1.04061e-07
1696.1	-2.43138e-07
1704.66	5.21683e-08
1713.22	1.399e-07
1721.77	5.98135e-08
1730.33	7.3505e-08
1738.89	8.30546e-09
1747.45	-8.56212e-08
1756.01	-1.08147e-07
1764.56	6.55597e-08
1773.12	-3.39585e-08
1781.68	7.83571e-08
1790.24	1.64254e-07
1798.79	1.15178e-07
1807.35	-5.07505e-08
1815.91	-1.01589e-07
1824.47	-5.84684e-08
1833.02	2.17159e-08
1841.58	-7.67973e-08
1850.14	8.1935e-08
1858.7	-2.05135e-08
1867.25	-8.92992e-08
1875.81	6.03665e-08
1884.37	-7.23727e-08
1892.93	1.07357e-07
1901.49	8.20233e-08
1910.04	1.47883e-09
1918.6	8.4649e-08
1927.16	-2.03462e-08
1935.72	-1.14745e-07
1944.27	-1.5832e-07
1952.83	-1.93958e-07
1961.39	-1.15778e-09
1969.95	1.45133e-07
1978.5	2.25555e-07
1987.06	3.79051e-07
1995.62	-9.66588e-08
2004.18	4.83967e-08
2012.73	1.09512e-07
2021.29	5.14717e-08
2029.85	6.10723e-09
2038.41	1.03241e-07
2046.97	5.66933e-07
2055.52	5.93553e-07
2064.08	7.71178e-07
2072.64	2.60441e-07
2081.2	-3.04579e-08
2089.75	-6.39099e-09
2098.31	1.40849e-07
2106.87	1.57927e-07
2115.43	5.11015e-08
2123.98	-6.00554e-08
2132.54	2.03641e-07
2141.1	2.18511e-07
2149.66	2.35588e-07
2158.21	5.37099e-08
2166.77	5.18922e-07
2175.33	4.81982e-07
2183.89	4.08276e-07
2192.45	2.43967e-07
2201	4.38665e-08
2209.56	1.38674e-07
2218.12	-4.67796e-08
2226.68	7.32631e-08
2235.23	-5.92806e-09
2243.79	1.8044e-07
2252.35	1.16019e-07
2260.91	1.64916e-07
2269.46	3.1844e-07
2278.02	4.36502e-07
2286.58	9.27633e-07
2295.14	1.23563e-06
2303.69	1.82808e-06
2312.25	1.75022e-06
2320.81	2.51516e-06
2329.37	1.62711e-06
2337.93	2.06095e-06
2346.48	8.95387e-07
2355.04	9.13641e-07
2363.6	6.95337e-07
2372.16	4.35296e-07
2380.71	4.21168e-07
2389.27	2.22077e-07
2397.83	8.76348e-08
2406.39	3.83721e-07
2414.94	8.325e-07
2423.5	2.1883e-07
2432.06	1.78476e-07
2440.62	4.45723e-07
2449.17	1.39097e-07
2457.73	3.73991e-08
2466.29	1.56931e-07
2474.85	-1.43994e-07
2483.41	-3.94591e-08
2491.96	5.78436e-10
2500.52	9.38594e-08
2509.08	2.84852e-09
2517.64	-2.37886e-07
2526.19	-3.26498e-07
2534.75	-3.01361e-07
2543.31	-2.72848e-07
2551.87	-6.78196e-07
2560.42	-4.1481e-07
2568.98	-1.41489e-07
2577.54	9.76401e-08
2586.1	4.89106e-08
2594.65	6.3888e-08
2603.21	9.72163e-08
2611.77	-3.30145e-09
2620.33	6.93604e-08
2628.89	-3.84105e-08
2637.44	-1.47558e-07
2646	1.64137e-07
2654.56	-4.24068e-08
2663.12	-1.41105e-07
2671.67	3.67585e-07
2680.23	3.34836e-07
2688.79	2.01939e-06
2697.35	1.71925e-06
2705.9	2.90919e-06
2714.46	6.60835e-07
2723.02	6.8159e-08
2731.58	-1.86579e-07
2740.13	6.83682e-08
2748.69	-2.06936e-08
2757.25	1.18506e-07
2765.81	8.51683e-08
2774.37	-5.00583e-09
2782.92	-1.31658e-07
2791.48	4.46505e-08
2800.04	1.15872e-07
2808.6	3.13462e-07
2817.15	2.28225e-07
2825.71	3.6975e-07
2834.27	1.03758e-06
2842.83	1.24254e-06
2851.38	8.58522e-07
2859.94	1.28648e-06
2868.5	8.2183e-07
2877.06	7.30933e-07
2885.61	1.97216e-07
2894.17	4.44422e-08
2902.73	-3.43705e-08
2911.29	2.50936e-07
2919.85	3.54341e-07
2928.4	5.02002e-08
2936.96	5.2841e-07
2945.52	1.39978e-06
2954.08	2.98965e-06
2962.63	4.79542e-06
2971.19	1.26739e-05
2979.75	1.42575e-05
2988.31	2.64273e-05
2996.86	1.14148e-05
3005.42	3.07383e-05
3013.98	2.0163e-05
3022.54	1.21668e-05
3031.09	6.84407e-06
3039.65	3.98728e-06
3048.21	1.91973e-06
3056.77	7.76287e-07
3065.33	3.90561e-07
3073.88	3.06473e-07
3082.44	4.68096e-08
3091	-3.27181e-07
3099.56	-2.67339e-07
3108.11	-9.29572e-08
3116.67	2.16257e-07
3125.23	1.37493e-07
3133.79	8.66098e-08
3142.34	1.13365e-07
3150.9	2.42725e-07
3159.46	-1.7916e-08
3168.02	-2.21969e-07
3176.57	2.70091e-08
3185.13	-1.44466e-07
3193.69	2.43163e-07
3202.25	2.30528e-08
3210.81	-2.2227e-08
3219.36	1.90093e-07
3227.92	-1.34253e-07
3236.48	-1.74073e-07
3245.04	3.52537e-08
3253.59	1.88463e-07
3262.15	-5.5206e-08
3270.71	-1.03937e-07
3279.27	1.18097e-08
3287.82	2.03858e-07
3296.38	1.12478e-07
3304.94	-2.56512e-07
3313.5	-2.07537e-07
3322.05	8.3744e-08
3330.61	1.52807e-07
3339.17	-2.68027e-09
3347.73	-1.42084e-07
3356.29	-1.33982e-07
3364.84	-3.03252e-07
3373.4	-3.42555e-07
3381.96	3.81595e-08
3390.52	-1.56412e-07
3399.07	-1.78838e-07
3407.63	3.37638e-07
3416.19	-2.86562e-08
3424.75	-1.46118e-07
3433.3	1.55183e-07
3441.86	3.98102e-08
3450.42	-4.40439e-08
3458.98	2.60933e-09
3467.53	-2.50213e-07
3476.09	-1.45739e-07
3484.65	-1.42081e-07
3493.21	-2.67499e-08
3501.77	-3.80158e-08
3510.32	1.26084e-07
3518.88	-5.2563e-07
3527.44	1.75112e-07
3536	-2.63083e-07
3544.55	2.95899e-07
3553.11	1.93658e-07
3561.67	3.34422e-07
3570.23	1.32892e-07
3578.78	-7.88528e-10
3587.34	-1.49946e-07
3595.9	1.3156e-07
3604.46	-3.01159e-08
3613.01	-7.13895e-08
3621.57	-1.59043e-08
3630.13	-2.87659e-07
3638.69	-1.32657e-07
3647.25	2.66935e-09
3655.8	2.038e-07
3664.36	1.92493e-07
3672.92	7.77823e-08
3681.48	1.84829e-07
3690.03	3.51118e-07
3698.59	4.57607e-07
3707.15	6.36004e-07
3715.71	8.8636e-07
3724.26	8.16963e-07
3732.82	5.72939e-07
3741.38	3.57496e-07
3749.94	5.56066e-07
3758.49	8.83881e-07
3767.05	5.76571e-07
3775.61	2.22953e-07
3784.17	2.88035e-07
3792.73	6.3034e-08
3801.28	-1.0264e-07
3809.84	2.83935e-07
3818.4	-2.63369e-07
3826.96	-8.78622e-08
3835.51	-3.48698e-09
3844.07	2.22242e-07
3852.63	-1.55302e-07
3861.19	-1.24865e-07
3869.74	-8.49291e-08
3878.3	-4.10014e-07
3886.86	-1.21642e-07
3895.42	3.53988e-07
3903.97	-1.01845e-07
3912.53	-2.43707e-08
3921.09	1.84134e-07
3929.65	4.45948e-07
3938.21	3.86855e-07
3946.76	5.23276e-07
3955.32	6.16056e-07
3963.88	4.38206e-07
3972.44	3.10622e-07
