Infrared Spectrum: Nitrile-Acetic Acid
Formula: C H3 C N
CAS: 75-05-8
State: gas
Melting point: -45.72 C
Boiling point: 81.6 C
Class: IUPAC A
Instrument: IFS66V (Bruker)
Instrument parameters: KBr Beam splitter; MCT Detector; Multipass cell
Sampling: 1 L/min Flow
Resolution: 0.9640
Temperature: 23 C
Pressure: 101.3 kPa
Origin: NIST, Anayltical Chemistry Division, 301-975-3108
cm-1	(micromol/mol)-1m-1 (base 10)
575.169	-2.48936e-07
583.847	-6.54841e-07
592.525	-1.95028e-07
601.203	-1.16063e-07
609.882	-2.30005e-07
618.56	-9.45165e-08
627.238	-9.66735e-09
635.916	-1.60752e-07
644.594	-7.09588e-08
653.272	1.42195e-07
661.951	1.05238e-08
670.629	2.20248e-07
679.307	5.42776e-07
687.985	1.93595e-06
696.663	5.81653e-06
705.341	6.43269e-06
714.019	2.58454e-06
722.698	5.1299e-06
731.376	5.06162e-06
740.054	2.30988e-06
748.732	5.95578e-07
757.41	2.85328e-08
766.088	-8.84976e-08
774.767	-1.0202e-07
783.445	-1.31163e-07
792.123	-1.25706e-07
800.801	-7.91968e-08
809.479	-8.58093e-08
818.157	-4.64021e-08
826.835	-1.11232e-07
835.514	-1.91078e-07
844.192	-8.01574e-08
852.87	-7.80656e-08
861.548	-4.80775e-08
870.226	-1.05312e-07
878.904	1.22463e-07
887.583	7.96671e-07
896.261	2.4961e-06
904.939	4.86483e-06
913.617	4.08308e-06
922.295	1.14962e-06
930.973	4.39951e-06
939.651	2.94966e-06
948.33	5.71207e-07
957.008	1.15965e-08
965.686	1.05363e-07
974.364	2.37136e-07
983.042	6.04314e-07
991.72	1.40436e-06
1000.4	2.43083e-06
1009.08	2.34804e-06
1017.75	3.03098e-06
1026.43	1.00581e-05
1035.11	4.12073e-06
1043.79	3.91487e-06
1052.47	5.60807e-06
1061.15	3.80062e-06
1069.82	5.25306e-06
1078.5	3.37569e-06
1087.18	2.3264e-06
1095.86	1.30241e-06
1104.54	1.01523e-06
1113.21	7.11791e-07
1121.89	2.37355e-07
1130.57	1.36919e-07
1139.25	1.38992e-08
1147.93	-9.93995e-09
1156.61	-3.67068e-08
1165.28	-2.44935e-09
1173.96	-5.33723e-08
1182.64	-5.46587e-08
1191.32	-6.10025e-08
1200	-2.87824e-08
1208.67	-4.98305e-09
1217.35	1.43296e-08
1226.03	2.40456e-08
1234.71	4.21967e-08
1243.39	6.5946e-08
1252.07	9.65243e-08
1260.74	1.32053e-07
1269.42	4.11807e-07
1278.1	5.89344e-07
1286.78	1.40958e-06
1295.46	3.63761e-06
1304.13	9.03707e-07
1312.81	1.37521e-06
1321.49	1.83311e-06
1330.17	3.09694e-06
1338.85	4.42569e-06
1347.52	2.89971e-06
1356.2	4.21037e-06
1364.88	1.18177e-05
1373.56	1.58405e-05
1382.24	1.32583e-05
1390.92	1.91843e-05
1399.59	2.40065e-05
1408.27	3.12908e-05
1416.95	2.27747e-05
1425.63	1.84129e-05
1434.31	3.53986e-05
1442.98	1.47677e-05
1451.66	1.61242e-05
1460.34	1.28849e-05
1469.02	1.61364e-05
1477.7	1.9536e-05
1486.38	1.43018e-05
1495.05	2.6487e-05
1503.73	1.17154e-05
1512.41	1.00247e-05
1521.09	1.06104e-05
1529.77	9.69566e-06
1538.44	1.07157e-05
1547.12	6.81888e-06
1555.8	7.61609e-06
1564.48	4.91528e-06
1573.16	4.31222e-06
1581.83	2.72525e-06
1590.51	2.05165e-06
1599.19	1.34899e-06
1607.87	6.66038e-07
1616.55	2.53648e-06
1625.23	5.75502e-07
1633.9	2.52848e-07
1642.58	1.82239e-07
1651.26	2.76379e-07
1659.94	8.75636e-08
1668.62	2.93098e-07
1677.29	2.90605e-08
1685.97	1.30263e-07
1694.65	1.92482e-07
1703.33	9.27897e-08
1712.01	7.68825e-08
1720.69	1.22251e-07
1729.36	2.46656e-07
1738.04	2.3764e-07
1746.72	2.79468e-07
1755.4	2.43101e-07
1764.08	2.76847e-07
1772.75	1.33171e-06
1781.43	3.25882e-07
1790.11	3.38522e-07
1798.79	3.58597e-07
1807.47	4.73326e-07
1816.15	5.48741e-07
1824.82	7.55465e-07
1833.5	4.80562e-07
1842.18	6.67589e-07
1850.86	5.69404e-07
1859.54	3.5573e-07
1868.21	3.80861e-07
1876.89	1.66006e-07
1885.57	2.03467e-07
1894.25	2.88457e-07
1902.93	3.77586e-07
1911.6	1.72867e-07
1920.28	1.91508e-07
1928.96	1.15712e-07
1937.64	7.24892e-08
1946.32	6.46009e-08
1955	2.56778e-08
1963.67	-3.28285e-09
1972.35	2.62235e-08
1981.03	3.21355e-08
1989.71	3.58206e-09
1998.39	-4.41897e-09
2007.06	4.61382e-09
2015.74	4.24072e-09
2024.42	5.58041e-08
2033.1	3.57778e-08
2041.78	1.00603e-07
2050.46	1.50505e-07
2059.13	3.77927e-07
2067.81	3.48833e-07
2076.49	4.34889e-07
2085.17	5.47246e-07
2093.85	3.32751e-07
2102.52	1.88231e-07
2111.2	7.21697e-08
2119.88	6.77631e-08
2128.56	4.19979e-09
2137.24	7.39882e-08
2145.91	1.81972e-08
2154.59	4.86428e-08
2163.27	2.91057e-08
2171.95	5.98282e-08
2180.63	6.23892e-08
2189.31	7.59471e-08
2197.98	1.34878e-07
2206.66	1.09706e-07
2215.34	2.4409e-07
2224.02	3.78069e-07
2232.7	9.60267e-07
2241.37	2.39684e-06
2250.05	4.22609e-06
2258.73	3.45742e-06
2267.41	2.73342e-06
2276.09	6.57815e-06
2284.77	5.73315e-06
2293.44	4.03691e-06
2302.12	1.88599e-06
2310.8	4.61982e-06
2319.48	4.25074e-06
2328.16	1.60554e-06
2336.83	7.41417e-07
2345.51	6.03009e-07
2354.19	5.81736e-07
2362.87	7.47946e-07
2371.55	7.79663e-07
2380.23	1.03449e-06
2388.9	9.01974e-07
2397.58	1.12436e-06
2406.26	1.57983e-06
2414.94	1.27358e-06
2423.62	1.56389e-06
2432.29	1.49943e-06
2440.97	1.04373e-06
2449.65	8.78357e-07
2458.33	1.01334e-06
2467.01	8.04968e-07
2475.68	1.11591e-06
2484.36	9.77936e-07
2493.04	9.89275e-07
2501.72	9.02745e-07
2510.4	6.94833e-07
2519.08	5.44317e-07
2527.75	5.43588e-07
2536.43	4.43445e-07
2545.11	3.6414e-07
2553.79	4.58235e-07
2562.47	3.40813e-07
2571.14	2.58101e-07
2579.82	2.21419e-07
2588.5	4.38313e-07
2597.18	8.08883e-07
2605.86	1.24846e-06
2614.54	2.04614e-06
2623.21	3.30991e-06
2631.89	1.28375e-06
2640.57	9.10796e-07
2649.25	3.92051e-07
2657.93	2.89141e-07
2666.6	3.60531e-07
2675.28	2.49252e-07
2683.96	1.77306e-07
2692.64	1.5196e-07
2701.32	6.99739e-08
2709.99	1.03576e-07
2718.67	2.9481e-07
2727.35	2.6816e-07
2736.03	4.0925e-07
2744.71	4.83386e-07
2753.39	4.75239e-07
2762.06	4.78202e-07
2770.74	1.98002e-07
2779.42	2.22089e-07
2788.1	1.27479e-07
2796.78	2.10413e-07
2805.45	2.47457e-07
2814.13	1.87805e-07
2822.81	6.67365e-07
2831.49	5.03275e-07
2840.17	7.33974e-07
2848.85	1.88641e-06
2857.52	2.19236e-06
2866.2	2.22546e-06
2874.88	3.67891e-06
2883.56	4.00319e-06
2892.24	2.90827e-06
2900.91	2.91494e-06
2909.59	2.5369e-06
2918.27	2.14298e-06
2926.95	2.42009e-06
2935.63	6.15053e-06
2944.31	9.11583e-06
2952.98	5.97095e-06
2961.66	7.66814e-06
2970.34	9.63818e-06
2979.02	5.10391e-06
2987.7	2.574e-06
2996.37	2.24889e-06
3005.05	3.76396e-06
3013.73	1.35055e-05
3022.41	1.26203e-05
3031.09	8.0195e-06
3039.76	5.61083e-06
3048.44	3.0959e-06
3057.12	2.39409e-06
3065.8	1.8961e-06
3074.48	1.81748e-06
3083.16	1.44576e-06
3091.83	1.2552e-06
3100.51	1.01477e-06
3109.19	8.33241e-07
3117.87	5.92242e-07
3126.55	4.70532e-07
3135.22	5.06541e-07
3143.9	6.0543e-07
3152.58	1.05485e-06
3161.26	1.97521e-06
3169.94	2.28694e-06
3178.62	3.28028e-06
3187.29	3.41107e-06
3195.97	3.1058e-06
3204.65	8.47997e-07
3213.33	5.48019e-07
3222.01	9.43721e-07
3230.68	8.93716e-07
3239.36	3.1135e-07
3248.04	2.30556e-07
3256.72	2.14113e-07
3265.4	1.96824e-07
3274.07	1.77498e-07
3282.75	1.44299e-07
3291.43	1.93259e-07
3300.11	2.69478e-07
3308.79	2.43526e-07
3317.47	3.50084e-07
3326.14	2.70499e-07
3334.82	3.0418e-07
3343.5	3.1503e-07
3352.18	3.48834e-07
3360.86	3.9169e-07
3369.53	2.98051e-07
3378.21	3.91797e-07
3386.89	4.2779e-07
3395.57	3.4826e-07
3404.25	3.33886e-07
3412.93	3.16622e-07
3421.6	3.39183e-07
3430.28	2.99485e-07
3438.96	3.19548e-07
3447.64	3.32388e-07
3456.32	1.58109e-07
3464.99	2.48024e-07
3473.67	2.1395e-07
3482.35	2.08075e-07
3491.03	2.01326e-07
3499.71	2.86913e-07
3508.39	2.96444e-07
3517.06	3.0413e-07
3525.74	2.90585e-07
3534.42	3.54201e-07
3543.1	3.12395e-07
3551.78	3.08708e-07
3560.45	3.21392e-07
3569.13	3.53918e-07
3577.81	2.78866e-07
3586.49	6.37053e-07
3595.17	4.15316e-07
3603.84	3.26354e-07
3612.52	7.48312e-07
3621.2	4.65174e-07
3629.88	1.15288e-06
3638.56	4.88393e-07
3647.24	1.09338e-06
3655.91	1.06305e-06
3664.59	5.2618e-07
3673.27	5.67141e-07
3681.95	6.71297e-07
3690.63	7.23273e-07
3699.3	4.81727e-07
3707.98	4.73219e-07
3716.66	4.68352e-07
3725.34	5.6761e-07
3734.02	5.4034e-07
3742.7	4.63348e-07
3751.37	7.2471e-07
3760.05	7.66031e-07
3768.73	4.2491e-07
3777.41	3.86438e-07
3786.09	4.60671e-07
3794.76	4.15747e-07
3803.44	5.0294e-07
3812.12	4.08636e-07
3820.8	1.08314e-06
3829.48	4.84257e-07
3838.16	1.66712e-06
3846.83	4.74226e-07
3855.51	5.46321e-07
3864.19	7.68859e-07
3872.87	4.88892e-07
3881.55	6.12452e-07
3890.22	5.74366e-07
3898.9	8.81564e-07
3907.58	6.17679e-07
3916.26	8.5788e-07
3924.94	9.85956e-07
3933.61	7.88515e-07
3942.29	9.00934e-07
3950.97	8.00955e-07
3959.65	8.55225e-07
3968.33	9.71031e-07
