Infrared Spectrum: Dichloromethane
Formula: C H2 Cl2
CAS: 75-09-2
State: gas
Melting point: -95.1 C
Boiling point: 40 C
Class: IUPAC A
Instrument: IFS66V (Bruker)
Instrument parameters: KBr Beam Splitter; MCT Detector; Multipass cell
Sampling: 1 L/min Flow
Resolution: 1.9290
Temperature: 23 C
Pressure: 101.3 Pa
Origin: NIST, Analytical Chemistry Division, 301-975-3108
cm-1	(micromol/mol)-1m-1 (base 10)
575.652	3.2123e-07
584.33	6.92186e-08
593.008	3.85632e-07
601.687	2.47226e-07
610.365	-1.34437e-07
619.043	4.92034e-08
627.721	1.65812e-07
636.399	2.32179e-07
645.077	2.8012e-07
653.756	1.11546e-06
662.434	2.59939e-06
671.112	5.99388e-06
679.79	1.04674e-05
688.468	1.77918e-05
697.147	2.66693e-05
705.825	3.64371e-05
714.503	3.11121e-05
723.181	7.38075e-05
731.859	7.90648e-05
740.537	0.00031675
749.216	0.000839436
757.894	0.000645155
766.572	0.000654651
775.25	9.0002e-05
783.928	1.60184e-06
792.607	1.83255e-07
801.285	6.66074e-08
809.963	2.5171e-08
818.641	-1.03682e-10
827.319	1.00739e-07
835.997	-1.80568e-07
844.676	8.72474e-09
853.354	2.05236e-08
862.032	4.07364e-07
870.71	7.89505e-07
879.388	1.75103e-06
888.066	2.48196e-06
896.745	7.26871e-06
905.423	2.77405e-06
914.101	3.38773e-06
922.779	2.85107e-06
931.457	1.7869e-06
940.136	1.09254e-06
948.814	5.25595e-07
957.492	2.29806e-07
966.17	2.18855e-07
974.848	2.925e-07
983.526	3.58274e-07
992.205	3.06866e-07
1000.88	3.54832e-07
1009.56	2.18314e-07
1018.24	2.01298e-07
1026.92	2.3807e-07
1035.6	3.1719e-07
1044.27	3.38161e-07
1052.95	1.60058e-07
1061.63	-3.67661e-08
1070.31	-8.26008e-08
1078.99	-5.91141e-08
1087.66	-4.05623e-08
1096.34	-6.52559e-09
1105.02	-6.11186e-08
1113.7	-7.7856e-08
1122.38	-6.89794e-08
1131.06	-5.71342e-09
1139.73	-3.21259e-08
1148.41	-4.37046e-08
1157.09	-1.01108e-08
1165.77	-3.92772e-08
1174.45	-8.52829e-09
1183.12	2.35703e-08
1191.8	3.12319e-08
1200.48	-1.35569e-08
1209.16	-7.41325e-09
1217.84	6.18289e-08
1226.52	-7.80797e-09
1235.19	1.98768e-07
1243.87	4.52317e-06
1252.55	7.07915e-05
1261.23	0.000219342
1269.91	6.79258e-05
1278.58	0.000197751
1287.26	1.60737e-05
1295.94	1.81681e-07
1304.62	-8.65452e-08
1313.3	1.6188e-08
1321.98	-6.81754e-08
1330.65	-1.76878e-08
1339.33	-4.03095e-08
1348.01	-6.42245e-08
1356.69	-4.85668e-08
1365.37	-1.04912e-07
1374.04	-2.40114e-08
1382.72	5.45321e-08
1391.4	1.11775e-07
1400.08	1.92212e-07
1408.76	3.22177e-07
1417.44	6.05964e-07
1426.11	1.1211e-06
1434.79	1.26107e-06
1443.47	2.86055e-06
1452.15	5.30302e-06
1460.83	7.32083e-06
1469.5	7.76545e-06
1478.18	5.18762e-06
1486.86	1.74276e-07
1495.54	4.02104e-08
1504.22	-4.15546e-09
1512.9	-5.50769e-08
1521.57	-1.44304e-07
1530.25	3.34865e-08
1538.93	2.57797e-07
1547.61	4.55218e-07
1556.29	4.86808e-07
1564.96	1.16733e-07
1573.64	1.48529e-08
1582.32	-2.36467e-11
1591	5.08587e-09
1599.68	4.43094e-08
1608.36	8.78231e-08
1617.03	-1.07089e-07
1625.71	3.79912e-08
1634.39	-5.11361e-08
1643.07	1.12049e-09
1651.75	-1.06635e-07
1660.42	6.21364e-09
1669.1	-9.24178e-08
1677.78	7.98987e-09
1686.46	-5.89249e-08
1695.14	-3.77848e-08
1703.82	-1.79142e-08
1712.49	2.36013e-08
1721.17	3.6225e-08
1729.85	4.70688e-08
1738.53	1.40043e-08
1747.21	3.0025e-08
1755.88	-1.58388e-08
1764.56	4.18284e-08
1773.24	-5.84984e-09
1781.92	5.88031e-08
1790.6	3.118e-08
1799.28	7.2902e-08
1807.95	6.45356e-08
1816.63	3.28963e-09
1825.31	-2.15895e-08
1833.99	-4.15182e-09
1842.67	1.11594e-08
1851.34	-3.9199e-09
1860.02	-2.08746e-08
1868.7	-1.07092e-08
1877.38	-2.63306e-08
1886.06	3.86079e-09
1894.74	-3.31227e-08
1903.41	-1.18261e-08
1912.09	-1.04464e-08
1920.77	1.38397e-08
1929.45	-8.07263e-09
1938.13	-7.01944e-08
1946.8	-1.87646e-08
1955.48	-3.18476e-08
1964.16	6.99079e-08
1972.84	2.08899e-07
1981.52	1.93836e-07
1990.2	3.3899e-07
1998.87	4.25387e-08
2007.55	8.08864e-08
2016.23	2.99377e-08
2024.91	6.96788e-08
2033.59	1.00239e-07
2042.26	2.40691e-07
2050.94	7.69369e-07
2059.62	5.99008e-07
2068.3	7.18495e-07
2076.98	3.2346e-08
2085.66	-1.61243e-08
2094.33	1.34341e-08
2103.01	-7.16596e-08
2111.69	-2.54139e-08
2120.37	2.42834e-08
2129.05	1.53026e-07
2137.72	2.12375e-07
2146.4	1.93399e-07
2155.08	3.52757e-07
2163.76	3.57212e-07
2172.44	4.45247e-07
2181.12	6.0773e-07
2189.79	3.40631e-07
2198.47	1.96914e-07
2207.15	-3.01814e-08
2215.83	-9.27134e-09
2224.51	-4.45959e-08
2233.18	4.41112e-08
2241.86	2.69982e-08
2250.54	8.25981e-08
2259.22	1.0876e-07
2267.9	1.68222e-07
2276.58	3.95601e-07
2285.25	7.97657e-07
2293.93	1.27732e-06
2302.61	1.8331e-06
2311.29	1.86349e-06
2319.97	3.91688e-06
2328.64	2.34879e-06
2337.32	2.28604e-06
2346	1.46936e-06
2354.68	1.30454e-06
2363.36	1.35258e-06
2372.04	6.71285e-07
2380.71	2.29875e-07
2389.39	2.50003e-07
2398.07	2.88709e-07
2406.75	3.73349e-07
2415.43	1.09232e-06
2424.1	2.92248e-07
2432.78	3.11207e-07
2441.46	2.08288e-07
2450.14	1.82265e-07
2458.82	3.65933e-08
2467.5	-1.3535e-08
2476.17	-1.69256e-09
2484.85	9.90707e-09
2493.53	7.49829e-08
2502.21	-3.29472e-08
2510.89	-1.36928e-07
2519.56	-2.02133e-07
2528.24	-2.22925e-07
2536.92	6.67939e-08
2545.6	-2.78237e-07
2554.28	-4.58253e-07
2562.96	-2.9043e-07
2571.63	-1.33686e-07
2580.31	-5.1056e-08
2588.99	-5.71933e-08
2597.67	6.09349e-08
2606.35	-1.90202e-08
2615.02	-6.66474e-09
2623.7	8.86844e-08
2632.38	-1.50066e-09
2641.06	-1.78169e-09
2649.74	-2.39541e-08
2658.42	3.66606e-08
2667.09	-1.97987e-08
2675.77	1.69032e-07
2684.45	1.09315e-06
2693.13	2.532e-06
2701.81	1.04769e-06
2710.48	2.05903e-06
2719.16	9.40513e-08
2727.84	1.22736e-08
2736.52	-3.98084e-09
2745.2	3.06998e-08
2753.88	7.10484e-08
2762.55	3.3833e-10
2771.23	7.65909e-08
2779.91	1.93858e-08
2788.59	1.86618e-08
2797.27	1.16133e-08
2805.94	1.09014e-07
2814.62	2.86744e-07
2823.3	3.69167e-07
2831.98	5.75555e-07
2840.66	8.71655e-07
2849.34	9.6052e-07
2858.01	1.04921e-06
2866.69	1.12199e-06
2875.37	6.51048e-07
2884.05	4.75922e-07
2892.73	2.19098e-07
2901.4	1.23651e-07
2910.08	3.63632e-08
2918.76	1.80868e-07
2927.44	1.8866e-07
2936.12	5.60177e-07
2944.8	1.11417e-06
2953.47	2.74802e-06
2962.15	5.13263e-06
2970.83	9.2019e-06
2979.51	1.46156e-05
2988.19	2.29885e-05
2996.86	1.17536e-05
3005.54	2.55582e-05
3014.22	1.81575e-05
3022.9	1.23044e-05
3031.58	7.79451e-06
3040.26	3.92882e-06
3048.93	1.82503e-06
3057.61	6.53333e-07
3066.29	2.4135e-07
3074.97	1.31241e-07
3083.65	-9.30499e-09
3092.32	-4.34018e-08
3101	1.8821e-08
3109.68	-1.0377e-07
3118.36	4.08998e-09
3127.04	3.78111e-08
3135.72	-8.58468e-08
3144.39	9.5742e-09
3153.07	4.71025e-09
3161.75	-3.60067e-08
3170.43	-7.38051e-09
3179.11	-1.01472e-08
3187.78	2.91137e-08
3196.46	-2.40933e-08
3205.14	3.0859e-09
3213.82	3.77393e-08
3222.5	-1.61125e-08
3231.18	-4.15591e-08
3239.85	-5.87922e-08
3248.53	2.25272e-08
3257.21	7.01308e-08
3265.89	4.21248e-08
3274.57	5.21938e-08
3283.24	1.17658e-07
3291.92	3.97438e-08
3300.6	-1.69693e-08
3309.28	4.80465e-08
3317.96	3.52091e-08
3326.64	5.07314e-09
3335.31	1.31367e-08
3343.99	-1.44818e-08
3352.67	-7.05255e-08
3361.35	-6.64783e-08
3370.03	2.69073e-08
3378.7	-9.88616e-10
3387.38	1.41498e-08
3396.06	9.67406e-08
3404.74	-2.05863e-08
3413.42	2.97185e-08
3422.1	-1.37515e-08
3430.77	2.27063e-08
3439.45	-8.89663e-09
3448.13	-1.5434e-08
3456.81	-1.99342e-08
3465.49	8.77749e-09
3474.16	-3.51782e-08
3482.84	7.85508e-08
3491.52	-9.39767e-08
3500.2	-7.8006e-08
3508.88	-8.0127e-08
3517.56	-1.64573e-07
3526.23	-8.18959e-08
3534.91	-3.9581e-09
3543.59	7.33213e-08
3552.27	1.07022e-07
3560.95	1.48069e-07
3569.62	2.94547e-08
3578.3	1.64081e-08
3586.98	-1.69365e-08
3595.66	1.27874e-08
3604.34	1.60279e-08
3613.02	-4.81202e-08
3621.69	-9.53691e-09
3630.37	-3.75319e-08
3639.05	-5.17745e-08
3647.73	-8.89499e-08
3656.41	-7.06665e-08
3665.08	1.01172e-08
3673.76	6.94432e-08
3682.44	2.01504e-07
3691.12	2.06345e-07
3699.8	4.03412e-07
3708.48	3.98036e-07
3717.15	6.25559e-07
3725.83	5.27602e-07
3734.51	4.42814e-07
3743.19	5.89071e-07
3751.87	6.98587e-07
3760.54	6.69604e-07
3769.22	7.28675e-07
3777.9	2.78629e-07
3786.58	3.40835e-07
3795.26	1.68025e-07
3803.94	-1.3023e-08
3812.61	6.72295e-08
3821.29	-5.99336e-08
3829.97	7.25864e-08
3838.65	-3.5572e-08
3847.33	3.74419e-08
3856	3.89262e-08
3864.68	1.68756e-08
3873.36	-7.24045e-09
3882.04	1.87782e-08
3890.72	3.62814e-08
3899.4	3.59285e-08
3908.07	1.6593e-07
3916.75	1.79516e-07
3925.43	2.1235e-07
3934.11	5.14165e-07
3942.79	5.24927e-07
3951.46	4.95361e-07
3960.14	6.11358e-07
3968.82	3.50978e-07
