Infrared Spectrum: Dichloromethane
Formula: C H2 Cl2
CAS: 75-09-2
State: gas
Melting point: -95.1 C
Boiling point: 40 C
Class: IUPAC A
Instrument: IFS66V (Bruker)
Instrument parameters: KBr Beam Splitter; MCT Detector; Multipass cell
Sampling: 1 L/min Flow
Resolution: 0.1250
Temperature: 23 C
Pressure: 101.3 Pa
Origin: NIST, Analytical Chemistry Division, 301-975-3108
cm-1	(micromol/mol)-1m-1 (base 10)
575.05	-1.00199e-06
583.608	9.79782e-07
592.165	-3.23208e-07
600.723	-7.0748e-07
609.281	-7.43097e-07
617.838	7.19443e-08
626.396	-4.99186e-07
634.954	1.23278e-06
643.511	2.37312e-07
652.069	1.13222e-06
660.626	1.67842e-06
669.184	5.09775e-06
677.742	9.75079e-06
686.299	1.59969e-05
694.857	2.42689e-05
703.415	3.37153e-05
711.972	3.02054e-05
720.53	6.28113e-05
729.088	6.52658e-05
737.645	0.000193443
746.203	0.000689245
754.761	0.000666136
763.318	0.000724192
771.876	0.000257242
780.434	9.18119e-06
788.991	-2.6468e-08
797.549	2.91877e-07
806.106	6.11047e-07
814.664	-1.16296e-08
823.222	2.39818e-07
831.779	3.0466e-07
840.337	-9.13501e-08
848.895	-1.77793e-07
857.452	1.53906e-07
866.01	5.11796e-07
874.568	1.04861e-06
883.125	1.75757e-06
891.683	2.88257e-06
900.241	3.25419e-06
908.798	3.4454e-06
917.356	3.05072e-06
925.914	2.39325e-06
934.471	1.56248e-06
943.029	7.72633e-07
951.586	3.66622e-07
960.144	8.78185e-08
968.702	2.46078e-07
977.259	2.35774e-07
985.817	3.73145e-07
994.375	4.02584e-07
1002.93	4.38863e-07
1011.49	1.68188e-07
1020.05	2.32574e-07
1028.61	2.77555e-07
1037.16	1.85963e-07
1045.72	4.44726e-07
1054.28	-1.241e-07
1062.84	-2.6289e-07
1071.39	-1.73411e-07
1079.95	-1.44961e-07
1088.51	1.70548e-07
1097.07	-1.19729e-07
1105.62	1.25601e-08
1114.18	-1.57786e-07
1122.74	-3.63128e-07
1131.3	-7.90438e-08
1139.85	-7.63726e-08
1148.41	-2.66392e-07
1156.97	-1.93763e-07
1165.53	-7.54431e-08
1174.09	-7.94312e-08
1182.64	1.62785e-07
1191.2	1.71571e-07
1199.76	-7.52239e-08
1208.32	-1.61667e-07
1216.87	1.19792e-07
1225.43	-4.09452e-08
1233.99	1.43838e-07
1242.55	2.9675e-06
1251.1	4.84711e-05
1259.66	0.000211874
1268.22	0.000287094
1276.78	0.000240954
1285.33	3.42946e-05
1293.89	6.26753e-07
1302.45	-1.67454e-07
1311.01	2.71565e-07
1319.57	-4.79483e-08
1328.12	5.62165e-08
1336.68	-8.67708e-08
1345.24	-1.51312e-08
1353.8	4.21803e-07
1362.35	-2.12117e-07
1370.91	-2.9171e-08
1379.47	-6.50904e-08
1388.03	-4.74135e-08
1396.58	1.64918e-08
1405.14	3.30662e-07
1413.7	5.47067e-07
1422.26	1.26757e-06
1430.81	1.34368e-06
1439.37	2.14447e-06
1447.93	3.74882e-06
1456.49	6.53962e-06
1465.05	7.60412e-06
1473.6	7.70702e-06
1482.16	4.48677e-07
1490.72	1.78743e-07
1499.28	1.65959e-07
1507.83	6.9264e-08
1516.39	6.60881e-08
1524.95	4.21503e-08
1533.51	-1.07684e-08
1542.06	1.78719e-07
1550.62	4.44321e-07
1559.18	4.66058e-07
1567.74	-6.43109e-08
1576.29	-1.71472e-07
1584.85	1.12262e-07
1593.41	9.00741e-08
1601.97	2.92774e-08
1610.53	1.99024e-08
1619.08	1.22989e-07
1627.64	-9.7963e-08
1636.2	-1.32141e-07
1644.76	-1.64115e-07
1653.31	-4.19228e-07
1661.87	1.24691e-08
1670.43	-6.62354e-08
1678.99	-1.46431e-07
1687.54	-9.36102e-08
1696.1	-2.38421e-07
1704.66	4.47242e-08
1713.22	1.36752e-07
1721.77	5.05867e-08
1730.33	6.8782e-08
1738.89	2.19642e-09
1747.45	-6.45702e-08
1756.01	-9.4275e-08
1764.56	6.80935e-08
1773.12	-2.40224e-08
1781.68	7.23863e-08
1790.24	1.53462e-07
1798.79	1.13575e-07
1807.35	-3.46261e-08
1815.91	-9.19658e-08
1824.47	-5.03485e-08
1833.02	1.44163e-08
1841.58	-6.36379e-08
1850.14	7.0299e-08
1858.7	-2.23507e-08
1867.25	-7.98296e-08
1875.81	5.69232e-08
1884.37	-5.99636e-08
1892.93	9.31027e-08
1901.49	7.80624e-08
1910.04	6.39644e-09
1918.6	7.49574e-08
1927.16	-1.96886e-08
1935.72	-1.06619e-07
1944.27	-1.41839e-07
1952.83	-1.8156e-07
1961.39	8.12175e-10
1969.95	1.46459e-07
1978.5	2.24353e-07
1987.06	3.73078e-07
1995.62	-7.15951e-08
2004.18	4.09816e-08
2012.73	1.01328e-07
2021.29	4.19448e-08
2029.85	2.21561e-08
2038.41	1.15271e-07
2046.97	5.58209e-07
2055.52	5.90541e-07
2064.08	7.61506e-07
2072.64	2.62415e-07
2081.2	-3.35256e-08
2089.75	-7.06219e-09
2098.31	1.22352e-07
2106.87	1.55857e-07
2115.43	4.56246e-08
2123.98	-5.78336e-08
2132.54	1.99655e-07
2141.1	2.11958e-07
2149.66	2.40098e-07
2158.21	8.24134e-08
2166.77	5.05298e-07
2175.33	4.83249e-07
2183.89	4.07994e-07
2192.45	2.40269e-07
2201	5.10224e-08
2209.56	1.26752e-07
2218.12	-5.0916e-08
2226.68	6.86137e-08
2235.23	-2.34557e-09
2243.79	1.67054e-07
2252.35	1.24822e-07
2260.91	1.66136e-07
2269.46	3.08624e-07
2278.02	4.36664e-07
2286.58	9.19401e-07
2295.14	1.24928e-06
2303.69	1.84109e-06
2312.25	1.76112e-06
2320.81	2.54107e-06
2329.37	1.66865e-06
2337.93	2.13086e-06
2346.48	9.36526e-07
2355.04	9.24663e-07
2363.6	7.1879e-07
2372.16	4.55685e-07
2380.71	3.94131e-07
2389.27	2.25184e-07
2397.83	9.91772e-08
2406.39	3.85427e-07
2414.94	8.35748e-07
2423.5	2.23971e-07
2432.06	1.88073e-07
2440.62	4.23208e-07
2449.17	1.4376e-07
2457.73	2.88572e-08
2466.29	1.42223e-07
2474.85	-1.26378e-07
2483.41	-4.12099e-08
2491.96	2.24189e-09
2500.52	8.77258e-08
2509.08	-5.51697e-09
2517.64	-2.24831e-07
2526.19	-3.27094e-07
2534.75	-2.9185e-07
2543.31	-2.76998e-07
2551.87	-6.62827e-07
2560.42	-3.96259e-07
2568.98	-1.42627e-07
2577.54	1.00853e-07
2586.1	4.34191e-08
2594.65	4.13818e-08
2603.21	8.45416e-08
2611.77	1.30785e-09
2620.33	6.03019e-08
2628.89	-5.29942e-08
2637.44	-1.44922e-07
2646	1.55317e-07
2654.56	-4.67778e-08
2663.12	-1.21482e-07
2671.67	3.39484e-07
2680.23	3.47395e-07
2688.79	2.035e-06
2697.35	1.73747e-06
2705.9	2.90866e-06
2714.46	6.63244e-07
2723.02	6.01318e-08
2731.58	-1.68657e-07
2740.13	6.50722e-08
2748.69	-8.50737e-09
2757.25	1.06821e-07
2765.81	7.63353e-08
2774.37	-7.39415e-09
2782.92	-1.16634e-07
2791.48	3.49344e-08
2800.04	9.11746e-08
2808.6	3.01057e-07
2817.15	2.22131e-07
2825.71	3.6931e-07
2834.27	1.00906e-06
2842.83	1.22404e-06
2851.38	8.56389e-07
2859.94	1.27682e-06
2868.5	8.48661e-07
2877.06	7.36807e-07
2885.61	2.23515e-07
2894.17	6.19208e-08
2902.73	-1.36233e-08
2911.29	2.26525e-07
2919.85	3.42239e-07
2928.4	6.81417e-08
2936.96	5.41585e-07
2945.52	1.39801e-06
2954.08	2.97598e-06
2962.63	4.84467e-06
2971.19	1.24406e-05
2979.75	1.43901e-05
2988.31	2.60292e-05
2996.86	1.14864e-05
3005.42	3.01143e-05
3013.98	2.00214e-05
3022.54	1.2214e-05
3031.09	6.91531e-06
3039.65	3.98506e-06
3048.21	1.93757e-06
3056.77	7.88394e-07
3065.33	3.80724e-07
3073.88	2.99432e-07
3082.44	6.25811e-08
3091	-2.96746e-07
3099.56	-2.37217e-07
3108.11	-8.12402e-08
3116.67	1.95499e-07
3125.23	1.14831e-07
3133.79	7.40434e-08
3142.34	8.64834e-08
3150.9	2.23845e-07
3159.46	-1.08811e-08
3168.02	-1.97709e-07
3176.57	2.57759e-08
3185.13	-1.47021e-07
3193.69	2.25661e-07
3202.25	1.72066e-08
3210.81	-8.33002e-09
3219.36	1.69096e-07
3227.92	-1.19855e-07
3236.48	-1.625e-07
3245.04	3.57702e-08
3253.59	1.77953e-07
3262.15	-3.0135e-08
3270.71	-1.03457e-07
3279.27	1.43454e-08
3287.82	1.97284e-07
3296.38	1.11115e-07
3304.94	-2.27482e-07
3313.5	-2.00803e-07
3322.05	7.72985e-08
3330.61	1.38293e-07
3339.17	2.98167e-08
3347.73	-1.31309e-07
3356.29	-1.1837e-07
3364.84	-2.98079e-07
3373.4	-3.16408e-07
3381.96	2.68436e-08
3390.52	-1.55993e-07
3399.07	-1.65992e-07
3407.63	3.03489e-07
3416.19	-2.82087e-08
3424.75	-1.22078e-07
3433.3	1.56399e-07
3441.86	4.46541e-08
3450.42	-2.88818e-08
3458.98	3.19868e-09
3467.53	-2.23616e-07
3476.09	-1.34839e-07
3484.65	-1.33492e-07
3493.21	-3.4044e-08
3501.77	-3.45188e-08
3510.32	1.30266e-07
3518.88	-4.68502e-07
3527.44	1.68805e-07
3536	-2.33934e-07
3544.55	2.83593e-07
3553.11	1.70387e-07
3561.67	3.15168e-07
3570.23	1.24151e-07
3578.78	-1.01772e-08
3587.34	-1.45552e-07
3595.9	1.41698e-07
3604.46	-1.32667e-08
3613.01	-6.87865e-08
3621.57	-1.97741e-08
3630.13	-2.70893e-07
3638.69	-1.13376e-07
3647.25	1.25564e-08
3655.8	1.78545e-07
3664.36	1.76386e-07
3672.92	8.2689e-08
3681.48	1.6776e-07
3690.03	3.44692e-07
3698.59	4.44068e-07
3707.15	6.11161e-07
3715.71	8.65822e-07
3724.26	7.91271e-07
3732.82	5.53995e-07
3741.38	3.80233e-07
3749.94	5.75368e-07
3758.49	8.68142e-07
3767.05	5.81452e-07
3775.61	2.20491e-07
3784.17	2.74353e-07
3792.73	5.88449e-08
3801.28	-1.04993e-07
3809.84	2.65052e-07
3818.4	-2.362e-07
3826.96	-8.88481e-08
3835.51	-1.78351e-09
3844.07	2.12164e-07
3852.63	-1.49362e-07
3861.19	-1.26214e-07
3869.74	-8.29828e-08
3878.3	-3.79355e-07
3886.86	-8.48054e-08
3895.42	3.09619e-07
3903.97	-9.73218e-08
3912.53	-2.23616e-08
3921.09	1.79138e-07
3929.65	4.46792e-07
3938.21	3.87114e-07
3946.76	5.15396e-07
3955.32	6.19563e-07
3963.88	4.37234e-07
3972.44	3.0085e-07
