Infrared Spectrum: Nitrile-Acetic Acid
Formula: C H3 C N
CAS: 75-05-8
State: gas
Melting point: -45.72 C
Boiling point: 81.6 C
Class: IUPAC A
Instrument: IFS66V (Bruker)
Instrument parameters: KBr Beam splitter; MCT Detector; Multipass cell
Sampling: 1 L/min Flow
Resolution: 0.4820
Temperature: 23 C
Pressure: 101.3 kPa
Origin: NIST, Anayltical Chemistry Division, 301-975-3108
cm-1	(micromol/mol)-1m-1 (base 10)
574.928	-3.32827e-07
583.606	-4.88125e-07
592.284	-4.05663e-07
600.962	-3.44927e-07
609.641	-1.80684e-07
618.319	-3.75174e-08
626.997	3.24591e-08
635.675	-1.40551e-07
644.353	-1.47091e-07
653.031	2.42997e-07
661.71	2.88104e-08
670.388	2.61488e-07
679.066	6.11638e-07
687.744	1.93223e-06
696.422	5.76039e-06
705.1	6.75416e-06
713.778	2.96036e-06
722.457	5.21105e-06
731.135	5.2202e-06
739.813	2.26118e-06
748.491	6.40587e-07
757.169	7.06237e-08
765.847	-9.00484e-08
774.526	-1.30467e-07
783.204	-2.03558e-07
791.882	-1.67601e-07
800.56	-5.91163e-08
809.238	-1.526e-07
817.916	-4.88319e-08
826.594	-6.81098e-08
835.273	-2.0834e-07
843.951	-7.94253e-08
852.629	-7.35028e-08
861.307	-3.64094e-08
869.985	-9.67374e-08
878.663	1.20858e-07
887.342	8.67468e-07
896.02	2.37929e-06
904.698	5.14755e-06
913.376	4.39987e-06
922.054	1.04461e-06
930.732	4.43501e-06
939.41	3.03149e-06
948.089	6.18523e-07
956.767	4.08211e-08
965.445	7.5067e-08
974.123	2.64666e-07
982.801	5.06746e-07
991.479	1.76498e-06
1000.16	3.19501e-06
1008.84	1.94783e-06
1017.51	3.04467e-06
1026.19	1.44004e-05
1034.87	4.50893e-06
1043.55	3.67195e-06
1052.23	4.31617e-06
1060.9	3.68968e-06
1069.58	3.61056e-06
1078.26	2.93331e-06
1086.94	2.09112e-06
1095.62	1.34419e-06
1104.3	9.28286e-07
1112.97	1.02569e-06
1121.65	2.52236e-07
1130.33	1.21327e-07
1139.01	-3.70824e-09
1147.69	-8.38481e-09
1156.36	-4.46415e-08
1165.04	1.55701e-08
1173.72	-3.28997e-08
1182.4	-8.24044e-09
1191.08	-5.25099e-08
1199.76	-5.05339e-08
1208.43	-2.42673e-08
1217.11	2.41052e-08
1225.79	5.54672e-08
1234.47	5.62239e-09
1243.15	5.24492e-08
1251.82	7.03998e-08
1260.5	1.37748e-07
1269.18	3.98192e-07
1277.86	6.24555e-07
1286.54	1.47342e-06
1295.21	2.20379e-06
1303.89	7.99487e-07
1312.57	1.44171e-06
1321.25	1.67219e-06
1329.93	3.16351e-06
1338.61	4.30168e-06
1347.28	2.99603e-06
1355.96	4.49978e-06
1364.64	1.39726e-05
1373.32	1.54962e-05
1382	1.26769e-05
1390.67	1.95051e-05
1399.35	2.3418e-05
1408.03	3.29191e-05
1416.71	2.22136e-05
1425.39	1.9154e-05
1434.07	1.77133e-05
1442.74	1.34147e-05
1451.42	1.68646e-05
1460.1	1.16245e-05
1468.78	1.58057e-05
1477.46	1.92524e-05
1486.13	1.37009e-05
1494.81	1.44817e-05
1503.49	1.20602e-05
1512.17	9.51831e-06
1520.85	1.01869e-05
1529.52	1.08893e-05
1538.2	9.72441e-06
1546.88	6.27871e-06
1555.56	9.9877e-06
1564.24	5.52223e-06
1572.92	4.3171e-06
1581.59	2.59752e-06
1590.27	2.06455e-06
1598.95	1.37864e-06
1607.63	6.72625e-07
1616.31	1.84179e-06
1624.98	5.14941e-07
1633.66	2.50283e-07
1642.34	2.09767e-07
1651.02	2.33247e-07
1659.7	7.60506e-08
1668.38	2.46308e-07
1677.05	2.75815e-08
1685.73	1.26192e-07
1694.41	1.36812e-07
1703.09	7.86336e-08
1711.77	6.04473e-08
1720.44	1.09011e-07
1729.12	2.0219e-07
1737.8	2.40559e-07
1746.48	2.27938e-07
1755.16	2.35702e-07
1763.84	2.73073e-07
1772.51	1.43659e-06
1781.19	3.28006e-07
1789.87	3.37413e-07
1798.55	3.37071e-07
1807.23	4.3549e-07
1815.9	5.30706e-07
1824.58	5.77386e-07
1833.26	4.46833e-07
1841.94	6.6261e-07
1850.62	5.68011e-07
1859.29	3.53893e-07
1867.97	4.90831e-07
1876.65	1.52982e-07
1885.33	2.0951e-07
1894.01	2.7851e-07
1902.69	3.61798e-07
1911.36	1.7725e-07
1920.04	1.90843e-07
1928.72	1.14885e-07
1937.4	8.05639e-08
1946.08	2.97782e-08
1954.75	1.55514e-09
1963.43	8.39299e-09
1972.11	6.61936e-09
1980.79	3.57098e-08
1989.47	-2.14878e-08
1998.15	1.49544e-08
2006.82	2.57819e-08
2015.5	-2.13082e-09
2024.18	9.92313e-09
2032.86	2.05192e-08
2041.54	9.48837e-08
2050.21	1.82348e-07
2058.89	3.91998e-07
2067.57	3.56208e-07
2076.25	4.36428e-07
2084.93	5.75856e-07
2093.6	3.43221e-07
2102.28	1.84838e-07
2110.96	2.42948e-08
2119.64	1.15197e-07
2128.32	5.48597e-09
2137	5.08088e-08
2145.67	6.7776e-09
2154.35	4.82631e-08
2163.03	5.375e-08
2171.71	5.1226e-08
2180.39	4.55523e-08
2189.06	3.87919e-08
2197.74	1.49906e-07
2206.42	1.35818e-07
2215.1	2.35011e-07
2223.78	3.75759e-07
2232.46	8.12565e-07
2241.13	2.22345e-06
2249.81	3.66464e-06
2258.49	3.75253e-06
2267.17	2.5721e-06
2275.85	6.5671e-06
2284.52	5.67758e-06
2293.2	3.93281e-06
2301.88	1.76722e-06
2310.56	4.36735e-06
2319.24	4.39719e-06
2327.92	1.59112e-06
2336.59	7.27338e-07
2345.27	5.78615e-07
2353.95	4.63898e-07
2362.63	8.09536e-07
2371.31	8.16723e-07
2379.98	1.17682e-06
2388.66	9.39115e-07
2397.34	1.06107e-06
2406.02	1.50617e-06
2414.7	1.20129e-06
2423.37	1.56295e-06
2432.05	1.48756e-06
2440.73	1.01074e-06
2449.41	9.47732e-07
2458.09	1.05527e-06
2466.77	7.82609e-07
2475.44	1.30208e-06
2484.12	9.824e-07
2492.8	1.02019e-06
2501.48	7.78453e-07
2510.16	6.91435e-07
2518.83	5.64906e-07
2527.51	5.42747e-07
2536.19	4.26276e-07
2544.87	3.85112e-07
2553.55	3.9837e-07
2562.23	3.03718e-07
2570.9	2.40757e-07
2579.58	2.20296e-07
2588.26	4.69927e-07
2596.94	7.84668e-07
2605.62	1.23239e-06
2614.29	1.99521e-06
2622.97	3.39767e-06
2631.65	1.3093e-06
2640.33	9.34362e-07
2649.01	4.37808e-07
2657.68	3.01306e-07
2666.36	3.32328e-07
2675.04	2.35035e-07
2683.72	2.10278e-07
2692.4	1.43835e-07
2701.08	4.82028e-08
2709.75	9.44215e-08
2718.43	2.75753e-07
2727.11	2.90376e-07
2735.79	3.88644e-07
2744.47	5.45019e-07
2753.14	4.81924e-07
2761.82	4.85313e-07
2770.5	1.8739e-07
2779.18	2.01631e-07
2787.86	1.15659e-07
2796.54	2.21388e-07
2805.21	2.69416e-07
2813.89	1.3875e-07
2822.57	6.17927e-07
2831.25	5.36315e-07
2839.93	7.41816e-07
2848.6	1.84008e-06
2857.28	2.14969e-06
2865.96	2.14745e-06
2874.64	3.57361e-06
2883.32	4.00323e-06
2892	2.6069e-06
2900.67	2.77501e-06
2909.35	2.69206e-06
2918.03	2.09104e-06
2926.71	2.11318e-06
2935.39	6.0065e-06
2944.06	9.118e-06
2952.74	4.33236e-06
2961.42	7.40464e-06
2970.1	9.80883e-06
2978.78	5.35048e-06
2987.45	3.02897e-06
2996.13	2.35016e-06
3004.81	3.81576e-06
3013.49	2.16273e-05
3022.17	1.04949e-05
3030.85	5.01733e-06
3039.52	3.13064e-06
3048.2	2.53898e-06
3056.88	2.10312e-06
3065.56	1.69228e-06
3074.24	1.76829e-06
3082.91	1.41789e-06
3091.59	1.09166e-06
3100.27	9.41573e-07
3108.95	7.504e-07
3117.63	4.75796e-07
3126.31	3.80492e-07
3134.98	5.35074e-07
3143.66	6.3575e-07
3152.34	9.66861e-07
3161.02	1.96629e-06
3169.7	2.31702e-06
3178.37	4.11337e-06
3187.05	3.40389e-06
3195.73	3.14366e-06
3204.41	8.89094e-07
3213.09	6.39552e-07
3221.77	9.18794e-07
3230.44	9.64147e-07
3239.12	2.9458e-07
3247.8	2.44704e-07
3256.48	1.11419e-07
3265.16	2.28335e-07
3273.83	1.50219e-07
3282.51	1.91629e-07
3291.19	2.25099e-07
3299.87	2.58794e-07
3308.55	2.47825e-07
3317.22	3.70432e-07
3325.9	2.45902e-07
3334.58	2.48039e-07
3343.26	3.38876e-07
3351.94	3.76881e-07
3360.62	4.47919e-07
3369.29	3.00925e-07
3377.97	3.73612e-07
3386.65	4.55853e-07
3395.33	3.5412e-07
3404.01	3.25918e-07
3412.68	3.10732e-07
3421.36	3.1997e-07
3430.04	2.53326e-07
3438.72	3.0482e-07
3447.4	3.35883e-07
3456.08	1.73105e-07
3464.75	2.71769e-07
3473.43	1.54581e-07
3482.11	2.81378e-07
3490.79	2.57405e-07
3499.47	3.22863e-07
3508.14	3.10661e-07
3516.82	2.53527e-07
3525.5	3.43225e-07
3534.18	4.5146e-07
3542.86	3.1241e-07
3551.53	2.82663e-07
3560.21	3.29039e-07
3568.89	3.35332e-07
3577.57	3.09336e-07
3586.25	4.63895e-07
3594.93	3.20238e-07
3603.6	3.73374e-07
3612.28	6.57376e-07
3620.96	5.38199e-07
3629.64	2.00707e-06
3638.32	5.24391e-07
3646.99	1.00949e-06
3655.67	7.21282e-07
3664.35	4.61309e-07
3673.03	5.46382e-07
3681.71	6.41046e-07
3690.39	6.57348e-07
3699.06	5.27079e-07
3707.74	4.52109e-07
3716.42	4.79236e-07
3725.1	7.09298e-07
3733.78	4.12778e-07
3742.45	5.00578e-07
3751.13	6.06921e-07
3759.81	1.02291e-06
3768.49	3.71281e-07
3777.17	3.99331e-07
3785.85	4.69427e-07
3794.52	3.77766e-07
3803.2	5.31945e-07
3811.88	4.18202e-07
3820.56	1.15226e-06
3829.24	4.85239e-07
3837.91	2.96999e-06
3846.59	4.66208e-07
3855.27	5.44857e-07
3863.95	7.23671e-07
3872.63	5.20509e-07
3881.3	6.97485e-07
3889.98	5.49301e-07
3898.66	6.29624e-07
3907.34	6.29293e-07
3916.02	8.08818e-07
3924.7	9.63328e-07
3933.37	7.66528e-07
3942.05	7.52975e-07
3950.73	8.52241e-07
3959.41	8.42228e-07
3968.09	9.64453e-07
