Infrared Spectrum: Dichloromethane
Formula: C H2 Cl2
CAS: 75-09-2
State: gas
Melting point: -95.1 C
Boiling point: 40 C
Class: IUPAC A
Instrument: IFS66V (Bruker)
Instrument parameters: KBr Beam Splitter; MCT Detector; Multipass cell
Sampling: 1 L/min Flow
Resolution: 0.4820
Temperature: 23 C
Pressure: 101.3 Pa
Origin: NIST, Analytical Chemistry Division, 301-975-3108
cm-1	(micromol/mol)-1m-1 (base 10)
575.17	6.22082e-07
583.848	-1.65368e-07
592.526	6.57717e-07
601.205	-7.94712e-08
609.883	-1.59957e-07
618.561	4.32705e-07
627.239	4.46972e-07
635.917	5.57666e-07
644.595	4.92908e-07
653.274	1.22366e-06
661.952	2.58132e-06
670.63	5.93175e-06
679.308	9.9325e-06
687.986	1.76972e-05
696.665	2.57959e-05
705.343	3.72436e-05
714.021	2.95911e-05
722.699	7.14724e-05
731.377	7.53354e-05
740.055	0.000289791
748.734	0.000832261
757.412	0.000621194
766.09	0.000684536
774.768	0.00010467
783.446	1.95181e-06
792.124	3.24523e-07
800.803	5.47522e-08
809.481	-1.48424e-07
818.159	2.79679e-07
826.837	6.77052e-08
835.515	-2.02751e-07
844.194	1.44727e-07
852.872	2.65677e-07
861.55	3.78098e-07
870.228	6.70275e-07
878.906	1.60468e-06
887.584	2.9993e-06
896.263	5.97843e-06
904.941	3.07585e-06
913.619	3.10395e-06
922.297	3.04826e-06
930.975	1.83965e-06
939.654	1.18157e-06
948.332	5.74576e-07
957.01	2.48883e-07
965.688	2.12521e-07
974.366	3.27255e-07
983.044	3.79725e-07
991.723	2.4684e-07
1000.4	2.72189e-07
1009.08	2.60513e-07
1017.76	3.11275e-07
1026.44	2.73752e-07
1035.11	2.13801e-07
1043.79	4.50842e-07
1052.47	3.34754e-07
1061.15	1.24466e-07
1069.83	-9.16002e-08
1078.5	-1.12943e-07
1087.18	-1.50108e-07
1095.86	4.80593e-08
1104.54	-1.63544e-08
1113.22	5.47058e-09
1121.9	-3.73809e-08
1130.57	7.46609e-08
1139.25	-3.67207e-08
1147.93	-2.62961e-08
1156.61	-2.89118e-08
1165.29	1.90875e-08
1173.96	-3.63769e-08
1182.64	7.08011e-08
1191.32	7.72794e-08
1200	-9.94646e-08
1208.68	-5.12589e-08
1217.36	3.40795e-08
1226.03	-3.38803e-08
1234.71	1.62805e-07
1243.39	3.64223e-06
1252.07	6.22874e-05
1260.75	0.00021913
1269.42	3.59698e-05
1278.1	0.000211545
1286.78	1.92107e-05
1295.46	9.69362e-08
1304.14	-6.90267e-08
1312.82	4.87659e-08
1321.49	-2.12475e-08
1330.17	-8.86389e-08
1338.85	-1.09417e-07
1347.53	1.40365e-07
1356.21	-1.2498e-07
1364.88	-1.39415e-07
1373.56	2.52411e-08
1382.24	1.06538e-08
1390.92	2.38227e-07
1399.6	1.38613e-07
1408.28	4.07583e-07
1416.95	5.08867e-07
1425.63	1.14052e-06
1434.31	1.21714e-06
1442.99	2.74488e-06
1451.67	5.05553e-06
1460.34	7.55125e-06
1469.02	8.09247e-06
1477.7	5.59937e-06
1486.38	1.92673e-07
1495.06	8.12866e-08
1503.74	5.12689e-08
1512.41	-7.98123e-08
1521.09	-2.78381e-07
1529.77	1.15578e-07
1538.45	3.27306e-07
1547.13	3.60547e-07
1555.8	4.88922e-07
1564.48	5.0132e-08
1573.16	3.02633e-08
1581.84	2.47936e-08
1590.52	1.661e-08
1599.2	1.25715e-07
1607.87	6.06903e-08
1616.55	-2.76232e-07
1625.23	4.21585e-08
1633.91	4.51162e-08
1642.59	3.85742e-08
1651.26	-5.51824e-08
1659.94	6.9214e-08
1668.62	1.03673e-08
1677.3	1.46346e-08
1685.98	-3.48389e-08
1694.66	-2.33812e-08
1703.33	-3.57111e-08
1712.01	2.24426e-08
1720.69	9.09626e-08
1729.37	5.76517e-08
1738.05	-9.07034e-09
1746.72	4.83767e-08
1755.4	-3.05861e-09
1764.08	1.44773e-08
1772.76	-1.0107e-07
1781.44	2.67763e-08
1790.12	9.90526e-08
1798.79	9.87615e-08
1807.47	3.38057e-08
1816.15	3.79976e-08
1824.83	-8.96139e-08
1833.51	-3.11437e-08
1842.18	3.31818e-08
1850.86	1.18597e-08
1859.54	-1.54004e-08
1868.22	2.8065e-08
1876.9	-4.17783e-08
1885.58	-7.47201e-08
1894.25	-7.66718e-08
1902.93	-1.18197e-08
1911.61	2.81942e-09
1920.29	3.76029e-08
1928.97	-3.59585e-08
1937.64	-7.59752e-08
1946.32	6.69385e-10
1955	-7.94922e-08
1963.68	7.1405e-08
1972.36	1.8596e-07
1981.04	2.59866e-07
1989.71	3.69653e-07
1998.39	7.06055e-08
2007.07	8.12948e-08
2015.75	1.32845e-07
2024.43	3.50372e-08
2033.1	2.19701e-07
2041.78	1.96949e-07
2050.46	7.58968e-07
2059.14	6.58284e-07
2067.82	7.11286e-07
2076.5	7.04109e-08
2085.17	2.42015e-08
2093.85	1.18916e-08
2102.53	-7.53967e-08
2111.21	-2.42243e-08
2119.89	-1.11643e-07
2128.56	1.99588e-07
2137.24	2.59051e-07
2145.92	1.69197e-07
2154.6	2.38941e-07
2163.28	3.47635e-07
2171.96	4.52113e-07
2180.63	6.85247e-07
2189.31	4.52757e-07
2197.99	2.49388e-07
2206.67	-6.74241e-08
2215.35	-6.90048e-08
2224.02	2.38568e-08
2232.7	5.15626e-08
2241.38	-2.62661e-09
2250.06	1.27883e-07
2258.74	9.21559e-08
2267.42	1.96039e-07
2276.09	3.54265e-07
2284.77	8.08608e-07
2293.45	1.28232e-06
2302.13	1.58911e-06
2310.81	2.13133e-06
2319.48	5.22348e-06
2328.16	2.22756e-06
2336.84	1.49836e-06
2345.52	1.45899e-06
2354.2	1.60821e-06
2362.88	2.40924e-06
2371.55	1.0184e-06
2380.23	1.51562e-07
2388.91	1.7997e-07
2397.59	2.2117e-07
2406.27	3.05628e-07
2414.94	8.47733e-07
2423.62	2.58366e-07
2432.3	2.57703e-07
2440.98	1.79771e-07
2449.66	1.50298e-07
2458.34	9.50144e-09
2467.01	-8.53374e-09
2475.69	5.52752e-08
2484.37	-2.06718e-08
2493.05	9.85187e-08
2501.73	4.42267e-08
2510.4	-1.39147e-07
2519.08	-2.52581e-07
2527.76	-2.78858e-07
2536.44	-2.46729e-07
2545.12	-3.10119e-07
2553.8	-4.80084e-07
2562.47	-3.65955e-07
2571.15	-1.63299e-07
2579.83	-2.2107e-08
2588.51	-5.05167e-08
2597.19	6.12669e-08
2605.86	-1.20034e-08
2614.54	-5.95443e-08
2623.22	1.42759e-07
2631.9	5.02139e-08
2640.58	-1.05133e-07
2649.26	-2.8689e-08
2657.93	2.58504e-08
2666.61	-3.96383e-08
2675.29	1.00003e-07
2683.97	9.74231e-07
2692.65	2.38826e-06
2701.32	6.69175e-07
2710	2.18353e-06
2718.68	8.41569e-08
2727.36	-2.77604e-08
2736.04	1.19052e-09
2744.71	9.0316e-08
2753.39	6.71204e-08
2762.07	-3.6225e-09
2770.75	-4.78574e-09
2779.43	5.46212e-08
2788.11	-7.71848e-08
2796.78	2.91201e-08
2805.46	6.28476e-08
2814.14	3.35544e-07
2822.82	3.88269e-07
2831.5	7.05812e-07
2840.17	8.29219e-07
2848.85	9.74842e-07
2857.53	9.77575e-07
2866.21	9.7887e-07
2874.89	8.06818e-07
2883.57	4.84228e-07
2892.24	1.26055e-07
2900.92	9.69198e-08
2909.6	-1.34868e-08
2918.28	2.66847e-07
2926.96	1.37447e-07
2935.63	5.27089e-07
2944.31	9.43537e-07
2952.99	2.55504e-06
2961.67	5.19742e-06
2970.35	7.3168e-06
2979.03	1.50947e-05
2987.7	1.92321e-05
2996.38	1.18567e-05
3005.06	2.41351e-05
3013.74	2.03308e-05
3022.42	1.15949e-05
3031.09	7.15135e-06
3039.77	3.93738e-06
3048.45	1.93556e-06
3057.13	7.80587e-07
3065.81	3.46672e-07
3074.49	6.38371e-08
3083.16	-6.9716e-08
3091.84	1.51303e-08
3100.52	-1.98342e-08
3109.2	-7.55959e-08
3117.88	4.37692e-08
3126.55	1.21158e-07
3135.23	-1.16795e-07
3143.91	1.31239e-07
3152.59	-2.09092e-08
3161.27	-4.35382e-08
3169.95	-1.01576e-07
3178.62	4.26696e-08
3187.3	-1.43627e-08
3195.98	-5.2102e-08
3204.66	7.23672e-08
3213.34	1.10067e-07
3222.01	-5.33825e-08
3230.69	-9.79448e-08
3239.37	-8.06481e-08
3248.05	9.88343e-08
3256.73	1.94976e-08
3265.41	1.27511e-07
3274.08	-7.75086e-08
3282.76	1.06915e-07
3291.44	3.65579e-08
3300.12	-9.1502e-08
3308.8	-2.50201e-09
3317.47	-2.22052e-08
3326.15	-9.18821e-08
3334.83	1.14097e-07
3343.51	-6.89184e-08
3352.19	-8.63179e-08
3360.87	-6.82472e-08
3369.54	-1.03927e-08
3378.22	-9.93427e-08
3386.9	-9.27225e-08
3395.58	2.26754e-08
3404.26	1.53496e-07
3412.93	8.14421e-08
3421.61	-3.59794e-08
3430.29	9.04324e-08
3438.97	-3.35629e-08
3447.65	5.3096e-09
3456.33	-4.57992e-08
3465	-1.44245e-09
3473.68	1.88036e-07
3482.36	1.00451e-07
3491.04	-1.01872e-08
3499.72	-7.87873e-08
3508.39	-1.36616e-07
3517.07	-2.04583e-07
3525.75	-2.0831e-07
3534.43	5.59291e-08
3543.11	3.0559e-07
3551.79	1.8447e-07
3560.46	3.12318e-07
3569.14	4.45741e-08
3577.82	3.72218e-08
3586.5	1.04907e-07
3595.18	-8.23989e-08
3603.85	6.27748e-08
3612.53	-1.9627e-07
3621.21	-5.73061e-08
3629.89	-1.50792e-07
3638.57	2.94948e-08
3647.25	-9.21168e-08
3655.92	1.21117e-08
3664.6	2.19478e-08
3673.28	2.70637e-08
3681.96	1.78651e-07
3690.64	1.26155e-07
3699.31	5.399e-07
3707.99	4.30208e-07
3716.67	5.56607e-07
3725.35	5.60467e-07
3734.03	5.32346e-07
3742.71	5.99856e-07
3751.38	7.45583e-07
3760.06	7.40771e-07
3768.74	7.05328e-07
3777.42	2.55433e-07
3786.1	2.92128e-07
3794.77	1.13918e-07
3803.45	-1.38338e-07
3812.13	1.13763e-07
3820.81	-1.57922e-07
3829.49	1.41503e-07
3838.17	3.28862e-08
3846.84	3.20613e-08
3855.52	-1.93385e-08
3864.2	-1.70766e-08
3872.88	-7.31739e-08
3881.56	3.70481e-08
3890.23	5.22638e-08
3898.91	-5.36272e-08
3907.59	2.31254e-07
3916.27	2.06844e-07
3924.95	1.22564e-07
3933.63	6.10633e-07
3942.3	6.01827e-07
3950.98	5.4642e-07
3959.66	5.9286e-07
3968.34	4.1719e-07
