Infrared Spectrum: Nitrile-Acetic Acid
Formula: C H3 C N
CAS: 75-05-8
State: gas
Melting point: -45.72 C
Boiling point: 81.6 C
Class: IUPAC A
Instrument: IFS66V (Bruker)
Instrument parameters: KBr Beam splitter; MCT Detector; Multipass cell
Sampling: 1 L/min Flow
Resolution: 0.2410
Temperature: 23 C
Pressure: 101.3 kPa
Origin: NIST, Anayltical Chemistry Division, 301-975-3108
cm-1	(micromol/mol)-1m-1 (base 10)
575.048	-6.98068e-07
583.606	1.44706e-07
592.163	-5.28679e-07
600.721	-1.97826e-07
609.279	8.24757e-08
617.836	-1.25408e-07
626.394	-7.93417e-08
634.951	-2.06079e-08
643.509	2.59377e-07
652.067	7.35974e-08
660.624	-2.78519e-08
669.182	-1.62632e-07
677.74	2.82697e-07
686.297	1.62902e-06
694.855	5.07842e-06
703.412	7.79579e-06
711.97	3.13871e-06
720.528	4.46563e-06
729.085	5.89479e-06
737.643	2.66915e-06
746.201	8.70323e-07
754.758	2.03857e-07
763.316	8.80013e-09
771.873	-1.95899e-07
780.431	-1.13103e-07
788.989	-6.61483e-08
797.546	-1.46914e-07
806.104	-1.13857e-07
814.662	-1.37432e-07
823.219	-2.63079e-07
831.777	-1.69269e-07
840.334	-7.82244e-08
848.892	-1.53815e-07
857.45	-1.38334e-07
866.007	-5.94536e-08
874.565	-9.54954e-09
883.123	2.2289e-07
891.68	1.50817e-06
900.238	3.41808e-06
908.795	6.06227e-06
917.353	2.38422e-06
925.911	2.25458e-06
934.468	4.56333e-06
943.026	1.84149e-06
951.584	1.61368e-07
960.141	-2.07002e-08
968.699	1.29486e-07
977.256	2.21001e-07
985.814	8.16688e-07
994.372	1.30241e-06
1002.93	2.41091e-06
1011.49	2.65459e-06
1020.04	3.6277e-06
1028.6	3.45062e-06
1037.16	4.61219e-06
1045.72	4.53741e-06
1054.28	3.81586e-06
1062.83	4.21662e-06
1071.39	3.24937e-06
1079.95	2.83283e-06
1088.51	5.393e-06
1097.06	1.00979e-06
1105.62	1.03188e-06
1114.18	4.674e-07
1122.74	2.18816e-07
1131.29	1.39813e-07
1139.85	-5.00914e-08
1148.41	-3.99093e-08
1156.97	-1.1303e-07
1165.52	1.8155e-08
1174.08	-1.04748e-07
1182.64	-1.05345e-07
1191.2	-8.54379e-08
1199.75	-7.23291e-08
1208.31	-2.7238e-08
1216.87	9.47837e-08
1225.43	-1.68536e-08
1233.99	-1.01339e-08
1242.54	3.82823e-08
1251.1	7.28371e-08
1259.66	1.00226e-07
1268.22	4.47675e-07
1276.77	4.86053e-07
1285.33	1.9559e-06
1293.89	6.26019e-07
1302.45	1.07981e-06
1311	1.8562e-06
1319.56	1.52847e-06
1328.12	3.34735e-06
1336.68	1.26769e-05
1345.23	3.55918e-06
1353.79	3.3357e-06
1362.35	8.71129e-06
1370.91	1.55087e-05
1379.46	1.44775e-05
1388.02	1.84808e-05
1396.58	2.57962e-05
1405.14	2.0511e-05
1413.7	1.72704e-05
1422.25	6.26687e-05
1430.81	1.38137e-05
1439.37	1.60148e-05
1447.93	1.55131e-05
1456.48	1.84792e-05
1465.04	2.5027e-05
1473.6	1.54789e-05
1482.16	8.18222e-05
1490.71	1.44368e-05
1499.27	3.08831e-05
1507.83	1.47007e-05
1516.39	8.93158e-06
1524.94	9.31206e-06
1533.5	9.5259e-06
1542.06	1.66138e-05
1550.62	9.31383e-06
1559.18	4.83209e-06
1567.73	7.95539e-06
1576.29	6.49187e-06
1584.85	2.14171e-06
1593.41	1.57587e-06
1601.96	1.51776e-06
1610.52	6.08297e-07
1619.08	6.09379e-07
1627.64	1.23265e-06
1636.19	4.75796e-07
1644.75	1.60824e-07
1653.31	4.45997e-06
1661.87	1.71984e-07
1670.42	1.09827e-07
1678.98	6.16741e-08
1687.54	-1.25808e-08
1696.1	2.34748e-06
1704.65	3.85598e-07
1713.21	2.05679e-09
1721.77	1.59048e-07
1730.33	3.01762e-07
1738.89	3.60595e-07
1747.44	2.2137e-07
1756	2.91873e-07
1764.56	2.86466e-07
1773.12	6.18946e-07
1781.67	3.09563e-07
1790.23	3.56332e-07
1798.79	3.44446e-07
1807.35	4.25029e-07
1815.9	5.11733e-07
1824.46	5.26323e-07
1833.02	4.20854e-07
1841.58	6.62183e-07
1850.13	7.0334e-07
1858.69	3.72118e-07
1867.25	2.91392e-07
1875.81	2.37666e-07
1884.36	2.15412e-07
1892.92	3.79002e-07
1901.48	4.06432e-07
1910.04	2.87876e-07
1918.6	2.52396e-07
1927.15	1.36955e-07
1935.71	9.1762e-08
1944.27	-2.38056e-09
1952.83	8.90672e-08
1961.38	1.00352e-08
1969.94	4.32062e-08
1978.5	5.94345e-09
1987.06	7.28039e-08
1995.61	-1.87926e-08
2004.17	-8.86288e-09
2012.73	-1.44944e-08
2021.29	-3.33779e-09
2029.84	-6.6915e-09
2038.4	9.26351e-08
2046.96	1.38384e-07
2055.52	3.55346e-07
2064.08	4.76456e-07
2072.63	5.88861e-08
2081.19	5.17766e-07
2089.75	5.0112e-07
2098.31	2.70627e-07
2106.86	2.80302e-08
2115.42	1.57713e-08
2123.98	3.92668e-09
2132.54	2.86986e-09
2141.09	6.89681e-08
2149.65	1.24853e-08
2158.21	8.16799e-08
2166.77	8.3613e-09
2175.32	1.03325e-07
2183.88	-9.59774e-09
2192.44	8.59177e-08
2201	1.02404e-07
2209.55	1.11421e-07
2218.11	1.81453e-07
2226.67	5.21584e-07
2235.23	1.50954e-06
2243.79	3.35715e-06
2252.34	5.17875e-06
2260.9	3.50846e-06
2269.46	3.2272e-06
2278.02	7.04673e-06
2286.57	5.25904e-06
2295.13	3.22458e-06
2303.69	2.39325e-06
2312.25	5.18149e-06
2320.8	3.70109e-06
2329.36	1.38305e-06
2337.92	6.93744e-07
2346.48	4.55783e-07
2355.03	5.89441e-07
2363.59	6.07506e-07
2372.15	8.14031e-07
2380.71	8.43309e-07
2389.26	8.52759e-07
2397.82	1.19976e-06
2406.38	1.64484e-06
2414.94	1.23864e-06
2423.5	1.54133e-06
2432.05	1.51956e-06
2440.61	9.94428e-07
2449.17	9.76121e-07
2457.73	1.12651e-06
2466.28	8.52511e-07
2474.84	8.89907e-07
2483.4	1.03855e-06
2491.96	1.51875e-06
2500.51	7.2085e-07
2509.07	7.21998e-07
2517.63	5.78789e-07
2526.19	4.98142e-07
2534.74	6.7852e-07
2543.3	4.99599e-07
2551.86	3.33475e-07
2560.42	2.51766e-07
2568.98	2.75831e-07
2577.53	2.97952e-07
2586.09	4.14692e-07
2594.65	6.73401e-07
2603.21	1.23192e-06
2611.76	1.83579e-06
2620.32	3.6503e-06
2628.88	1.2039e-06
2637.44	1.16119e-06
2645.99	4.00319e-07
2654.55	2.20506e-07
2663.11	4.50855e-07
2671.67	1.46985e-07
2680.22	2.43139e-07
2688.78	1.87919e-07
2697.34	7.65664e-08
2705.9	1.62655e-07
2714.45	1.73947e-07
2723.01	2.73317e-07
2731.57	4.17653e-07
2740.13	4.04504e-07
2748.69	4.22207e-07
2757.24	6.54784e-07
2765.8	2.97749e-07
2774.36	2.92261e-07
2782.92	3.07098e-07
2791.47	1.69396e-07
2800.03	7.85236e-08
2808.59	5.23512e-07
2817.15	3.37239e-07
2825.7	4.20833e-07
2834.26	7.12035e-07
2842.82	9.15255e-07
2851.38	2.11713e-06
2859.93	2.32923e-06
2868.49	4.46089e-06
2877.05	4.04424e-06
2885.61	3.06357e-06
2894.16	2.90703e-06
2902.72	2.93428e-06
2911.28	2.60633e-06
2919.84	2.33266e-06
2928.4	3.77778e-06
2936.95	6.88451e-06
2945.51	8.94992e-06
2954.07	1.09715e-05
2962.63	8.54391e-06
2971.18	8.95286e-06
2979.74	4.54167e-06
2988.3	2.11465e-06
2996.86	1.92663e-06
3005.41	2.63099e-06
3013.97	6.10653e-06
3022.53	2.44381e-05
3031.09	7.31852e-06
3039.64	3.54796e-06
3048.2	2.65364e-06
3056.76	2.00972e-06
3065.32	1.6281e-06
3073.88	1.69529e-06
3082.43	1.21078e-06
3090.99	1.07044e-06
3099.55	9.08015e-07
3108.11	3.85261e-07
3116.66	4.01593e-07
3125.22	3.73834e-07
3133.78	4.48078e-08
3142.34	4.87208e-07
3150.89	8.60169e-07
3159.45	1.92836e-06
3168.01	2.81489e-06
3176.57	1.2584e-06
3185.12	2.52484e-06
3193.68	3.87132e-06
3202.24	1.20804e-06
3210.8	5.55463e-07
3219.35	8.37584e-07
3227.91	1.12946e-06
3236.47	3.5875e-07
3245.03	2.16633e-07
3253.59	2.66183e-07
3262.14	1.15278e-07
3270.7	2.12593e-07
3279.26	1.31249e-07
3287.82	2.19215e-07
3296.37	2.63003e-07
3304.93	3.78908e-07
3313.49	2.69591e-07
3322.05	2.80096e-07
3330.6	5.24503e-07
3339.16	3.69714e-07
3347.72	3.87904e-07
3356.28	5.66951e-07
3364.83	3.63743e-07
3373.39	1.68689e-07
3381.95	4.07184e-07
3390.51	4.60768e-07
3399.06	3.4403e-07
3407.62	2.66164e-07
3416.18	4.18215e-07
3424.74	3.24513e-07
3433.3	2.04379e-07
3441.85	2.63606e-07
3450.41	1.99947e-07
3458.97	2.98988e-07
3467.53	3.14319e-07
3476.08	2.80272e-07
3484.64	2.09245e-07
3493.2	1.52638e-07
3501.76	2.45696e-07
3510.31	2.92781e-07
3518.87	2.71683e-07
3527.43	3.97238e-07
3535.99	3.51303e-07
3544.54	1.83642e-07
3553.1	2.41123e-07
3561.66	3.25979e-07
3570.22	2.1344e-07
3578.78	2.52268e-07
3587.33	3.60931e-07
3595.89	3.04256e-07
3604.45	2.28847e-07
3613.01	5.66149e-07
3621.56	3.63308e-07
3630.12	4.07689e-07
3638.68	4.05861e-07
3647.24	1.28742e-06
3655.79	7.63938e-07
3664.35	4.2166e-07
3672.91	4.6285e-07
3681.47	5.52679e-07
3690.02	6.18187e-07
3698.58	4.25291e-07
3707.14	5.15293e-07
3715.7	3.75503e-07
3724.25	3.59093e-07
3732.81	5.3486e-07
3741.37	7.68338e-07
3749.93	6.59469e-07
3758.49	4.03768e-07
3767.04	4.0951e-07
3775.6	4.87458e-07
3784.16	3.82615e-07
3792.72	3.44056e-07
3801.27	2.46055e-06
3809.83	3.95928e-07
3818.39	5.49347e-07
3826.95	6.31653e-07
3835.5	4.19258e-07
3844.06	5.2108e-07
3852.62	6.34942e-07
3861.18	6.38411e-07
3869.73	7.81443e-07
3878.29	5.30243e-07
3886.85	4.82639e-07
3895.41	5.84152e-07
3903.96	1.02169e-06
3912.52	6.98636e-07
3921.08	8.91147e-07
3929.64	8.91407e-07
3938.2	8.66769e-07
3946.75	6.28145e-07
3955.31	7.54199e-07
3963.87	8.81149e-07
3972.43	8.59089e-07
