Infrared Spectrum: Acetonitrile
Formula: C 2 H 3 N
CAS: 75-05-8
State: liquid
Instrument: Bruker Tensor 27 FTIR
Resolution: 0.48212986
Origin: Pacific Northwest National Laboratory Under IARPA Contract
1/cm	dispersion index
7797.49	1.3338
7778.93	1.3338
7760.37	1.3338
7741.81	1.3338
7723.24	1.3338
7704.68	1.3338
7686.12	1.3338
7667.56	1.33379
7649	1.33379
7630.44	1.33379
7611.88	1.33379
7593.31	1.33379
7574.75	1.33378
7556.19	1.33378
7537.63	1.33378
7519.07	1.33378
7500.51	1.33378
7481.95	1.33378
7463.38	1.33378
7444.82	1.33377
7426.26	1.33377
7407.7	1.33377
7389.14	1.33376
7370.58	1.33376
7352.02	1.33375
7333.46	1.33375
7314.89	1.33375
7296.33	1.33375
7277.77	1.33374
7259.21	1.33374
7240.65	1.33373
7222.09	1.33373
7203.53	1.33372
7184.96	1.33372
7166.4	1.33372
7147.84	1.33371
7129.28	1.33371
7110.72	1.3337
7092.16	1.3337
7073.6	1.33369
7055.03	1.33368
7036.47	1.33368
7017.91	1.33367
6999.35	1.33367
6980.79	1.33366
6962.23	1.33364
6943.67	1.33363
6925.1	1.33362
6906.54	1.3336
6887.98	1.33358
6869.42	1.33371
6850.86	1.33364
6832.3	1.33359
6813.74	1.33364
6795.17	1.33372
6776.61	1.33369
6758.05	1.33367
6739.49	1.33367
6720.93	1.33366
6702.37	1.33364
6683.81	1.33363
6665.25	1.33361
6646.68	1.3336
6628.12	1.33359
6609.56	1.33358
6591	1.33357
6572.44	1.33356
6553.88	1.33355
6535.32	1.33353
6516.75	1.33355
6498.19	1.3335
6479.63	1.33355
6461.07	1.33352
6442.51	1.3335
6423.95	1.3335
6405.39	1.33347
6386.82	1.33348
6368.26	1.33346
6349.7	1.33344
6331.14	1.33342
6312.58	1.33339
6294.02	1.33337
6275.46	1.33335
6256.89	1.33332
6238.33	1.33329
6219.77	1.33325
6201.21	1.3332
6182.65	1.33314
6164.09	1.33304
6145.53	1.33289
6126.96	1.33268
6108.4	1.33326
6089.84	1.33326
6071.28	1.3339
6052.72	1.33375
6034.16	1.33357
6015.6	1.33345
5997.03	1.33336
5978.47	1.33329
5959.91	1.33322
5941.35	1.33314
5922.79	1.33308
5904.23	1.33337
5885.67	1.33335
5867.11	1.33334
5848.54	1.3333
5829.98	1.33322
5811.42	1.33315
5792.86	1.33307
5774.3	1.33299
5755.74	1.33289
5737.18	1.33279
5718.61	1.33284
5700.05	1.33287
5681.49	1.33273
5662.93	1.33267
5644.37	1.33256
5625.81	1.33243
5607.25	1.33229
5588.68	1.33218
5570.12	1.332
5551.56	1.33185
5533	1.33156
5514.44	1.33112
5495.88	1.3311
5477.32	1.33318
5458.75	1.33138
5440.19	1.33111
5421.63	1.33072
5403.07	1.33113
5384.51	1.33395
5365.95	1.33669
5347.39	1.33553
5328.82	1.33497
5310.26	1.33483
5291.7	1.33426
5273.14	1.3339
5254.58	1.33372
5236.02	1.33323
5217.46	1.33261
5198.89	1.33313
5180.33	1.33266
5161.77	1.3323
5143.21	1.33179
5124.65	1.33154
5106.09	1.33114
5087.53	1.33113
5068.97	1.32941
5050.4	1.32286
5031.84	1.32018
5013.28	1.34428
4994.72	1.33806
4976.16	1.33596
4957.6	1.33489
4939.04	1.33408
4920.47	1.334
4901.91	1.33345
4883.35	1.333
4864.79	1.33257
4846.23	1.33213
4827.67	1.33168
4809.11	1.33167
4790.54	1.33108
4771.98	1.33053
4753.42	1.32963
4734.86	1.32846
4716.3	1.3269
4697.74	1.32474
4679.18	1.32231
4660.61	1.32107
4642.05	1.31828
4623.49	1.32001
4604.93	1.34271
4586.37	1.35551
4567.81	1.3515
4549.25	1.34661
4530.68	1.34316
4512.12	1.34055
4493.56	1.33846
4475	1.33647
4456.44	1.33386
4437.88	1.33038
4419.32	1.33355
4400.75	1.34653
4382.19	1.34141
4363.63	1.33209
4345.07	1.34443
4326.51	1.341
4307.95	1.33916
4289.39	1.33647
4270.83	1.34596
4252.26	1.34201
4233.7	1.3402
4215.14	1.33988
4196.58	1.33918
4178.02	1.33865
4159.46	1.33831
4140.9	1.33803
4122.33	1.33797
4103.77	1.33911
4085.21	0.000115448
4066.65	0.000121936
4048.09	0.000141401
4029.53	0.000150798
4010.97	0.000153035
3992.4	0.000157287
3973.84	0.000156616
3955.28	0.000155049
3936.72	0.00016288
3918.16	0.000192861
3899.6	0.000197783
3881.04	0.000202481
3862.47	0.000201139
3843.91	0.000290857
3825.35	0.000270721
3806.79	0.000353504
3788.23	0.000230448
3769.67	0.000156839
3751.11	0.000111645
3732.54	0.000107841
3713.98	0.000138269
3695.42	0.0001018
3676.86	9.62071e-05
3658.3	0.000106946
3639.74	0.00014431
3621.18	0.000166012
3602.61	0.000126411
3584.05	0.000100905
3565.49	0.000109631
3546.93	0.000108289
3528.37	8.81528e-05
3509.81	9.46412e-05
3491.25	9.68779e-05
3472.69	0.000100457
3454.12	0.000100457
3435.56	0.000103143
3417	0.000102696
3398.44	0.000102471
3379.88	0.000115225
3361.32	0.000137151
3342.76	0.000197112
3324.19	0.000155273
3305.63	0.000163551
3287.07	0.000180108
3268.51	0.000209417
3249.95	0.000319944
3231.39	0.000420624
3212.83	0.00057724
3194.26	0.00120594
3175.7	0.00460897
3157.14	0.000921795
3138.58	0.00122831
3120.02	0.00340079
3101.46	0.00275196
3082.9	0.00127306
3064.33	0.00091732
3045.77	0.000877047
3027.21	0.000498932
3008.65	0.000261771
2990.09	0.000206733
2971.53	0.00019756
2952.97	0.000225973
2934.4	0.000360215
2915.84	0.000427337
2897.28	0.000545917
2878.72	0.000469847
2860.16	0.000474322
2841.6	0.000729382
2823.04	0.00113211
2804.47	0.000713719
2785.91	0.000465372
2767.35	0.000299806
2748.79	0.000333368
2730.23	0.000514593
2711.67	0.000344554
2693.11	0.000644361
2674.55	0.000371403
2655.98	0.0001772
2637.42	0.000155496
2618.86	0.000155049
2600.3	0.00022217
2581.74	0.000293095
2563.18	0.000248347
2544.62	0.000281909
2526.05	0.000344554
2507.49	0.000463134
2488.93	0.000767417
2470.37	0.00126187
2451.81	0.00279671
2433.25	0.00765179
2414.69	0.0171606
2396.12	0.0177647
2377.56	0.0175409
2359	0.00792027
2340.44	0.00261772
2321.88	0.00159972
2303.32	0.00147219
2284.76	0.00169368
2266.19	0.00200692
2247.63	0.00297569
2229.07	0.00503407
2210.51	0.00901658
2191.95	0.00668972
2173.39	0.0033113
2154.83	0.00243873
2136.26	0.00110302
2117.7	0.000463134
2099.14	0.000165789
2080.58	0.000129097
2062.02	0.000252822
2043.46	0.00127306
2024.9	0.00431811
2006.33	0.004072
1987.77	0.00143639
1969.21	0.0021434
1950.65	0.00151693
1932.09	0.00164223
1913.53	0.00232686
1894.97	0.00400488
1876.41	0.00413912
1857.84	0.00606326
1839.28	0.00727144
1820.72	0.0106051
1802.16	0.0306519
1783.6	0.0760704
1765.04	0.0328893
1746.48	0.0438523
1727.91	0.0575003
1709.35	0.103143
1690.79	0.0912845
1672.23	0.156168
1653.67	0.0478796
1635.11	0.0315468
1616.55	0.0234923
1597.98	0.0114329
1579.42	0.0106499
1560.86	0.00800977
1542.3	0.00498932
1523.74	0.00686871
1505.18	0.00689108
1486.62	0.00595139
1468.05	0.00559341
1449.49	0.00944168
1430.93	0.0144981
1412.37	0.0230449
1393.81	0.0180332
1375.25	0.0143415
1356.69	0.0302044
1338.12	0.0845724
1319.56	0.130215
1301	0.025506
1282.44	0.00297569
1263.88	0.00106499
1245.32	0.00237161
1226.76	0.00375877
1208.19	0.000221052
1189.63	0.000295332
1171.07	0.000814401
1152.51	0.00194427
1133.95	0.00510119
1115.39	0.0134689
1096.83	0.00762941
1078.27	0.00749517
1059.7	0.0045866
1041.14	0.00626462
1022.58	0.0133571
1004.02	0.0299807
985.458	0.0749517
966.897	0.155497
948.335	0.234923
929.774	0.541442
911.213	0.682396
892.651	0.507882
874.09	0.173396
855.528	0.0756229
836.967	0.0306519
818.406	0.0130438
799.844	0.00915082
781.283	0.0128648
762.721	0.025506
744.16	0.0753992
725.599	0.319943
707.037	0.137598
688.476	0.0387064
669.915	0.0313231
651.353	0.0429574
632.792	0.00635412
614.23	0.00290857
595.669	0.0086586
577.108	0.24611
558.546	0.0175857
539.985	0.00615275
521.423	0.00451948
502.862	0.000485508
484.301	0.00228211
465.739	0.00762941
447.178	0.0141625
428.616	0.0268484
410.055	0.053473
