Infrared Spectrum: Dichloromethane
Formula: C H2 Cl2
CAS: 75-09-2
State: gas
Melting point: -95.1 C
Boiling point: 40 C
Class: IUPAC A
Instrument: IFS66V (Bruker)
Instrument parameters: KBr Beam Splitter; MCT Detector; Multipass cell
Sampling: 1 L/min Flow
Resolution: 0.9640
Temperature: 23 C
Pressure: 101.3 Pa
Origin: NIST, Analytical Chemistry Division, 301-975-3108
cm-1	(micromol/mol)-1m-1 (base 10)
575.17	8.73766e-07
583.848	-3.89889e-08
592.526	4.79907e-07
601.205	-1.16705e-07
609.883	-1.69016e-07
618.561	4.30615e-07
627.239	5.12423e-07
635.917	5.0524e-07
644.595	6.29855e-07
653.274	1.03137e-06
661.952	2.51147e-06
670.63	6.00253e-06
679.308	9.96823e-06
687.986	1.77271e-05
696.665	2.60251e-05
705.343	3.78029e-05
714.021	2.95968e-05
722.699	7.16436e-05
731.377	7.51832e-05
740.055	0.000289339
748.734	0.000832878
757.412	0.000624738
766.09	0.000684645
774.768	0.000104406
783.446	1.88211e-06
792.125	3.43659e-07
800.803	3.10564e-08
809.481	-2.12927e-07
818.159	1.75117e-07
826.837	4.04123e-08
835.515	-2.95754e-07
844.194	1.24731e-07
852.872	2.1648e-07
861.55	4.23911e-07
870.228	6.92937e-07
878.906	1.65136e-06
887.584	3.18867e-06
896.263	5.8796e-06
904.941	3.24742e-06
913.619	2.98065e-06
922.297	3.00271e-06
930.975	1.8394e-06
939.654	1.18008e-06
948.332	5.32162e-07
957.01	2.41963e-07
965.688	1.55278e-07
974.366	3.04269e-07
983.044	3.78351e-07
991.723	2.21878e-07
1000.4	2.85901e-07
1009.08	2.52776e-07
1017.76	2.9071e-07
1026.44	2.68918e-07
1035.11	2.04046e-07
1043.79	4.28613e-07
1052.47	3.7943e-07
1061.15	1.67962e-07
1069.83	-1.10987e-07
1078.5	-1.62715e-07
1087.18	-1.59907e-07
1095.86	3.06262e-08
1104.54	-3.71963e-08
1113.22	6.91758e-09
1121.9	-3.44342e-08
1130.57	6.36598e-08
1139.25	-4.53017e-08
1147.93	-6.81044e-08
1156.61	-1.91593e-08
1165.29	-1.67992e-08
1173.96	-4.57037e-08
1182.64	4.02759e-08
1191.32	4.16401e-08
1200	-1.1881e-07
1208.68	-8.57222e-08
1217.36	2.05999e-08
1226.03	-4.42376e-09
1234.71	1.30701e-07
1243.39	3.54598e-06
1252.07	6.21604e-05
1260.75	0.000218802
1269.42	3.33694e-05
1278.1	0.000211742
1286.78	1.92571e-05
1295.46	1.57474e-07
1304.14	-3.89307e-08
1312.82	8.28109e-08
1321.49	1.64017e-08
1330.17	-6.46647e-09
1338.85	-1.32628e-07
1347.53	1.58453e-07
1356.21	-2.74602e-07
1364.88	-1.11347e-07
1373.56	1.43435e-07
1382.24	-6.11514e-08
1390.92	2.78492e-07
1399.6	9.77283e-08
1408.28	4.32101e-07
1416.95	4.70258e-07
1425.63	1.16716e-06
1434.31	1.25492e-06
1442.99	2.76626e-06
1451.67	5.00441e-06
1460.34	7.56861e-06
1469.02	8.07661e-06
1477.7	5.58236e-06
1486.38	2.14008e-07
1495.06	1.95822e-08
1503.74	6.96542e-08
1512.41	-7.80706e-08
1521.09	-2.7648e-07
1529.77	1.08036e-07
1538.45	3.9593e-07
1547.13	3.68623e-07
1555.8	5.259e-07
1564.48	3.50517e-09
1573.16	2.79914e-08
1581.84	-3.37448e-08
1590.52	1.77578e-08
1599.2	1.66504e-07
1607.87	6.34333e-08
1616.55	-3.11724e-07
1625.23	5.24266e-08
1633.91	2.18269e-08
1642.59	4.47824e-08
1651.26	-9.84014e-08
1659.94	5.05467e-08
1668.62	4.57819e-08
1677.3	6.50376e-09
1685.98	-1.01014e-07
1694.66	-9.80894e-08
1703.33	-1.56932e-08
1712.01	2.81987e-08
1720.69	1.06678e-07
1729.37	7.04145e-08
1738.05	1.31185e-08
1746.72	2.98767e-08
1755.4	3.54519e-09
1764.08	-1.25919e-08
1772.76	-9.29426e-08
1781.44	5.7839e-08
1790.12	1.06011e-07
1798.79	8.19278e-08
1807.47	2.64198e-08
1816.15	3.28908e-08
1824.83	-9.85069e-08
1833.51	-2.59769e-08
1842.18	4.37783e-08
1850.86	5.30233e-09
1859.54	-6.11896e-08
1868.22	9.72881e-09
1876.9	-6.31513e-08
1885.58	-8.12957e-08
1894.25	-5.593e-08
1902.93	-1.78351e-09
1911.61	-1.82262e-08
1920.29	5.58354e-08
1928.97	-3.49244e-08
1937.64	-1.00195e-07
1946.32	1.30494e-08
1955	-7.97068e-08
1963.68	5.45876e-08
1972.36	2.22057e-07
1981.04	2.8089e-07
1989.71	3.42273e-07
1998.39	9.90717e-08
2007.07	8.32047e-08
2015.75	1.53344e-07
2024.43	3.94891e-08
2033.1	2.43988e-07
2041.78	1.7925e-07
2050.46	7.78665e-07
2059.14	6.82929e-07
2067.82	7.10158e-07
2076.5	3.96556e-08
2085.17	1.09939e-08
2093.85	-6.3728e-09
2102.53	-3.07253e-08
2111.21	-2.09938e-08
2119.89	-1.50629e-07
2128.56	2.38704e-07
2137.24	2.76285e-07
2145.92	1.54124e-07
2154.6	2.53067e-07
2163.28	3.473e-07
2171.96	4.7309e-07
2180.63	7.27471e-07
2189.31	5.2063e-07
2197.99	2.50494e-07
2206.67	-6.81799e-08
2215.35	-6.10541e-08
2224.02	4.87305e-08
2232.7	5.17664e-08
2241.38	4.70661e-09
2250.06	1.39001e-07
2258.74	1.12668e-07
2267.42	1.96994e-07
2276.09	3.38097e-07
2284.77	8.26831e-07
2293.45	1.32117e-06
2302.13	1.5303e-06
2310.81	2.15788e-06
2319.48	5.29793e-06
2328.16	2.42649e-06
2336.84	1.00631e-06
2345.52	1.56566e-06
2354.2	1.79533e-06
2362.88	2.61315e-06
2371.55	1.20432e-06
2380.23	1.78396e-07
2388.91	1.87214e-07
2397.59	2.00497e-07
2406.27	3.40238e-07
2414.94	8.30987e-07
2423.62	2.9437e-07
2432.3	2.55008e-07
2440.98	1.8337e-07
2449.66	1.95256e-07
2458.34	-1.09266e-08
2467.01	6.42373e-09
2475.69	7.93294e-08
2484.37	1.51012e-08
2493.05	1.42032e-07
2501.73	9.67261e-08
2510.4	-1.12552e-07
2519.08	-2.18786e-07
2527.76	-2.85262e-07
2536.44	-2.02495e-07
2545.12	-3.05389e-07
2553.8	-4.62218e-07
2562.47	-3.96361e-07
2571.15	-1.72277e-07
2579.83	9.37502e-09
2588.51	2.35922e-09
2597.19	4.42867e-08
2605.86	1.69511e-08
2614.54	-7.55304e-08
2623.22	1.56217e-07
2631.9	6.25956e-08
2640.58	-1.59465e-07
2649.26	-7.95804e-10
2657.93	6.6913e-08
2666.61	-4.03986e-08
2675.29	9.41031e-08
2683.97	9.10557e-07
2692.65	2.42477e-06
2701.32	6.78117e-07
2710	2.17755e-06
2718.68	1.0052e-07
2727.36	-6.95669e-09
2736.04	3.98384e-08
2744.72	1.31738e-07
2753.39	5.97326e-08
2762.07	6.51177e-08
2770.75	5.33789e-08
2779.43	8.3734e-08
2788.11	-2.082e-08
2796.78	1.8961e-08
2805.46	4.2354e-08
2814.14	4.05603e-07
2822.82	3.88225e-07
2831.5	7.38054e-07
2840.18	8.13441e-07
2848.85	1.0056e-06
2857.53	1.01102e-06
2866.21	1.0071e-06
2874.89	8.32606e-07
2883.57	5.05505e-07
2892.24	1.29279e-07
2900.92	1.35194e-07
2909.6	1.43836e-08
2918.28	2.96822e-07
2926.96	2.22046e-07
2935.63	6.80339e-07
2944.31	9.89807e-07
2952.99	2.62225e-06
2961.67	5.42159e-06
2970.35	7.90592e-06
2979.03	1.64005e-05
2987.7	1.82843e-05
2996.38	1.19402e-05
3005.06	2.46187e-05
3013.74	1.96016e-05
3022.42	1.14807e-05
3031.09	6.98571e-06
3039.77	3.74347e-06
3048.45	1.84492e-06
3057.13	7.29459e-07
3065.81	3.07294e-07
3074.49	-2.10492e-08
3083.16	-1.0162e-07
3091.84	-2.14949e-08
3100.52	-5.13771e-08
3109.2	-1.19072e-07
3117.88	4.01322e-08
3126.55	1.36669e-07
3135.23	-7.21025e-08
3143.91	1.27603e-07
3152.59	-5.48332e-08
3161.27	-7.45554e-08
3169.95	-1.24962e-07
3178.62	1.54131e-08
3187.3	-6.54778e-08
3195.98	-7.11358e-08
3204.66	5.46258e-08
3213.34	1.61365e-07
3222.01	-9.69689e-08
3230.69	-1.17063e-07
3239.37	-3.26216e-08
3248.05	1.08759e-07
3256.73	2.88126e-09
3265.41	7.56577e-08
3274.08	-1.60408e-07
3282.76	1.42825e-07
3291.44	4.79947e-08
3300.12	-9.84987e-08
3308.8	-2.28246e-08
3317.47	-1.35123e-08
3326.15	-9.98238e-08
3334.83	1.93325e-07
3343.51	-8.31338e-08
3352.19	-1.1702e-07
3360.87	-3.83359e-08
3369.54	-9.93736e-08
3378.22	-1.07778e-07
3386.9	-1.98696e-07
3395.58	-1.14769e-08
3404.26	1.75155e-07
3412.93	5.65057e-08
3421.61	-3.76611e-08
3430.29	6.2673e-08
3438.97	-5.48659e-08
3447.65	6.00518e-08
3456.33	-2.99732e-08
3465	1.50994e-08
3473.68	1.87495e-07
3482.36	1.02944e-07
3491.04	-1.20153e-08
3499.72	-1.34331e-07
3508.39	-5.97926e-08
3517.07	-2.01312e-07
3525.75	-1.50497e-07
3534.43	2.46008e-08
3543.11	2.53318e-07
3551.79	1.70825e-07
3560.46	3.78391e-07
3569.14	2.56513e-08
3577.82	9.43296e-08
3586.5	1.17441e-07
3595.18	-1.68591e-07
3603.85	4.58274e-08
3612.53	-2.51067e-07
3621.21	-7.98814e-08
3629.89	-2.10096e-07
3638.57	7.86709e-09
3647.25	-5.80973e-08
3655.92	1.45273e-08
3664.6	2.81014e-08
3673.28	6.68139e-08
3681.96	2.03605e-07
3690.64	9.536e-08
3699.31	5.25265e-07
3707.99	3.69888e-07
3716.67	5.6644e-07
3725.35	5.11569e-07
3734.03	5.75591e-07
3742.71	6.10614e-07
3751.38	7.4827e-07
3760.06	6.98878e-07
3768.74	7.64937e-07
3777.42	3.01401e-07
3786.1	2.88745e-07
3794.77	1.79006e-07
3803.45	-1.34607e-07
3812.13	9.58039e-08
3820.81	-1.99502e-07
3829.49	1.70407e-07
3838.17	1.5163e-08
3846.84	4.67014e-08
3855.52	-4.50379e-09
3864.2	4.3651e-08
3872.88	-2.94902e-08
3881.56	-1.21963e-08
3890.23	4.75872e-08
3898.91	-1.15066e-07
3907.59	2.59942e-07
3916.27	2.08277e-07
3924.95	1.13893e-07
3933.63	6.81656e-07
3942.3	5.27993e-07
3950.98	5.16949e-07
3959.66	5.96773e-07
3968.34	4.48866e-07
