Infrared Spectrum: Nitrile-Acetic Acid
Formula: C H3 C N
CAS: 75-05-8
State: gas
Melting point: -45.72 C
Boiling point: 81.6 C
Class: IUPAC A
Instrument: IFS66V (Bruker)
Instrument parameters: KBr Beam splitter; MCT Detector; Multipass cell
Sampling: 1 L/min Flow
Resolution: 0.2410
Temperature: 23 C
Pressure: 101.3 kPa
Origin: NIST, Anayltical Chemistry Division, 301-975-3108
cm-1	(micromol/mol)-1m-1 (base 10)
575.048	-6.29398e-07
583.606	9.589e-08
592.163	-5.08698e-07
600.721	-1.71115e-07
609.279	8.48101e-08
617.836	-1.22569e-07
626.394	-9.33338e-08
634.951	-2.17765e-08
643.509	2.34057e-07
652.067	8.27677e-08
660.624	-3.03726e-08
669.182	-1.21462e-07
677.74	2.79998e-07
686.297	1.62742e-06
694.855	5.04628e-06
703.412	7.67833e-06
711.97	3.22153e-06
720.528	4.44827e-06
729.085	5.8397e-06
737.643	2.71969e-06
746.201	8.83633e-07
754.758	2.05196e-07
763.316	7.98534e-09
771.873	-1.87415e-07
780.431	-1.09499e-07
788.989	-7.53748e-08
797.546	-1.44275e-07
806.104	-1.09179e-07
814.662	-1.28389e-07
823.219	-2.41071e-07
831.777	-1.67826e-07
840.334	-8.50461e-08
848.892	-1.49307e-07
857.45	-1.38047e-07
866.007	-5.83315e-08
874.565	-5.26611e-09
883.123	2.40665e-07
891.68	1.50315e-06
900.238	3.45009e-06
908.795	5.9445e-06
917.353	2.4014e-06
925.911	2.32127e-06
934.468	4.53025e-06
943.026	1.84295e-06
951.584	1.66318e-07
960.141	-1.4059e-08
968.699	1.32858e-07
977.256	2.33183e-07
985.814	8.14029e-07
994.372	1.38961e-06
1002.93	2.39348e-06
1011.49	2.75996e-06
1020.04	3.89643e-06
1028.6	3.49598e-06
1037.16	5.2923e-06
1045.72	4.57152e-06
1054.28	4.02506e-06
1062.83	4.28611e-06
1071.39	3.36396e-06
1079.95	2.86089e-06
1088.51	5.1064e-06
1097.06	1.03236e-06
1105.62	1.03213e-06
1114.18	4.62651e-07
1122.74	2.19339e-07
1131.29	1.38055e-07
1139.85	-3.8972e-08
1148.41	-3.49352e-08
1156.97	-1.02365e-07
1165.52	1.51103e-08
1174.08	-9.74938e-08
1182.64	-9.98797e-08
1191.2	-8.28466e-08
1199.75	-6.71571e-08
1208.31	-2.29299e-08
1216.87	9.00339e-08
1225.43	-9.56867e-09
1233.99	-2.16265e-09
1242.54	4.44637e-08
1251.1	7.7613e-08
1259.66	1.09729e-07
1268.22	4.4865e-07
1276.77	4.90429e-07
1285.33	1.91679e-06
1293.89	6.52409e-07
1302.45	1.08225e-06
1311	1.82455e-06
1319.56	1.5383e-06
1328.12	3.33236e-06
1336.68	1.24369e-05
1345.23	3.55571e-06
1353.79	3.51305e-06
1362.35	8.71135e-06
1370.91	1.54188e-05
1379.46	1.47257e-05
1388.02	1.85679e-05
1396.58	2.57491e-05
1405.14	2.05035e-05
1413.7	1.74246e-05
1422.25	6.1438e-05
1430.81	1.3867e-05
1439.37	1.61892e-05
1447.93	1.61662e-05
1456.48	1.83763e-05
1465.04	2.55851e-05
1473.6	1.55503e-05
1482.16	7.7795e-05
1490.71	1.4333e-05
1499.27	3.06808e-05
1507.83	1.45553e-05
1516.39	9.26478e-06
1524.94	9.38906e-06
1533.5	1.01147e-05
1542.06	1.64157e-05
1550.62	9.07063e-06
1559.18	4.90002e-06
1567.73	8.11442e-06
1576.29	6.3289e-06
1584.85	2.16198e-06
1593.41	1.59479e-06
1601.96	1.53435e-06
1610.52	6.22037e-07
1619.08	6.16744e-07
1627.64	1.16969e-06
1636.19	5.23213e-07
1644.75	1.72741e-07
1653.31	4.15639e-06
1661.87	1.75737e-07
1670.42	1.23976e-07
1678.98	6.79695e-08
1687.54	4.20866e-09
1696.1	2.161e-06
1704.65	3.66529e-07
1713.21	1.61291e-08
1721.77	1.60026e-07
1730.33	3.08023e-07
1738.89	3.69773e-07
1747.44	2.37906e-07
1756	2.9676e-07
1764.56	2.86493e-07
1773.12	6.67405e-07
1781.67	3.13687e-07
1790.23	3.58405e-07
1798.79	3.51555e-07
1807.35	4.30913e-07
1815.9	5.15516e-07
1824.46	5.42247e-07
1833.02	4.22639e-07
1841.58	6.6631e-07
1850.13	6.90262e-07
1858.69	3.73282e-07
1867.25	2.9734e-07
1875.81	2.33205e-07
1884.36	2.14892e-07
1892.92	3.7255e-07
1901.48	4.03713e-07
1910.04	2.8142e-07
1918.6	2.61674e-07
1927.15	1.36781e-07
1935.71	9.10384e-08
1944.27	2.71809e-09
1952.83	8.62486e-08
1961.38	1.37626e-08
1969.94	4.24577e-08
1978.5	5.05467e-09
1987.06	6.93482e-08
1995.61	-1.58158e-08
2004.17	-7.67658e-09
2012.73	-1.13005e-08
2021.29	-2.41888e-09
2029.84	-4.42056e-09
2038.4	9.09258e-08
2046.96	1.39839e-07
2055.52	3.49193e-07
2064.08	4.74156e-07
2072.63	7.20481e-08
2081.19	5.07092e-07
2089.75	4.97592e-07
2098.31	2.71128e-07
2106.86	3.2839e-08
2115.42	1.9415e-08
2123.98	8.27181e-09
2132.54	7.14502e-09
2141.09	6.49283e-08
2149.65	1.45349e-08
2158.21	8.07981e-08
2166.77	1.40431e-08
2175.32	9.95812e-08
2183.88	-4.76547e-09
2192.44	8.71951e-08
2201	1.05379e-07
2209.55	1.10594e-07
2218.11	1.8298e-07
2226.67	5.20644e-07
2235.23	1.48355e-06
2243.79	3.2913e-06
2252.34	5.07193e-06
2260.9	3.53073e-06
2269.46	3.24009e-06
2278.02	7.00792e-06
2286.57	5.25947e-06
2295.13	3.26384e-06
2303.69	2.4314e-06
2312.25	5.16462e-06
2320.8	3.71116e-06
2329.36	1.39753e-06
2337.92	7.06396e-07
2346.48	4.64859e-07
2355.03	5.95645e-07
2363.59	6.19992e-07
2372.15	8.22945e-07
2380.71	8.48548e-07
2389.26	8.60122e-07
2397.82	1.2062e-06
2406.38	1.62727e-06
2414.94	1.25676e-06
2423.5	1.53901e-06
2432.05	1.51348e-06
2440.61	1.00296e-06
2449.17	9.76412e-07
2457.73	1.11748e-06
2466.28	8.49549e-07
2474.84	8.996e-07
2483.4	1.03575e-06
2491.96	1.49709e-06
2500.51	7.24063e-07
2509.07	7.24528e-07
2517.63	5.80117e-07
2526.19	5.05231e-07
2534.74	6.60594e-07
2543.3	4.97416e-07
2551.86	3.40767e-07
2560.42	2.57973e-07
2568.98	2.73957e-07
2577.53	2.96188e-07
2586.09	4.15244e-07
2594.65	6.74491e-07
2603.21	1.21852e-06
2611.76	1.83425e-06
2620.32	3.58711e-06
2628.88	1.21855e-06
2637.44	1.15472e-06
2645.99	4.07403e-07
2654.55	2.25069e-07
2663.11	4.47319e-07
2671.67	1.50792e-07
2680.22	2.35594e-07
2688.78	1.83724e-07
2697.34	7.81498e-08
2705.9	1.64888e-07
2714.45	1.68039e-07
2723.01	2.68256e-07
2731.57	4.15854e-07
2740.13	4.03953e-07
2748.69	4.21688e-07
2757.24	6.6105e-07
2765.8	3.09497e-07
2774.36	2.86797e-07
2782.92	3.06858e-07
2791.47	1.74438e-07
2800.03	8.68524e-08
2808.59	5.19925e-07
2817.15	3.36884e-07
2825.7	4.24815e-07
2834.26	7.18944e-07
2842.82	9.19755e-07
2851.38	2.09616e-06
2859.93	2.31911e-06
2868.49	4.39276e-06
2877.05	4.05303e-06
2885.61	3.07567e-06
2894.16	2.89768e-06
2902.72	2.94772e-06
2911.28	2.59602e-06
2919.84	2.33646e-06
2928.4	3.76135e-06
2936.95	6.89306e-06
2945.51	8.95514e-06
2954.07	1.06943e-05
2962.63	8.53302e-06
2971.18	8.99332e-06
2979.74	4.58558e-06
2988.3	2.16566e-06
2996.86	1.97804e-06
3005.41	2.76418e-06
3013.97	6.42006e-06
3022.53	2.27246e-05
3031.09	7.32144e-06
3039.64	3.79504e-06
3048.2	2.69485e-06
3056.76	2.05298e-06
3065.32	1.6824e-06
3073.88	1.71258e-06
3082.43	1.2344e-06
3090.99	1.06971e-06
3099.55	8.97789e-07
3108.11	4.03599e-07
3116.66	4.06094e-07
3125.22	3.7194e-07
3133.78	6.66108e-08
3142.34	4.97262e-07
3150.89	8.72151e-07
3159.45	1.89902e-06
3168.01	2.75724e-06
3176.57	1.28672e-06
3185.12	2.52754e-06
3193.68	3.84596e-06
3202.24	1.20415e-06
3210.8	5.56692e-07
3219.35	8.31961e-07
3227.91	1.11627e-06
3236.47	3.66925e-07
3245.03	2.11616e-07
3253.59	2.53748e-07
3262.14	1.19259e-07
3270.7	2.14496e-07
3279.26	1.35612e-07
3287.82	2.22297e-07
3296.37	2.62313e-07
3304.93	3.62511e-07
3313.49	2.71514e-07
3322.05	2.85095e-07
3330.6	5.13014e-07
3339.16	3.65631e-07
3347.72	3.81213e-07
3356.28	5.52567e-07
3364.83	3.69617e-07
3373.39	1.88213e-07
3381.95	4.03157e-07
3390.51	4.65311e-07
3399.06	3.37832e-07
3407.62	2.74955e-07
3416.18	4.13986e-07
3424.74	3.26666e-07
3433.3	2.08305e-07
3441.85	2.62039e-07
3450.41	2.07661e-07
3458.97	2.9977e-07
3467.53	3.0305e-07
3476.08	2.76566e-07
3484.64	2.11564e-07
3493.2	1.66836e-07
3501.76	2.44978e-07
3510.31	2.94736e-07
3518.87	2.72119e-07
3527.43	3.89927e-07
3535.99	3.43691e-07
3544.54	1.97699e-07
3553.1	2.42647e-07
3561.66	3.27955e-07
3570.22	2.16396e-07
3578.78	2.59849e-07
3587.33	3.76875e-07
3595.89	3.13761e-07
3604.45	2.35297e-07
3613.01	5.71771e-07
3621.56	3.76816e-07
3630.12	4.6513e-07
3638.68	4.13983e-07
3647.24	1.261e-06
3655.79	7.81914e-07
3664.35	4.323e-07
3672.91	4.74549e-07
3681.47	5.6347e-07
3690.02	6.28138e-07
3698.58	4.28838e-07
3707.14	5.11211e-07
3715.7	3.78641e-07
3724.25	3.74732e-07
3732.81	5.58313e-07
3741.37	7.45802e-07
3749.93	7.25926e-07
3758.49	4.20382e-07
3767.04	4.10979e-07
3775.6	4.85048e-07
3784.16	3.93418e-07
3792.72	3.45047e-07
3801.27	2.29179e-06
3809.83	3.97968e-07
3818.39	5.47924e-07
3826.95	6.21592e-07
3835.5	4.4768e-07
3844.06	5.35576e-07
3852.62	6.9972e-07
3861.18	6.44502e-07
3869.73	8.48156e-07
3878.29	5.30931e-07
3886.85	5.01372e-07
3895.41	5.88998e-07
3903.96	1.00941e-06
3912.52	6.95656e-07
3921.08	8.87643e-07
3929.64	8.94623e-07
3938.2	8.57744e-07
3946.75	6.51874e-07
3955.31	7.74562e-07
3963.87	8.79033e-07
3972.43	8.71162e-07
