Infrared Spectrum: Dichloromethane
Formula: C H2 Cl2
CAS: 75-09-2
State: gas
Melting point: -95.1 C
Boiling point: 40 C
Class: IUPAC A
Instrument: IFS66V (Bruker)
Instrument parameters: KBr Beam Splitter; MCT Detector; Multipass cell
Sampling: 1 L/min Flow
Resolution: 0.4820
Temperature: 23 C
Pressure: 101.3 Pa
Origin: NIST, Analytical Chemistry Division, 301-975-3108
cm-1	(micromol/mol)-1m-1 (base 10)
575.17	7.96677e-07
583.848	-4.61693e-07
592.526	1.22888e-06
601.205	-3.48886e-07
609.883	-8.56576e-08
618.561	6.95963e-07
627.239	6.68353e-07
635.917	8.4672e-07
644.595	5.51778e-07
653.274	1.57241e-06
661.952	2.6972e-06
670.63	6.12678e-06
679.308	9.98327e-06
687.986	1.81538e-05
696.665	2.53554e-05
705.343	3.64846e-05
714.021	2.95426e-05
722.699	7.05827e-05
731.377	7.5565e-05
740.055	0.000290016
748.734	0.00083355
757.412	0.00063063
766.09	0.000684975
774.768	0.000104706
783.446	1.82123e-06
792.124	3.11998e-07
800.803	9.0085e-09
809.481	-2.79538e-07
818.159	4.20276e-07
826.837	-2.92292e-08
835.515	-7.54531e-08
844.194	3.00616e-07
852.872	3.78299e-07
861.55	3.45455e-07
870.228	6.4701e-07
878.906	1.47283e-06
887.584	3.04578e-06
896.263	5.90465e-06
904.941	3.13721e-06
913.619	3.02401e-06
922.297	3.06683e-06
930.975	1.84174e-06
939.654	1.22765e-06
948.332	5.38995e-07
957.01	2.57009e-07
965.688	2.90436e-07
974.366	2.96045e-07
983.044	3.37015e-07
991.723	2.3954e-07
1000.4	2.71704e-07
1009.08	2.8676e-07
1017.76	3.12797e-07
1026.44	2.43486e-07
1035.11	1.20737e-07
1043.79	4.58821e-07
1052.47	3.8871e-07
1061.15	5.24939e-08
1069.83	-1.21002e-07
1078.5	-1.44006e-07
1087.18	-2.96947e-07
1095.86	4.93107e-08
1104.54	8.13557e-08
1113.22	-4.59447e-08
1121.9	-1.02916e-07
1130.57	7.51839e-08
1139.25	-8.07818e-08
1147.93	-3.06407e-08
1156.61	-1.12363e-07
1165.29	4.50143e-08
1173.96	-5.81783e-08
1182.64	1.23225e-07
1191.32	1.36911e-07
1200	-1.23802e-07
1208.68	-6.3919e-08
1217.36	2.80787e-08
1226.03	-1.16056e-07
1234.71	2.49597e-07
1243.39	3.62086e-06
1252.07	6.23431e-05
1260.75	0.000219202
1269.42	3.42835e-05
1278.1	0.000211655
1286.78	1.91198e-05
1295.46	5.15535e-08
1304.14	-7.70793e-08
1312.82	7.91393e-08
1321.49	-4.35682e-08
1330.17	-2.59639e-07
1338.85	-1.97567e-07
1347.53	3.16972e-07
1356.21	-2.49891e-07
1364.88	-9.37175e-08
1373.56	-2.13177e-07
1382.24	1.28095e-07
1390.92	2.90903e-07
1399.6	1.42529e-07
1408.28	5.11762e-07
1416.95	5.40625e-07
1425.63	1.16481e-06
1434.31	1.26251e-06
1442.99	2.73479e-06
1451.67	5.04194e-06
1460.34	7.60064e-06
1469.02	8.15105e-06
1477.7	5.65718e-06
1486.38	1.81703e-07
1495.06	8.89354e-08
1503.74	6.37061e-08
1512.41	-8.30155e-08
1521.09	-3.70687e-07
1529.77	1.62969e-07
1538.45	3.20004e-07
1547.13	3.08365e-07
1555.8	5.27909e-07
1564.48	-8.66926e-09
1573.16	-2.42379e-09
1581.84	5.33116e-08
1590.52	8.23452e-09
1599.2	1.0143e-07
1607.87	3.62641e-08
1616.55	-2.7414e-07
1625.23	2.34112e-08
1633.91	2.15313e-07
1642.59	4.82366e-08
1651.26	-1.11233e-07
1659.94	1.76773e-07
1668.62	4.90442e-08
1677.3	4.71489e-08
1685.98	-5.59791e-09
1694.66	-5.9437e-08
1703.33	-6.79898e-08
1712.01	3.1794e-08
1720.69	1.37232e-07
1729.37	4.94244e-08
1738.05	-2.4317e-08
1746.72	1.55609e-07
1755.4	-4.48479e-08
1764.08	4.3128e-08
1772.76	-1.63353e-07
1781.44	-1.78069e-08
1790.12	9.50272e-08
1798.79	1.40583e-07
1807.47	4.68742e-08
1816.15	7.49383e-08
1824.83	-1.46306e-07
1833.51	-4.07388e-08
1842.18	-2.53348e-08
1850.86	-5.39328e-10
1859.54	4.78819e-08
1868.22	2.48927e-08
1876.9	9.62604e-09
1885.58	-9.56147e-08
1894.25	-1.11685e-07
1902.93	-2.49537e-08
1911.61	1.80952e-08
1920.29	4.74699e-08
1928.97	-7.56905e-08
1937.64	-7.85954e-08
1946.32	1.59324e-08
1955	-1.26233e-07
1963.68	8.97467e-08
1972.36	1.65457e-07
1981.04	2.50287e-07
1989.71	4.52402e-07
1998.39	2.6518e-08
2007.07	9.51681e-08
2015.75	1.74974e-07
2024.43	6.06439e-08
2033.1	2.57176e-07
2041.78	1.90218e-07
2050.46	7.575e-07
2059.14	6.27987e-07
2067.82	6.73305e-07
2076.5	1.22127e-07
2085.17	-5.95161e-08
2093.85	-1.21963e-08
2102.53	-1.84413e-07
2111.21	3.03733e-08
2119.89	-9.50517e-08
2128.56	2.68082e-07
2137.24	3.05331e-07
2145.92	1.84031e-07
2154.6	1.00565e-07
2163.28	3.41714e-07
2171.96	4.86148e-07
2180.63	7.10781e-07
2189.31	3.59786e-07
2197.99	2.60311e-07
2206.67	-4.51198e-08
2215.35	-1.14033e-07
2224.02	4.62567e-08
2232.7	6.69903e-08
2241.38	-3.80167e-09
2250.06	1.24504e-07
2258.74	2.02025e-08
2267.42	1.85991e-07
2276.09	3.69953e-07
2284.77	8.17854e-07
2293.45	1.23549e-06
2302.13	1.55181e-06
2310.81	2.05239e-06
2319.48	5.1337e-06
2328.16	2.28892e-06
2336.84	1.29884e-06
2345.52	1.44673e-06
2354.2	1.38832e-06
2362.88	3.27039e-06
2371.55	1.24968e-06
2380.23	4.14373e-08
2388.91	1.56819e-07
2397.59	2.33383e-07
2406.27	2.69142e-07
2414.94	8.2386e-07
2423.62	2.25725e-07
2432.3	2.60168e-07
2440.98	1.29027e-07
2449.66	4.79247e-08
2458.34	3.41677e-08
2467.01	-2.96921e-08
2475.69	1.36593e-07
2484.37	-6.06321e-08
2493.05	8.86434e-08
2501.73	5.89177e-08
2510.4	-1.64414e-07
2519.08	-3.18177e-07
2527.76	-2.53106e-07
2536.44	-3.13383e-07
2545.12	-3.3594e-07
2553.8	-4.88316e-07
2562.47	-3.65338e-07
2571.15	-1.37069e-07
2579.83	-3.17558e-08
2588.51	-9.4958e-08
2597.19	1.31849e-08
2605.86	8.60287e-09
2614.54	-1.09476e-07
2623.22	2.54944e-07
2631.9	1.15508e-07
2640.58	-1.13734e-07
2649.26	-2.08955e-08
2657.93	-5.22611e-08
2666.61	5.14908e-08
2675.29	7.95576e-08
2683.97	1.05687e-06
2692.65	2.26227e-06
2701.32	5.76317e-07
2710	2.18481e-06
2718.68	8.13912e-08
2727.36	-1.62744e-08
2736.04	-9.41595e-09
2744.71	9.62813e-08
2753.39	1.03077e-07
2762.07	-1.13222e-07
2770.75	-7.18142e-08
2779.43	1.44342e-07
2788.11	-2.50588e-07
2796.78	1.42185e-07
2805.46	4.55363e-08
2814.14	3.17955e-07
2822.82	3.79954e-07
2831.5	8.02872e-07
2840.17	7.75569e-07
2848.85	8.99493e-07
2857.53	9.12007e-07
2866.21	9.16991e-07
2874.89	9.02802e-07
2883.57	4.93682e-07
2892.24	1.76039e-07
2900.92	1.00585e-07
2909.6	4.08825e-08
2918.28	3.79376e-07
2926.96	1.96315e-07
2935.63	4.14241e-07
2944.31	9.00959e-07
2952.99	2.73496e-06
2961.67	4.84245e-06
2970.35	7.41814e-06
2979.03	1.53693e-05
2987.7	1.8568e-05
2996.38	1.17353e-05
3005.06	2.24564e-05
3013.74	2.06299e-05
3022.42	1.09434e-05
3031.09	7.04327e-06
3039.77	3.9125e-06
3048.45	1.96085e-06
3057.13	8.6544e-07
3065.81	4.09051e-07
3074.49	4.72053e-08
3083.16	-1.97771e-07
3091.84	6.82645e-08
3100.52	-8.44089e-08
3109.2	5.6452e-09
3117.88	6.64291e-09
3126.55	1.30394e-07
3135.23	-2.60057e-07
3143.91	2.17873e-07
3152.59	-5.49468e-08
3161.27	-4.24141e-08
3169.95	-1.32675e-07
3178.62	7.97068e-08
3187.3	9.24333e-08
3195.98	-7.13122e-08
3204.66	1.81806e-07
3213.34	6.84273e-08
3222.01	2.5302e-09
3230.69	-7.08784e-08
3239.37	-5.34535e-08
3248.05	4.95035e-08
3256.73	9.62059e-09
3265.41	2.52442e-07
3274.08	-2.21827e-07
3282.76	1.77574e-07
3291.44	-2.72847e-12
3300.12	-1.39567e-07
3308.8	2.05508e-08
3317.47	-3.13183e-08
3326.15	-1.47745e-07
3334.83	1.48811e-08
3343.51	-1.08583e-07
3352.19	-5.0725e-08
3360.87	-1.65991e-07
3369.54	1.52843e-07
3378.22	-1.37631e-07
3386.9	-4.18111e-08
3395.58	-4.49106e-09
3404.26	2.02291e-07
3412.93	2.8143e-07
3421.61	-9.52691e-08
3430.29	2.33068e-07
3438.97	5.62429e-08
3447.65	-6.97306e-09
3456.33	-3.89853e-08
3465	-5.70259e-08
3473.68	3.46759e-07
3482.36	6.10268e-10
3491.04	9.07462e-08
3499.72	-5.6864e-08
3508.39	-2.84988e-07
3517.07	-1.67639e-07
3525.75	-2.94979e-07
3534.43	-4.25187e-09
3543.11	4.54815e-07
3551.79	2.03353e-07
3560.46	2.82211e-07
3569.14	5.42693e-09
3577.82	-2.69209e-08
3586.5	1.90917e-07
3595.18	-1.26616e-07
3603.85	2.09323e-07
3612.53	-2.87769e-07
3621.21	-6.88084e-08
3629.89	-5.14426e-08
3638.57	1.15977e-07
3647.25	-2.09325e-07
3655.92	4.21239e-08
3664.6	5.71051e-08
3673.28	8.54157e-08
3681.96	1.87457e-07
3690.64	1.61226e-07
3699.31	6.71322e-07
3707.99	4.4135e-07
3716.67	5.14226e-07
3725.35	6.24034e-07
3734.03	4.72342e-07
3742.71	6.29349e-07
3751.38	8.37659e-07
3760.06	8.98407e-07
3768.74	5.92762e-07
3777.42	3.0552e-07
3786.1	3.5919e-07
3794.77	-2.9754e-08
3803.45	-2.52464e-07
3812.13	1.42317e-07
3820.81	-1.48648e-07
3829.49	1.61078e-07
3838.17	1.70621e-07
3846.84	6.86365e-08
3855.52	-9.71181e-08
3864.2	-2.0237e-07
3872.88	-6.07376e-08
3881.56	1.03696e-07
3890.23	7.79378e-08
3898.91	-5.88194e-08
3907.59	2.59179e-07
3916.27	2.59504e-07
3924.95	1.93402e-07
3933.63	5.11151e-07
3942.3	6.66789e-07
3950.98	5.76894e-07
3959.66	6.07971e-07
3968.34	4.19583e-07
