Infrared Spectrum: Nitrile-Acetic Acid
Formula: C H3 C N
CAS: 75-05-8
State: gas
Melting point: -45.72 C
Boiling point: 81.6 C
Class: IUPAC A
Instrument: IFS66V (Bruker)
Instrument parameters: KBr Beam splitter; MCT Detector; Multipass cell
Sampling: 1 L/min Flow
Resolution: 1.9290
Temperature: 23 C
Pressure: 101.3 kPa
Origin: NIST, Anayltical Chemistry Division, 301-975-3108
cm-1	(micromol/mol)-1m-1 (base 10)
574.687	-1.9127e-07
583.365	-3.71038e-07
592.043	-2.77367e-07
600.721	-1.55688e-07
609.4	-8.78297e-08
618.078	-3.80299e-08
626.756	-5.71796e-08
635.434	-1.13297e-07
644.112	-3.83232e-08
652.79	5.15328e-08
661.469	2.07402e-08
670.147	2.30101e-07
678.825	4.33486e-07
687.503	1.8314e-06
696.181	5.54575e-06
704.859	6.59184e-06
713.537	3.7239e-06
722.216	4.89671e-06
730.894	5.18335e-06
739.572	2.44226e-06
748.25	6.57595e-07
756.928	6.53771e-08
765.606	-1.09333e-07
774.285	-1.10117e-07
782.963	-1.11315e-07
791.641	-1.3373e-07
800.319	-1.24763e-07
808.997	-1.66056e-07
817.675	-1.20693e-07
826.353	-1.20159e-07
835.032	-1.20486e-07
843.71	-7.09642e-08
852.388	-9.6295e-08
861.066	-1.13114e-07
869.744	-9.69825e-08
878.422	1.13676e-07
887.101	7.26116e-07
895.779	2.37253e-06
904.457	4.76588e-06
913.135	4.24214e-06
921.813	1.50508e-06
930.491	4.30765e-06
939.169	3.09157e-06
947.848	6.73308e-07
956.526	1.187e-09
965.204	6.03525e-08
973.882	2.14802e-07
982.56	5.58119e-07
991.238	1.17776e-06
999.917	2.30276e-06
1008.59	2.92674e-06
1017.27	3.29353e-06
1025.95	1.06542e-05
1034.63	4.33925e-06
1043.31	9.31964e-06
1051.99	5.94695e-06
1060.66	5.46988e-06
1069.34	4.9079e-06
1078.02	3.4588e-06
1086.7	2.29391e-06
1095.38	2.06361e-06
1104.05	9.6114e-07
1112.73	6.90583e-07
1121.41	2.56265e-07
1130.09	1.22725e-07
1138.77	8.40401e-09
1147.45	-9.78541e-09
1156.12	-3.46542e-08
1164.8	-3.84851e-08
1173.48	-4.22666e-08
1182.16	-5.81809e-08
1190.84	-4.32958e-08
1199.51	-2.66488e-08
1208.19	-9.92706e-09
1216.87	4.02597e-08
1225.55	1.39862e-08
1234.23	2.12447e-08
1242.9	7.48e-08
1251.58	9.4246e-08
1260.26	1.55909e-07
1268.94	4.59612e-07
1277.62	5.63391e-07
1286.3	1.65374e-06
1294.97	1.8628e-06
1303.65	9.58863e-07
1312.33	1.39572e-06
1321.01	1.85998e-06
1329.69	3.19827e-06
1338.36	6.09191e-06
1347.04	3.2517e-06
1355.72	6.2908e-06
1364.4	1.18019e-05
1373.08	1.57414e-05
1381.76	1.31864e-05
1390.43	1.97591e-05
1399.11	2.47553e-05
1407.79	3.29249e-05
1416.47	2.06961e-05
1425.15	2.23307e-05
1433.82	2.65425e-05
1442.5	1.58718e-05
1451.18	2.12734e-05
1459.86	1.32429e-05
1468.54	1.70346e-05
1477.22	2.00893e-05
1485.89	1.52363e-05
1494.57	2.15235e-05
1503.25	1.21635e-05
1511.93	1.29885e-05
1520.61	1.17588e-05
1529.28	1.87122e-05
1537.96	1.05542e-05
1546.64	6.51343e-06
1555.32	9.41482e-06
1564	4.89992e-06
1572.67	3.27886e-06
1581.35	3.55035e-06
1590.03	2.37778e-06
1598.71	1.16888e-06
1607.39	7.26576e-07
1616.07	1.73136e-06
1624.74	7.8698e-07
1633.42	3.25283e-07
1642.1	1.63824e-07
1650.78	4.23411e-07
1659.46	9.64019e-08
1668.13	2.47753e-07
1676.81	1.53738e-07
1685.49	8.61424e-07
1694.17	2.84629e-07
1702.85	1.63622e-07
1711.53	8.12707e-08
1720.2	2.07239e-07
1728.88	2.19017e-07
1737.56	2.50056e-07
1746.24	2.96168e-07
1754.92	2.59597e-07
1763.59	3.23709e-07
1772.27	7.89831e-07
1780.95	3.66075e-07
1789.63	3.32318e-07
1798.31	3.62314e-07
1806.98	4.4836e-07
1815.66	5.4087e-07
1824.34	6.69262e-07
1833.02	4.5137e-07
1841.7	6.92336e-07
1850.38	5.86433e-07
1859.05	3.69684e-07
1867.73	3.71458e-07
1876.41	1.88988e-07
1885.09	2.16515e-07
1893.77	3.07866e-07
1902.44	3.88069e-07
1911.12	1.96966e-07
1919.8	2.10041e-07
1928.48	1.16611e-07
1937.16	6.57979e-08
1945.84	5.18082e-08
1954.51	4.07894e-08
1963.19	1.47655e-08
1971.87	1.8751e-08
1980.55	2.9553e-08
1989.23	2.18959e-08
1997.9	-4.38191e-09
2006.58	1.43969e-08
2015.26	6.53604e-09
2023.94	2.72392e-08
2032.62	3.60299e-08
2041.3	7.16672e-08
2049.97	1.59857e-07
2058.65	3.74171e-07
2067.33	3.65736e-07
2076.01	3.68864e-07
2084.69	4.72196e-07
2093.36	3.60987e-07
2102.04	1.79664e-07
2110.72	4.74242e-08
2119.4	8.53375e-08
2128.08	1.91097e-08
2136.75	6.57693e-08
2145.43	2.80745e-08
2154.11	4.17788e-08
2162.79	5.19319e-08
2171.47	5.32071e-08
2180.15	6.18668e-08
2188.82	6.68412e-08
2197.5	1.18129e-07
2206.18	1.21494e-07
2214.86	1.85551e-07
2223.54	3.49094e-07
2232.21	9.07378e-07
2240.89	2.3048e-06
2249.57	4.116e-06
2258.25	3.58974e-06
2266.93	4.97408e-06
2275.61	6.43084e-06
2284.28	5.85113e-06
2292.96	4.03517e-06
2301.64	2.14685e-06
2310.32	4.60684e-06
2319	4.3795e-06
2327.67	1.74196e-06
2336.35	8.74433e-07
2345.03	5.72645e-07
2353.71	5.33956e-07
2362.39	6.78801e-07
2371.06	7.28249e-07
2379.74	9.94639e-07
2388.42	9.98803e-07
2397.1	1.11327e-06
2405.78	1.44661e-06
2414.46	1.33726e-06
2423.13	1.48185e-06
2431.81	1.42775e-06
2440.49	1.04123e-06
2449.17	9.65713e-07
2457.85	9.88097e-07
2466.52	8.26842e-07
2475.2	1.0035e-06
2483.88	1.01243e-06
2492.56	1.18315e-06
2501.24	8.18751e-07
2509.92	7.25884e-07
2518.59	5.60386e-07
2527.27	5.33964e-07
2535.95	4.55816e-07
2544.63	4.3296e-07
2553.31	4.39477e-07
2561.98	3.15423e-07
2570.66	2.50353e-07
2579.34	2.53344e-07
2588.02	4.50286e-07
2596.7	7.61956e-07
2605.38	1.21416e-06
2614.05	1.99845e-06
2622.73	3.72473e-06
2631.41	1.31381e-06
2640.09	9.52235e-07
2648.77	3.78149e-07
2657.44	2.74961e-07
2666.12	3.68221e-07
2674.8	2.00581e-07
2683.48	1.83872e-07
2692.16	1.5888e-07
2700.83	5.81756e-08
2709.51	7.19099e-08
2718.19	2.28527e-07
2726.87	2.739e-07
2735.55	4.11453e-07
2744.23	4.40714e-07
2752.9	5.07912e-07
2761.58	5.24186e-07
2770.26	2.35432e-07
2778.94	2.12551e-07
2787.62	1.42674e-07
2796.29	3.24568e-07
2804.97	2.5101e-07
2813.65	1.75645e-07
2822.33	5.60321e-07
2831.01	5.00989e-07
2839.69	8.75049e-07
2848.36	1.72474e-06
2857.04	2.18421e-06
2865.72	2.22756e-06
2874.4	3.52559e-06
2883.08	4.03875e-06
2891.75	2.70693e-06
2900.43	2.94427e-06
2909.11	2.6685e-06
2917.79	2.16396e-06
2926.47	2.31172e-06
2935.14	5.9238e-06
2943.82	9.13916e-06
2952.5	5.43122e-06
2961.18	7.3149e-06
2969.86	9.84724e-06
2978.54	5.53669e-06
2987.21	3.91992e-06
2995.89	4.18334e-06
3004.57	6.34957e-06
3013.25	1.20273e-05
3021.93	6.86679e-06
3030.6	5.4318e-06
3039.28	5.39802e-06
3047.96	3.24381e-06
3056.64	2.45688e-06
3065.32	2.33449e-06
3074	1.90649e-06
3082.67	1.43181e-06
3091.35	1.20255e-06
3100.03	9.58387e-07
3108.71	6.69172e-07
3117.39	5.52247e-07
3126.06	4.04215e-07
3134.74	3.76121e-07
3143.42	5.99934e-07
3152.1	1.0449e-06
3160.78	1.96614e-06
3169.46	2.30327e-06
3178.13	2.50503e-06
3186.81	3.22653e-06
3195.49	3.25149e-06
3204.17	8.76577e-07
3212.85	5.43676e-07
3221.52	8.76499e-07
3230.2	9.19786e-07
3238.88	3.27133e-07
3247.56	2.10244e-07
3256.24	2.16656e-07
3264.91	1.88233e-07
3273.59	2.17796e-07
3282.27	1.68371e-07
3290.95	2.16077e-07
3299.63	2.30543e-07
3308.31	2.38177e-07
3316.98	3.13901e-07
3325.66	2.87044e-07
3334.34	2.95726e-07
3343.02	2.95163e-07
3351.7	3.52824e-07
3360.37	3.77839e-07
3369.05	3.4197e-07
3377.73	3.77837e-07
3386.41	4.10411e-07
3395.09	3.24234e-07
3403.77	3.44218e-07
3412.44	3.62828e-07
3421.12	3.46078e-07
3429.8	3.01153e-07
3438.48	2.90374e-07
3447.16	3.18642e-07
3455.83	2.36034e-07
3464.51	2.31493e-07
3473.19	2.18297e-07
3481.87	2.07384e-07
3490.55	2.37541e-07
3499.22	2.52714e-07
3507.9	2.53151e-07
3516.58	2.73729e-07
3525.26	2.92805e-07
3533.94	3.16632e-07
3542.62	3.107e-07
3551.29	3.28917e-07
3559.97	2.93195e-07
3568.65	4.32835e-07
3577.33	2.86069e-07
3586.01	4.60764e-07
3594.68	3.5125e-07
3603.36	3.42168e-07
3612.04	5.08069e-07
3620.72	5.54088e-07
3629.4	1.00996e-06
3638.08	4.99048e-07
3646.75	8.40219e-07
3655.43	8.20557e-07
3664.11	5.5975e-07
3672.79	6.13632e-07
3681.47	6.68712e-07
3690.14	7.83403e-07
3698.82	4.83889e-07
3707.5	4.78891e-07
3716.18	4.40924e-07
3724.86	5.22206e-07
3733.54	6.40256e-07
3742.21	5.58301e-07
3750.89	9.64127e-07
3759.57	6.06656e-07
3768.25	4.66857e-07
3776.93	3.98132e-07
3785.6	4.41339e-07
3794.28	4.38345e-07
3802.96	6.64459e-07
3811.64	4.04456e-07
3820.32	7.96362e-07
3828.99	4.7527e-07
3837.67	1.14813e-06
3846.35	4.59974e-07
3855.03	1.29265e-06
3863.71	7.28411e-07
3872.39	5.80859e-07
3881.06	7.20852e-07
3889.74	6.49374e-07
3898.42	7.45993e-07
3907.1	6.83655e-07
3915.78	8.76079e-07
3924.45	9.24435e-07
3933.13	9.05378e-07
3941.81	8.4937e-07
3950.49	9.01875e-07
3959.17	8.46333e-07
3967.85	1.19024e-06
