Infrared Spectrum: Nitrile-Acetic Acid
Formula: C H3 C N
CAS: 75-05-8
State: gas
Melting point: -45.72 C
Boiling point: 81.6 C
Class: IUPAC A
Instrument: IFS66V (Bruker)
Instrument parameters: KBr Beam splitter; MCT Detector; Multipass cell
Sampling: 1 L/min Flow
Resolution: 0.4820
Temperature: 23 C
Pressure: 101.3 kPa
Origin: NIST, Anayltical Chemistry Division, 301-975-3108
cm-1	(micromol/mol)-1m-1 (base 10)
574.928	-3.27128e-07
583.606	-4.86996e-07
592.284	-3.99297e-07
600.962	-3.4043e-07
609.641	-1.80975e-07
618.319	-3.85766e-08
626.997	3.21498e-08
635.675	-1.42245e-07
644.353	-1.46442e-07
653.031	2.40837e-07
661.71	2.6753e-08
670.388	2.61669e-07
679.066	6.10239e-07
687.744	1.93035e-06
696.422	5.7588e-06
705.1	6.76374e-06
713.778	2.96182e-06
722.457	5.21138e-06
731.135	5.21901e-06
739.813	2.26254e-06
748.491	6.39786e-07
757.169	7.11125e-08
765.847	-8.97622e-08
774.526	-1.2916e-07
783.204	-2.02874e-07
791.882	-1.67764e-07
800.56	-5.96002e-08
809.238	-1.53252e-07
817.916	-4.85536e-08
826.594	-6.97024e-08
835.273	-2.06129e-07
843.951	-7.91643e-08
852.629	-7.43015e-08
861.307	-3.76858e-08
869.985	-9.63313e-08
878.663	1.20077e-07
887.342	8.64474e-07
896.02	2.37999e-06
904.698	5.14427e-06
913.376	4.39979e-06
922.054	1.04626e-06
930.732	4.4408e-06
939.41	3.03084e-06
948.089	6.20073e-07
956.767	4.06804e-08
965.445	7.63075e-08
974.123	2.64168e-07
982.801	5.08616e-07
991.479	1.75824e-06
1000.16	3.18396e-06
1008.84	1.94875e-06
1017.51	3.04633e-06
1026.19	1.43679e-05
1034.87	4.4978e-06
1043.55	3.65896e-06
1052.23	4.33266e-06
1060.9	3.68015e-06
1069.58	3.60535e-06
1078.26	2.93705e-06
1086.94	2.09628e-06
1095.62	1.34537e-06
1104.3	9.27461e-07
1112.97	1.02175e-06
1121.65	2.52221e-07
1130.33	1.21005e-07
1139.01	-3.70369e-09
1147.69	-9.05348e-09
1156.36	-4.52435e-08
1165.04	1.44169e-08
1173.72	-3.4169e-08
1182.4	-9.21808e-09
1191.08	-5.28462e-08
1199.76	-5.14288e-08
1208.43	-2.51267e-08
1217.11	2.36911e-08
1225.79	5.43184e-08
1234.47	5.17562e-09
1243.15	5.15739e-08
1251.82	7.01922e-08
1260.5	1.37139e-07
1269.18	3.98124e-07
1277.86	6.24063e-07
1286.54	1.4755e-06
1295.21	2.2131e-06
1303.89	8.0043e-07
1312.57	1.4406e-06
1321.25	1.67329e-06
1329.93	3.16517e-06
1338.61	4.30199e-06
1347.28	2.99506e-06
1355.96	4.50239e-06
1364.64	1.39474e-05
1373.32	1.54959e-05
1382	1.26772e-05
1390.67	1.95136e-05
1399.35	2.34047e-05
1408.03	3.28955e-05
1416.71	2.22339e-05
1425.39	1.91648e-05
1434.07	1.79331e-05
1442.74	1.34164e-05
1451.42	1.6874e-05
1460.1	1.16112e-05
1468.78	1.58273e-05
1477.46	1.92237e-05
1486.13	1.37171e-05
1494.81	1.46594e-05
1503.49	1.20678e-05
1512.17	9.5304e-06
1520.85	1.02028e-05
1529.52	1.08879e-05
1538.2	9.74265e-06
1546.88	6.27211e-06
1555.56	9.9381e-06
1564.24	5.52141e-06
1572.92	4.30829e-06
1581.59	2.60111e-06
1590.27	2.06517e-06
1598.95	1.37669e-06
1607.63	6.7237e-07
1616.31	1.85448e-06
1624.98	5.17431e-07
1633.66	2.50621e-07
1642.34	2.08783e-07
1651.02	2.3217e-07
1659.7	7.71419e-08
1668.38	2.45708e-07
1677.05	2.82595e-08
1685.73	1.24186e-07
1694.41	1.38389e-07
1703.09	7.75457e-08
1711.77	6.00228e-08
1720.44	1.09602e-07
1729.12	2.02281e-07
1737.8	2.41728e-07
1746.48	2.30953e-07
1755.16	2.34904e-07
1763.84	2.73226e-07
1772.51	1.42639e-06
1781.19	3.29812e-07
1789.87	3.37355e-07
1798.55	3.36968e-07
1807.23	4.36489e-07
1815.9	5.31245e-07
1824.58	5.80141e-07
1833.26	4.46953e-07
1841.94	6.62329e-07
1850.62	5.68644e-07
1859.29	3.53551e-07
1867.97	4.8839e-07
1876.65	1.53317e-07
1885.33	2.09402e-07
1894.01	2.78572e-07
1902.69	3.62086e-07
1911.36	1.77407e-07
1920.04	1.90767e-07
1928.72	1.15335e-07
1937.4	8.05536e-08
1946.08	3.05758e-08
1954.75	2.30361e-09
1963.43	8.60671e-09
1972.11	6.91947e-09
1980.79	3.54206e-08
1989.47	-2.05358e-08
1998.15	1.46902e-08
2006.82	2.57065e-08
2015.5	-2.38955e-09
2024.18	1.07162e-08
2032.86	2.09792e-08
2041.54	9.41466e-08
2050.21	1.81864e-07
2058.89	3.91793e-07
2067.57	3.55533e-07
2076.25	4.348e-07
2084.93	5.74509e-07
2093.6	3.42758e-07
2102.28	1.84758e-07
2110.96	2.5349e-08
2119.64	1.14316e-07
2128.32	5.78745e-09
2137	5.10014e-08
2145.67	7.22982e-09
2154.35	4.84909e-08
2163.03	5.38523e-08
2171.71	5.14559e-08
2180.39	4.61925e-08
2189.06	3.96434e-08
2197.74	1.49702e-07
2206.42	1.35282e-07
2215.1	2.34326e-07
2223.78	3.75127e-07
2232.46	8.15764e-07
2241.13	2.22658e-06
2249.81	3.67238e-06
2258.49	3.75114e-06
2267.17	2.6324e-06
2275.85	6.57043e-06
2284.52	5.67559e-06
2293.2	3.93572e-06
2301.88	1.77025e-06
2310.56	4.37292e-06
2319.24	4.39565e-06
2327.92	1.59093e-06
2336.59	7.29066e-07
2345.27	5.78186e-07
2353.95	4.65892e-07
2362.63	8.06884e-07
2371.31	8.14881e-07
2379.98	1.17522e-06
2388.66	9.38428e-07
2397.34	1.0616e-06
2406.02	1.50731e-06
2414.7	1.20189e-06
2423.37	1.56169e-06
2432.05	1.48816e-06
2440.73	1.01106e-06
2449.41	9.47879e-07
2458.09	1.05643e-06
2466.77	7.82948e-07
2475.44	1.29886e-06
2484.12	9.82267e-07
2492.8	1.02083e-06
2501.48	7.79474e-07
2510.16	6.91111e-07
2518.83	5.64658e-07
2527.51	5.42049e-07
2536.19	4.26089e-07
2544.87	3.85673e-07
2553.55	3.98796e-07
2562.23	3.03543e-07
2570.9	2.41375e-07
2579.58	2.2044e-07
2588.26	4.6887e-07
2596.94	7.84078e-07
2605.62	1.23166e-06
2614.29	1.99418e-06
2622.97	3.40691e-06
2631.65	1.30956e-06
2640.33	9.34673e-07
2649.01	4.3673e-07
2657.68	3.0066e-07
2666.36	3.33323e-07
2675.04	2.34875e-07
2683.72	2.10154e-07
2692.4	1.43587e-07
2701.08	4.85661e-08
2709.75	9.40425e-08
2718.43	2.7571e-07
2727.11	2.89746e-07
2735.79	3.88559e-07
2744.47	5.43515e-07
2753.14	4.82163e-07
2761.82	4.85536e-07
2770.5	1.87335e-07
2779.18	2.02065e-07
2787.86	1.15542e-07
2796.54	2.21251e-07
2805.21	2.68512e-07
2813.89	1.38539e-07
2822.57	6.17894e-07
2831.25	5.36111e-07
2839.93	7.43473e-07
2848.6	1.83886e-06
2857.28	2.14894e-06
2865.96	2.1429e-06
2874.64	3.57483e-06
2883.32	4.0079e-06
2892	2.60823e-06
2900.67	2.77872e-06
2909.35	2.68887e-06
2918.03	2.09199e-06
2926.71	2.11506e-06
2935.39	6.00663e-06
2944.06	9.11959e-06
2952.74	4.33401e-06
2961.42	7.40565e-06
2970.1	9.81252e-06
2978.78	5.35001e-06
2987.45	3.03806e-06
2996.13	2.36039e-06
3004.81	3.81314e-06
3013.49	2.14708e-05
3022.17	1.04526e-05
3030.85	5.01462e-06
3039.52	3.17972e-06
3048.2	2.53925e-06
3056.88	2.10252e-06
3065.56	1.68815e-06
3074.24	1.76895e-06
3082.91	1.41809e-06
3091.59	1.09444e-06
3100.27	9.4352e-07
3108.95	7.49871e-07
3117.63	4.77255e-07
3126.31	3.82707e-07
3134.98	5.34067e-07
3143.66	6.35538e-07
3152.34	9.69789e-07
3161.02	1.96651e-06
3169.7	2.31693e-06
3178.37	4.09418e-06
3187.05	3.40802e-06
3195.73	3.14448e-06
3204.41	8.88532e-07
3213.09	6.37738e-07
3221.77	9.18451e-07
3230.44	9.64359e-07
3239.12	2.94333e-07
3247.8	2.43884e-07
3256.48	1.14179e-07
3265.16	2.28306e-07
3273.83	1.51762e-07
3282.51	1.90891e-07
3291.19	2.25071e-07
3299.87	2.58558e-07
3308.55	2.47993e-07
3317.22	3.70879e-07
3325.9	2.45493e-07
3334.58	2.491e-07
3343.26	3.38037e-07
3351.94	3.77256e-07
3360.62	4.46283e-07
3369.29	3.01541e-07
3377.97	3.73695e-07
3386.65	4.55265e-07
3395.33	3.53747e-07
3404.01	3.26882e-07
3412.68	3.12355e-07
3421.36	3.1938e-07
3430.04	2.53922e-07
3438.72	3.05405e-07
3447.4	3.35687e-07
3456.08	1.73293e-07
3464.75	2.71741e-07
3473.43	1.5526e-07
3482.11	2.79762e-07
3490.79	2.56804e-07
3499.47	3.21954e-07
3508.14	3.09772e-07
3516.82	2.54047e-07
3525.5	3.41416e-07
3534.18	4.49715e-07
3542.86	3.12154e-07
3551.53	2.83711e-07
3560.21	3.29241e-07
3568.89	3.37524e-07
3577.57	3.084e-07
3586.25	4.65398e-07
3594.93	3.21237e-07
3603.6	3.73351e-07
3612.28	6.55553e-07
3620.96	5.3677e-07
3629.64	1.99122e-06
3638.32	5.24767e-07
3646.99	1.01146e-06
3655.67	7.27376e-07
3664.35	4.63594e-07
3673.03	5.46436e-07
3681.71	6.40656e-07
3690.39	6.55385e-07
3699.06	5.26402e-07
3707.74	4.52801e-07
3716.42	4.79904e-07
3725.1	7.06348e-07
3733.78	4.14775e-07
3742.45	5.00596e-07
3751.13	6.08043e-07
3759.81	1.01688e-06
3768.49	3.71147e-07
3777.17	3.98389e-07
3785.85	4.68791e-07
3794.52	3.79374e-07
3803.2	5.29493e-07
3811.88	4.18192e-07
3820.56	1.14683e-06
3829.24	4.85088e-07
3837.91	2.94867e-06
3846.59	4.66705e-07
3855.27	5.41937e-07
3863.95	7.23145e-07
3872.63	5.18998e-07
3881.3	6.96202e-07
3889.98	5.49995e-07
3898.66	6.32468e-07
3907.34	6.29726e-07
3916.02	8.0923e-07
3924.7	9.63474e-07
3933.37	7.68342e-07
3942.05	7.56626e-07
3950.73	8.51901e-07
3959.41	8.42629e-07
3968.09	9.73498e-07
