Infrared Spectrum: 1,2-Epoxyethane
Formula: C2 H4 O
CAS: 75-21-8
State: gas
Melting point: -111 C
Boiling point: 13.5 C
Class: IUPAC A
Instrument: IFS66V (Bruker)
Instrument parameters: KBr Beam splitter; MCT Detector; Multipass cell
Sampling: 1 L/min Flow
Resolution: 0.1250
Temperature: 23 C
Pressure: 101.3 kPa
Origin: NIST, Anayltical Chemistry Division, 301-975-3108
cm-1	(micromol/mol)-1m-1 (base 10)
574.988	-4.05742e-07
583.546	-3.90223e-07
592.103	1.87598e-07
600.661	-6.58194e-07
609.219	-8.60409e-07
617.776	-4.62277e-07
626.334	-9.84752e-09
634.891	-2.03135e-08
643.449	-3.53227e-07
652.007	-1.51769e-07
660.564	1.65993e-07
669.122	-4.51669e-08
677.68	1.37953e-07
686.237	-5.19234e-07
694.795	6.26393e-08
703.352	3.79313e-08
711.91	-2.00494e-07
720.468	-1.83789e-07
729.025	-9.96757e-09
737.583	1.4533e-08
746.141	-1.15427e-07
754.698	2.14758e-07
763.256	7.30554e-07
771.813	1.19634e-06
780.371	3.58121e-06
788.929	6.10754e-06
797.486	1.2224e-05
806.044	1.59943e-05
814.602	2.56436e-05
823.159	1.58392e-05
831.717	5.38424e-05
840.274	0.000135108
848.832	0.000144054
857.39	0.000187175
865.947	0.000112977
874.505	0.000162873
883.063	0.000181566
891.62	0.000115576
900.178	0.000129782
908.735	9.31563e-05
917.293	5.62265e-05
925.851	2.2534e-05
934.408	6.8177e-06
942.966	2.36589e-06
951.524	1.14692e-06
960.081	1.88358e-07
968.639	-1.93211e-07
977.196	8.26217e-08
985.754	-3.24845e-07
994.312	-1.15675e-07
1002.87	-2.61551e-07
1011.43	-2.46643e-08
1019.98	-1.64825e-07
1028.54	1.60354e-08
1037.1	-1.63701e-09
1045.66	1.28109e-07
1054.22	2.49244e-07
1062.77	3.07558e-07
1071.33	6.34647e-07
1079.89	1.53686e-06
1088.45	1.6726e-06
1097	2.48562e-06
1105.56	3.26527e-06
1114.12	5.00825e-06
1122.68	5.66239e-06
1131.23	9.45021e-06
1139.79	6.58745e-06
1148.35	3.45866e-06
1156.91	6.38099e-06
1165.46	8.02559e-06
1174.02	7.46745e-06
1182.58	3.7804e-06
1191.14	4.82413e-06
1199.69	2.68153e-06
1208.25	2.59816e-06
1216.81	3.16715e-06
1225.37	6.42636e-06
1233.93	1.42188e-05
1242.48	2.61511e-05
1251.04	3.3958e-05
1259.6	3.51063e-05
1268.16	3.28167e-05
1276.71	4.40217e-05
1285.27	3.43151e-05
1293.83	3.20476e-05
1302.39	2.40233e-05
1310.94	6.57616e-06
1319.5	2.88823e-06
1328.06	6.37994e-07
1336.62	1.93375e-07
1345.17	5.30901e-08
1353.73	-1.68663e-07
1362.29	-5.27699e-08
1370.85	-3.81205e-08
1379.4	-8.50299e-08
1387.96	-1.09076e-07
1396.52	-5.34393e-08
1405.08	-6.05985e-08
1413.64	-5.9529e-08
1422.19	-1.4282e-07
1430.75	1.99555e-07
1439.31	5.66522e-07
1447.87	1.39009e-06
1456.42	1.45408e-06
1464.98	1.45759e-06
1473.54	2.23815e-06
1482.1	2.45236e-06
1490.65	4.11589e-06
1499.21	1.86219e-06
1507.77	2.92478e-06
1516.33	3.19318e-06
1524.88	2.59683e-06
1533.44	1.19959e-06
1542	6.49005e-07
1550.56	1.31616e-07
1559.11	3.01246e-08
1567.67	1.20888e-07
1576.23	6.14053e-07
1584.79	5.2098e-07
1593.35	1.18001e-06
1601.9	3.31102e-06
1610.46	1.98077e-06
1619.02	3.1412e-06
1627.58	2.93172e-06
1636.13	4.10859e-06
1644.69	4.90256e-06
1653.25	4.32345e-06
1661.81	2.52531e-06
1670.36	1.28315e-06
1678.92	2.07693e-07
1687.48	-1.85379e-07
1696.04	2.38771e-07
1704.59	2.36701e-07
1713.15	4.03992e-07
1721.71	6.28615e-07
1730.27	1.68066e-07
1738.83	5.63459e-08
1747.38	9.81868e-07
1755.94	4.0886e-07
1764.5	2.65832e-07
1773.06	2.12262e-07
1781.61	1.69183e-07
1790.17	-7.70995e-08
1798.73	-7.19339e-08
1807.29	-3.04666e-08
1815.84	1.26439e-07
1824.4	1.03364e-07
1832.96	3.84988e-08
1841.52	9.15634e-09
1850.07	6.1828e-08
1858.63	1.60733e-07
1867.19	5.55019e-08
1875.75	-1.28996e-08
1884.3	-2.0579e-08
1892.86	2.90878e-08
1901.42	1.18949e-07
1909.98	1.2912e-07
1918.54	2.05285e-07
1927.09	5.96963e-07
1935.65	1.21658e-06
1944.21	5.46321e-07
1952.77	7.95732e-07
1961.32	1.49305e-06
1969.88	1.20188e-06
1978.44	1.37689e-06
1987	1.48122e-06
1995.55	2.09745e-06
2004.11	2.31962e-06
2012.67	3.44648e-06
2021.23	1.07732e-06
2029.78	1.77246e-06
2038.34	2.51054e-06
2046.9	1.52185e-06
2055.46	9.94498e-07
2064.01	8.67233e-07
2072.57	1.21508e-06
2081.13	1.13208e-06
2089.69	8.90031e-07
2098.25	1.99809e-06
2106.8	1.5588e-06
2115.36	1.39876e-06
2123.92	1.17507e-06
2132.48	1.11463e-06
2141.03	1.32959e-06
2149.59	8.14856e-07
2158.15	1.00756e-06
2166.71	8.11048e-07
2175.26	3.64238e-07
2183.82	3.43685e-07
2192.38	4.74511e-07
2200.94	6.07076e-07
2209.49	7.466e-07
2218.05	1.21117e-06
2226.61	1.57882e-06
2235.17	2.67439e-06
2243.72	4.11567e-06
2252.28	3.83907e-06
2260.84	2.59529e-06
2269.4	3.84196e-06
2277.96	3.58105e-06
2286.51	2.91997e-06
2295.07	2.12426e-06
2303.63	1.47628e-06
2312.19	1.34584e-06
2320.74	1.39485e-06
2329.3	1.42381e-06
2337.86	5.94973e-07
2346.42	3.88099e-07
2354.97	2.59924e-07
2363.53	2.10996e-07
2372.09	2.09792e-07
2380.65	4.65886e-07
2389.2	1.32903e-07
2397.76	2.30051e-07
2406.32	1.40226e-07
2414.88	3.01392e-08
2423.44	6.72993e-08
2431.99	9.60197e-08
2440.55	1.78394e-07
2449.11	8.84822e-08
2457.67	2.31695e-07
2466.22	-3.97393e-08
2474.78	-2.00559e-07
2483.34	-2.78292e-07
2491.9	-2.35027e-07
2500.45	-1.6815e-07
2509.01	-2.85316e-07
2517.57	-1.99613e-07
2526.13	-3.10122e-07
2534.68	-4.43499e-07
2543.24	-2.6477e-07
2551.8	-2.10832e-07
2560.36	-7.77871e-08
2568.91	-4.01686e-08
2577.47	8.47171e-08
2586.03	4.23531e-07
2594.59	4.83511e-07
2603.15	1.04411e-06
2611.7	1.48683e-06
2620.26	1.72809e-06
2628.82	1.1708e-06
2637.38	1.18644e-06
2645.93	4.61306e-07
2654.49	1.06202e-07
2663.05	-3.18999e-08
2671.61	-6.28284e-08
2680.16	-1.73116e-07
2688.72	-1.76975e-07
2697.28	-5.73135e-08
2705.84	1.92985e-08
2714.39	1.23012e-07
2722.95	1.05172e-07
2731.51	2.53096e-07
2740.07	5.48115e-07
2748.62	4.19951e-07
2757.18	4.5419e-07
2765.74	6.5328e-07
2774.3	2.08959e-07
2782.86	2.108e-07
2791.41	6.44946e-08
2799.97	-3.59051e-08
2808.53	-4.89102e-08
2817.09	-1.28858e-07
2825.64	-2.18097e-07
2834.2	-2.98052e-07
2842.76	-9.70201e-09
2851.32	1.63588e-07
2859.87	2.36548e-07
2868.43	8.24657e-07
2876.99	2.2306e-06
2885.55	6.81995e-06
2894.1	1.83631e-05
2902.66	3.44224e-05
2911.22	3.51496e-05
2919.78	3.71821e-05
2928.34	2.79164e-05
2936.89	3.51122e-05
2945.45	4.55758e-05
2954.01	4.43266e-05
2962.57	4.54731e-05
2971.12	4.64158e-05
2979.68	5.47788e-05
2988.24	6.78153e-05
2996.8	6.79678e-05
3005.35	0.000114664
3013.91	7.90788e-05
3022.47	0.000114073
3031.03	0.000153888
3039.58	0.000106469
3048.14	6.09293e-05
3056.7	5.37691e-05
3065.26	0.000765721
3073.81	4.27171e-05
3082.37	4.38696e-05
3090.93	0.000111432
3099.49	5.06824e-05
3108.05	4.42597e-05
3116.6	1.70033e-05
3125.16	7.13863e-06
3133.72	3.623e-06
3142.28	1.37677e-06
3150.83	5.06018e-07
3159.39	1.25078e-07
3167.95	3.87062e-09
3176.51	-2.98118e-08
3185.06	-1.1375e-07
3193.62	4.86119e-08
3202.18	-1.53311e-07
3210.74	-1.35646e-07
3219.29	-2.44904e-07
3227.85	-1.07453e-07
3236.41	-2.59652e-07
3244.97	-3.71969e-07
3253.52	-1.31514e-07
3262.08	-2.34027e-07
3270.64	-2.77957e-07
3279.2	-1.23722e-07
3287.76	-5.25698e-08
3296.31	-2.11069e-07
3304.87	2.65705e-08
3313.43	-4.33007e-08
3321.99	-2.20756e-07
3330.54	-2.17057e-07
3339.1	-1.73621e-07
3347.66	-1.53333e-07
3356.22	-1.57382e-07
3364.77	-3.60324e-08
3373.33	-6.70701e-08
3381.89	-2.67982e-07
3390.45	-2.74763e-07
3399	-1.62308e-07
3407.56	-6.31668e-08
3416.12	-2.14543e-07
3424.68	-2.81777e-07
3433.23	-2.31761e-07
3441.79	9.54559e-09
3450.35	-2.09246e-07
3458.91	-1.06671e-07
3467.47	-6.55968e-08
3476.02	-2.78452e-07
3484.58	-2.26078e-07
3493.14	-7.55207e-09
3501.7	2.6019e-07
3510.25	-4.09944e-07
3518.81	-1.9029e-07
3527.37	-8.77728e-08
3535.93	-1.40088e-07
3544.48	-3.38395e-07
3553.04	-1.58597e-07
3561.6	-3.22538e-07
3570.16	1.68758e-08
3578.71	-1.79613e-07
3587.27	-9.27603e-08
3595.83	-3.83206e-08
3604.39	-2.34594e-07
3612.95	-1.77034e-07
3621.5	-6.95329e-08
3630.06	-1.48349e-07
3638.62	-9.78423e-08
3647.18	9.12724e-09
3655.73	-3.7019e-07
3664.29	-1.07955e-07
3672.85	-2.38316e-07
3681.41	-4.21585e-08
3689.96	2.97103e-07
3698.52	4.74442e-08
3707.08	2.07384e-07
3715.64	6.64852e-07
3724.19	1.90428e-06
3732.75	6.77962e-07
3741.31	1.46694e-06
3749.87	1.1073e-06
3758.42	1.32564e-06
3766.98	1.88212e-06
3775.54	1.42389e-06
3784.1	1.66085e-06
3792.66	1.98267e-06
3801.21	1.89265e-06
3809.77	2.46993e-06
3818.33	2.064e-06
3826.89	3.51279e-06
3835.44	3.49631e-06
3844	3.77505e-06
3852.56	3.65585e-06
3861.12	3.73303e-06
3869.67	4.94215e-06
3878.23	1.63601e-06
3886.79	1.45231e-06
3895.35	1.6738e-06
3903.9	2.15449e-06
3912.46	1.348e-06
3921.02	3.74923e-07
3929.58	7.22784e-07
3938.13	3.12145e-07
3946.69	3.74977e-07
3955.25	7.45585e-07
3963.81	-1.97314e-08
3972.37	-1.49212e-07
