Infrared Spectrum: 1,2-Epoxyethane
Formula: C2 H4 O
CAS: 75-21-8
State: gas
Melting point: -111 C
Boiling point: 13.5 C
Class: IUPAC A
Instrument: IFS66V (Bruker)
Instrument parameters: KBr Beam splitter; MCT Detector; Multipass cell
Sampling: 1 L/min Flow
Resolution: 0.1250
Temperature: 23 C
Pressure: 101.3 kPa
Origin: NIST, Anayltical Chemistry Division, 301-975-3108
cm-1	(micromol/mol)-1m-1 (base 10)
574.988	-5.5208e-07
583.546	-4.93657e-07
592.103	1.21779e-07
600.661	-5.95148e-07
609.219	-8.0462e-07
617.776	-4.17026e-07
626.334	-5.28136e-08
634.891	-6.6288e-08
643.449	-3.8083e-07
652.007	-1.92167e-07
660.564	6.41417e-08
669.122	-6.06385e-08
677.68	1.04048e-07
686.237	-4.73554e-07
694.795	-1.64683e-08
703.352	-1.07497e-08
711.91	-2.30345e-07
720.468	-2.01149e-07
729.025	-6.28612e-09
737.583	5.12348e-08
746.141	-6.13915e-08
754.698	2.05612e-07
763.256	7.07989e-07
771.813	1.19026e-06
780.371	3.59294e-06
788.929	6.17378e-06
797.486	1.22314e-05
806.044	1.60615e-05
814.602	2.5797e-05
823.159	1.59185e-05
831.717	5.32239e-05
840.274	0.000135125
848.832	0.000142708
857.39	0.000186737
865.947	0.000114053
874.505	0.000163089
883.063	0.000180928
891.62	0.000116706
900.178	0.000128991
908.735	9.27165e-05
917.293	5.64406e-05
925.851	2.24673e-05
934.408	6.89529e-06
942.966	2.4144e-06
951.524	1.1233e-06
960.081	1.72621e-07
968.639	-1.98708e-07
977.196	5.99146e-08
985.754	-3.09828e-07
994.312	-1.24275e-07
1002.87	-2.56832e-07
1011.43	-3.61306e-08
1019.98	-1.85211e-07
1028.54	1.21684e-08
1037.1	-6.54804e-11
1045.66	1.26504e-07
1054.22	2.52249e-07
1062.77	3.02978e-07
1071.33	6.7347e-07
1079.89	1.56986e-06
1088.45	1.66173e-06
1097	2.47437e-06
1105.56	3.23702e-06
1114.12	5.03699e-06
1122.68	5.67339e-06
1131.23	9.48513e-06
1139.79	6.52715e-06
1148.35	3.45311e-06
1156.91	6.39277e-06
1165.46	8.0794e-06
1174.02	7.49247e-06
1182.58	3.81874e-06
1191.14	4.78161e-06
1199.69	2.66801e-06
1208.25	2.5679e-06
1216.81	3.1839e-06
1225.37	6.49663e-06
1233.93	1.42739e-05
1242.48	2.59231e-05
1251.04	3.35373e-05
1259.6	3.46682e-05
1268.16	3.28209e-05
1276.71	4.40565e-05
1285.27	3.44149e-05
1293.83	3.20546e-05
1302.39	2.36386e-05
1310.94	6.67927e-06
1319.5	2.85208e-06
1328.06	6.4281e-07
1336.62	1.75346e-07
1345.17	3.46864e-08
1353.73	-1.6206e-07
1362.29	-6.75139e-08
1370.85	-4.46576e-08
1379.4	-7.77216e-08
1387.96	-9.3888e-08
1396.52	-6.17553e-08
1405.08	-6.35124e-08
1413.64	-7.49387e-08
1422.19	-1.27549e-07
1430.75	2.09344e-07
1439.31	5.71524e-07
1447.87	1.37969e-06
1456.42	1.42833e-06
1464.98	1.47839e-06
1473.54	2.23753e-06
1482.1	2.47695e-06
1490.65	4.06514e-06
1499.21	1.87852e-06
1507.77	2.91888e-06
1516.33	3.12414e-06
1524.88	2.5869e-06
1533.44	1.2202e-06
1542	6.4281e-07
1550.56	1.2916e-07
1559.11	2.8775e-08
1567.67	1.2541e-07
1576.23	6.05515e-07
1584.79	5.20333e-07
1593.35	1.17753e-06
1601.9	3.22827e-06
1610.46	1.98823e-06
1619.02	3.1748e-06
1627.58	2.95351e-06
1636.13	4.12205e-06
1644.69	4.86398e-06
1653.25	4.2954e-06
1661.81	2.52826e-06
1670.36	1.29308e-06
1678.92	2.05528e-07
1687.48	-1.85069e-07
1696.04	2.52682e-07
1704.59	2.45035e-07
1713.15	4.28413e-07
1721.71	6.11743e-07
1730.27	1.69532e-07
1738.83	7.86129e-08
1747.38	9.66622e-07
1755.94	4.04836e-07
1764.5	2.60161e-07
1773.06	2.09494e-07
1781.61	1.63301e-07
1790.17	-8.08901e-08
1798.73	-5.66224e-08
1807.29	-2.17613e-08
1815.84	1.05671e-07
1824.4	9.18035e-08
1832.96	3.64289e-08
1841.52	1.61518e-08
1850.07	6.20645e-08
1858.63	1.52344e-07
1867.19	5.27517e-08
1875.75	-1.18338e-08
1884.3	-1.92221e-08
1892.86	2.72871e-08
1901.42	1.41991e-07
1909.98	1.42303e-07
1918.54	2.1343e-07
1927.09	6.08448e-07
1935.65	1.23044e-06
1944.21	5.65245e-07
1952.77	7.89144e-07
1961.32	1.48546e-06
1969.88	1.18785e-06
1978.44	1.38684e-06
1987	1.49328e-06
1995.55	2.13609e-06
2004.11	2.3065e-06
2012.67	3.46354e-06
2021.23	1.09513e-06
2029.78	1.79272e-06
2038.34	2.46136e-06
2046.9	1.52493e-06
2055.46	1.01649e-06
2064.01	8.86597e-07
2072.57	1.21661e-06
2081.13	1.14727e-06
2089.69	8.80089e-07
2098.25	1.99251e-06
2106.8	1.56543e-06
2115.36	1.42676e-06
2123.92	1.16525e-06
2132.48	1.1157e-06
2141.03	1.33521e-06
2149.59	8.19494e-07
2158.15	1.02217e-06
2166.71	8.02917e-07
2175.26	3.69862e-07
2183.82	3.36889e-07
2192.38	4.81557e-07
2200.94	5.89964e-07
2209.49	7.53312e-07
2218.05	1.2051e-06
2226.61	1.60484e-06
2235.17	2.73395e-06
2243.72	4.05594e-06
2252.28	3.84182e-06
2260.84	2.60761e-06
2269.4	3.83775e-06
2277.96	3.5849e-06
2286.51	2.90084e-06
2295.07	2.13437e-06
2303.63	1.49319e-06
2312.19	1.38215e-06
2320.74	1.40201e-06
2329.3	1.42086e-06
2337.86	6.09666e-07
2346.42	3.99354e-07
2354.97	2.54722e-07
2363.53	2.2395e-07
2372.09	2.31691e-07
2380.65	4.50793e-07
2389.2	1.37436e-07
2397.76	2.33212e-07
2406.32	1.38084e-07
2414.88	3.63816e-08
2423.44	5.11584e-08
2431.99	8.10138e-08
2440.55	1.48528e-07
2449.11	9.20436e-08
2457.67	2.2506e-07
2466.22	-6.03911e-08
2474.78	-1.9663e-07
2483.34	-2.63933e-07
2491.9	-2.44278e-07
2500.45	-1.62821e-07
2509.01	-2.68506e-07
2517.57	-2.13295e-07
2526.13	-3.00766e-07
2534.68	-4.52342e-07
2543.24	-2.68986e-07
2551.8	-2.1578e-07
2560.36	-8.45643e-08
2568.91	-4.02923e-08
2577.47	7.32326e-08
2586.03	4.37631e-07
2594.59	4.99474e-07
2603.15	1.03407e-06
2611.7	1.51748e-06
2620.26	1.74919e-06
2628.82	1.17766e-06
2637.38	1.18169e-06
2645.93	4.55591e-07
2654.49	1.19516e-07
2663.05	-3.83533e-08
2671.61	-6.75685e-08
2680.16	-1.66746e-07
2688.72	-1.66582e-07
2697.28	-6.03911e-08
2705.84	-1.07934e-08
2714.39	9.96757e-08
2722.95	1.11237e-07
2731.51	2.59368e-07
2740.07	5.5463e-07
2748.62	4.12989e-07
2757.18	4.54143e-07
2765.74	6.55182e-07
2774.3	1.85506e-07
2782.86	1.93724e-07
2791.41	6.21482e-08
2799.97	-1.55189e-08
2808.53	-6.54477e-08
2817.09	-1.28935e-07
2825.64	-2.03186e-07
2834.2	-2.56469e-07
2842.76	-1.24704e-08
2851.32	1.52577e-07
2859.87	2.50404e-07
2868.43	8.52326e-07
2876.99	2.22044e-06
2885.55	6.82323e-06
2894.1	1.8156e-05
2902.66	3.41968e-05
2911.22	3.53425e-05
2919.78	3.71582e-05
2928.34	2.80486e-05
2936.89	3.51002e-05
2945.45	4.56801e-05
2954.01	4.4998e-05
2962.57	4.58171e-05
2971.12	4.63552e-05
2979.68	5.48765e-05
2988.24	6.78554e-05
2996.8	6.78283e-05
3005.35	0.000114876
3013.91	7.95638e-05
3022.47	0.00011359
3031.03	0.000153141
3039.58	0.000106801
3048.14	6.06109e-05
3056.7	5.35742e-05
3065.26	0.00076752
3073.81	4.22374e-05
3082.37	4.39098e-05
3090.93	0.000110802
3099.49	5.11778e-05
3108.05	4.40097e-05
3116.6	1.70698e-05
3125.16	7.21044e-06
3133.72	3.62712e-06
3142.28	1.37808e-06
3150.83	4.89993e-07
3159.39	1.32412e-07
3167.95	6.10787e-09
3176.51	-2.31546e-08
3185.06	-1.12899e-07
3193.62	4.02122e-08
3202.18	-1.47367e-07
3210.74	-9.72457e-08
3219.29	-2.64395e-07
3227.85	-1.35235e-07
3236.41	-2.59535e-07
3244.97	-3.16692e-07
3253.52	-1.15064e-07
3262.08	-2.30586e-07
3270.64	-3.02683e-07
3279.2	-1.20739e-07
3287.76	-6.7343e-08
3296.31	-2.09923e-07
3304.87	-5.46034e-09
3313.43	-4.19475e-08
3321.99	-2.24987e-07
3330.54	-1.88467e-07
3339.1	-1.69492e-07
3347.66	-1.46592e-07
3356.22	-1.53366e-07
3364.77	-3.31986e-08
3373.33	-1.28054e-07
3381.89	-2.68164e-07
3390.45	-2.56032e-07
3399	-1.64992e-07
3407.56	-6.95038e-08
3416.12	-1.84669e-07
3424.68	-2.78284e-07
3433.23	-2.01563e-07
3441.79	-1.82581e-08
3450.35	-1.90566e-07
3458.91	-1.25832e-07
3467.47	-1.12266e-07
3476.02	-2.56872e-07
3484.58	-2.05488e-07
3493.14	-1.76288e-08
3501.7	2.16016e-07
3510.25	-3.98605e-07
3518.81	-1.83436e-07
3527.37	-1.14223e-07
3535.93	-1.53362e-07
3544.48	-3.02439e-07
3553.04	-1.98624e-07
3561.6	-3.11967e-07
3570.16	-2.96699e-08
3578.71	-1.69954e-07
3587.27	-7.94023e-08
3595.83	-7.48841e-08
3604.39	-2.30265e-07
3612.95	-2.06467e-07
3621.5	-4.85719e-08
3630.06	-1.49466e-07
3638.62	-1.27785e-07
3647.18	-2.0579e-08
3655.73	-3.12622e-07
3664.29	-1.25799e-07
3672.85	-2.61445e-07
3681.41	-4.1329e-08
3689.96	2.77233e-07
3698.52	5.75245e-08
3707.08	2.28774e-07
3715.64	6.50846e-07
3724.19	1.91311e-06
3732.75	6.76565e-07
3741.31	1.46926e-06
3749.87	1.10888e-06
3758.42	1.32742e-06
3766.98	1.861e-06
3775.54	1.39935e-06
3784.1	1.63147e-06
3792.66	1.92563e-06
3801.21	1.89367e-06
3809.77	2.45318e-06
3818.33	2.05433e-06
3826.89	3.52369e-06
3835.44	3.48423e-06
3844	3.85915e-06
3852.56	3.68793e-06
3861.12	3.69118e-06
3869.67	5.01312e-06
3878.23	1.61506e-06
3886.79	1.41554e-06
3895.35	1.6764e-06
3903.9	2.12837e-06
3912.46	1.35532e-06
3921.02	3.85825e-07
3929.58	7.11783e-07
3938.13	3.14863e-07
3946.69	3.93181e-07
3955.25	7.41576e-07
3963.81	2.34565e-08
3972.37	-1.35708e-07
