Infrared Spectrum: 1,2-Epoxyethane
Formula: C2 H4 O
CAS: 75-21-8
State: gas
Melting point: -111 C
Boiling point: 13.5 C
Class: IUPAC A
Instrument: IFS66V (Bruker)
Instrument parameters: KBr Beam splitter; MCT Detector; Multipass cell
Sampling: 1 L/min Flow
Resolution: 1.9290
Temperature: 23 C
Pressure: 101.3 kPa
Origin: NIST, Anayltical Chemistry Division, 301-975-3108
cm-1	(micromol/mol)-1m-1 (base 10)
574.687	-4.02491e-07
583.365	-2.61696e-07
592.043	-6.68677e-08
600.721	-1.74249e-07
609.4	-2.46712e-07
618.078	-2.50511e-07
626.756	-1.84282e-07
635.434	-2.37657e-07
644.112	-2.10529e-07
652.79	-2.18448e-07
661.469	-1.55919e-07
670.147	-1.51136e-07
678.825	-1.03992e-07
687.503	-1.75578e-07
696.181	-2.15599e-07
704.859	-1.74857e-07
713.537	-1.16663e-07
722.216	-1.05288e-07
730.894	-9.46023e-08
739.572	-2.72189e-08
748.25	1.55956e-07
756.928	3.55218e-07
765.606	7.69743e-07
774.285	1.62943e-06
782.963	3.56288e-06
791.641	7.41529e-06
800.319	1.28751e-05
808.997	2.34767e-05
817.675	2.46684e-05
826.353	2.38559e-05
835.032	8.8393e-05
843.71	0.000117973
852.388	0.000162093
861.066	0.000169836
869.744	0.00022565
878.422	0.000122921
887.101	0.000135691
895.779	0.000127079
904.457	0.000108331
913.135	6.94638e-05
921.813	3.49359e-05
930.491	1.41469e-05
939.169	4.86635e-06
947.848	1.49866e-06
956.526	3.27588e-07
965.204	-8.9602e-09
973.882	-6.50788e-08
982.56	-1.48246e-07
991.238	-1.58385e-07
999.917	-1.52692e-07
1008.59	-1.44732e-07
1017.27	-1.42954e-07
1025.95	-1.07854e-07
1034.63	-5.28644e-08
1043.31	5.18795e-08
1051.99	1.63779e-07
1060.66	3.7706e-07
1069.34	7.37273e-07
1078.02	1.19425e-06
1086.7	1.73313e-06
1095.38	2.15199e-06
1104.05	3.02961e-06
1112.73	4.70686e-06
1121.41	6.26819e-06
1130.09	8.0822e-06
1138.77	6.43491e-06
1147.45	5.43278e-06
1156.12	8.5149e-06
1164.8	8.09906e-06
1173.48	7.87173e-06
1182.16	5.30482e-06
1190.84	3.81774e-06
1199.51	2.8223e-06
1208.19	2.41773e-06
1216.87	3.3285e-06
1225.55	7.11427e-06
1234.23	1.50221e-05
1242.9	2.50191e-05
1251.58	3.00011e-05
1260.26	3.20532e-05
1268.94	2.02972e-05
1277.62	3.97266e-05
1286.3	3.10944e-05
1294.97	2.9256e-05
1303.65	1.7178e-05
1312.33	7.02573e-06
1321.01	2.35658e-06
1329.69	6.4568e-07
1338.36	6.63293e-08
1347.04	-6.58045e-08
1355.72	-1.29056e-07
1364.4	-1.04253e-07
1373.08	-1.39165e-07
1381.76	-5.58348e-08
1390.43	-6.51588e-08
1399.11	-8.61623e-08
1407.79	-1.35522e-07
1416.47	-1.01208e-07
1425.15	-2.38329e-08
1433.82	3.25584e-07
1442.5	8.34218e-07
1451.18	1.18924e-06
1459.86	1.18164e-06
1468.54	1.76195e-06
1477.22	2.56694e-06
1485.89	2.59671e-06
1494.57	3.44083e-06
1503.25	3.71654e-06
1511.93	2.43529e-06
1520.61	2.74973e-06
1529.28	1.85172e-06
1537.96	8.66575e-07
1546.64	2.38205e-07
1555.32	7.79042e-08
1564	8.08582e-08
1572.67	2.90921e-07
1581.35	5.91808e-07
1590.03	1.11254e-06
1598.71	1.61617e-06
1607.39	2.35665e-06
1616.07	3.02932e-06
1624.74	3.87119e-06
1633.42	3.70843e-06
1642.1	1.20532e-05
1650.78	4.80421e-06
1659.46	2.66841e-06
1668.13	1.53162e-06
1676.81	5.22519e-07
1685.49	1.45425e-07
1694.17	-5.32883e-08
1702.85	2.42239e-07
1711.53	7.14792e-07
1720.2	5.36983e-07
1728.88	2.10357e-07
1737.56	2.55731e-07
1746.24	1.06075e-06
1754.92	3.61028e-07
1763.59	2.28999e-07
1772.27	2.3741e-07
1780.95	9.37765e-08
1789.63	-7.65009e-08
1798.31	-5.86233e-08
1806.98	-5.94809e-08
1815.66	9.63785e-08
1824.34	4.00553e-08
1833.02	7.64091e-08
1841.7	7.08576e-09
1850.38	1.02277e-07
1859.05	1.19119e-07
1867.73	8.67271e-08
1876.41	-7.58997e-08
1885.09	-1.52338e-08
1893.77	-2.2114e-08
1902.44	1.41415e-07
1911.12	1.98114e-07
1919.8	2.45614e-07
1928.48	8.32503e-07
1937.16	6.23568e-07
1945.84	4.89394e-07
1954.51	1.00135e-06
1963.19	1.08132e-06
1971.87	1.16524e-06
1980.55	1.31691e-06
1989.23	1.76402e-06
1997.9	2.53334e-06
2006.58	2.39935e-06
2015.26	2.87667e-06
2023.94	1.15494e-06
2032.62	1.95646e-06
2041.3	2.10738e-06
2049.97	1.3777e-06
2058.65	1.06139e-06
2067.33	8.31443e-07
2076.01	8.72611e-07
2084.69	2.34147e-06
2093.36	8.70766e-07
2102.04	1.97636e-06
2110.72	1.61643e-06
2119.4	1.35061e-06
2128.08	1.20619e-06
2136.75	6.85226e-07
2145.43	1.01735e-06
2154.11	8.19638e-07
2162.79	9.20321e-07
2171.47	5.94473e-07
2180.15	6.12802e-07
2188.82	4.52423e-07
2197.5	6.74074e-07
2206.18	6.58745e-07
2214.86	1.05017e-06
2223.54	1.62624e-06
2232.21	2.63845e-06
2240.89	3.1943e-06
2249.57	3.76804e-06
2258.25	4.28417e-06
2266.93	2.28721e-06
2275.61	3.96625e-06
2284.28	3.61121e-06
2292.96	2.16732e-06
2301.64	2.02456e-06
2310.32	2.35089e-06
2319	1.57818e-06
2327.67	1.36195e-06
2336.35	7.74054e-07
2345.03	3.48013e-07
2353.71	3.28497e-07
2362.39	1.39663e-07
2371.06	3.18133e-07
2379.74	2.34902e-07
2388.42	2.5495e-07
2397.1	1.33819e-07
2405.78	2.68996e-07
2414.46	-3.2684e-08
2423.13	1.09874e-07
2431.81	1.89508e-08
2440.49	1.04392e-07
2449.17	3.03403e-09
2457.85	2.96701e-07
2466.52	-8.98093e-08
2475.2	-6.7508e-08
2483.88	-2.81022e-07
2492.56	-2.21349e-07
2501.24	-2.36803e-07
2509.92	-1.57038e-07
2518.59	-3.27144e-07
2527.27	-2.42111e-07
2535.95	-3.21414e-07
2544.63	-2.44262e-07
2553.31	-3.78259e-07
2561.98	-5.45279e-08
2570.66	-8.21861e-08
2579.34	2.79668e-07
2588.02	4.64766e-07
2596.7	7.76016e-07
2605.38	8.67293e-07
2614.05	7.51047e-07
2622.73	1.0421e-06
2631.41	1.31969e-06
2640.09	8.48265e-07
2648.77	5.26088e-07
2657.44	5.45088e-08
2666.12	3.05067e-08
2674.8	-2.2618e-07
2683.48	-5.49681e-08
2692.16	-2.17181e-07
2700.83	-1.74074e-08
2709.51	-5.19604e-08
2718.19	1.97567e-07
2726.87	8.6145e-08
2735.55	3.77054e-07
2744.23	2.32868e-07
2752.9	6.55291e-07
2761.58	2.97497e-07
2770.26	5.6414e-07
2778.94	2.33418e-08
2787.62	2.78252e-07
2796.29	-1.20247e-07
2804.97	8.82187e-08
2813.65	-2.87743e-07
2822.33	5.93863e-08
2831.01	-3.01303e-07
2839.69	1.38603e-07
2848.36	-9.17665e-08
2857.04	3.91891e-07
2865.72	4.45129e-07
2874.4	1.87743e-06
2883.08	4.39648e-06
2891.75	1.30821e-05
2900.43	2.61e-05
2909.11	3.65022e-05
2917.79	3.72606e-05
2926.47	2.95367e-05
2935.14	3.24872e-05
2943.82	4.50433e-05
2952.5	5.15484e-05
2961.18	4.80677e-05
2969.86	3.68691e-05
2978.54	5.77416e-05
2987.21	7.03404e-05
2995.89	6.71827e-05
3004.57	8.12564e-05
3013.25	8.51829e-05
3021.93	0.000115063
3030.6	0.000121176
3039.28	0.000109815
3047.96	7.65825e-05
3056.64	3.50678e-05
3065.32	0.000968942
3074	3.07924e-05
3082.67	5.31049e-05
3091.35	7.14854e-05
3100.03	6.03328e-05
3108.71	3.96144e-05
3117.39	1.89232e-05
3126.06	8.60148e-06
3134.74	2.58188e-06
3143.42	1.52099e-06
3152.1	1.06087e-07
3160.78	4.42156e-07
3169.46	-2.83325e-07
3178.13	2.33173e-07
3186.81	-3.19538e-07
3195.49	2.16585e-07
3204.17	-3.26641e-07
3212.85	1.13183e-07
3221.52	-2.69936e-07
3230.2	5.67616e-08
3238.88	-3.62542e-07
3247.56	4.77131e-08
3256.24	-2.47124e-07
3264.91	1.48736e-08
3273.59	-3.49269e-07
3282.27	-2.18235e-07
3290.95	-3.95572e-07
3299.63	-9.53199e-08
3308.31	-3.704e-07
3316.98	-9.54799e-08
3325.66	-2.49646e-07
3334.34	-2.26788e-08
3343.02	-2.98367e-07
3351.7	-3.6371e-08
3360.37	-2.14429e-07
3369.05	-2.3842e-08
3377.73	-2.48205e-07
3386.41	-6.09261e-08
3395.09	-3.07708e-07
3403.77	-1.24541e-07
3412.44	-2.14142e-07
3421.12	-3.62519e-09
3429.8	-2.03794e-07
3438.48	-9.45395e-08
3447.16	-2.20854e-07
3455.83	-2.15238e-08
3464.51	-2.87315e-07
3473.19	1.74311e-08
3481.87	-2.2067e-07
3490.55	-9.69633e-08
3499.22	-2.24038e-07
3507.9	-6.39792e-08
3516.58	-2.02578e-07
3525.26	-1.23586e-07
3533.94	-2.22785e-07
3542.62	-7.71139e-08
3551.29	-2.47553e-07
3559.97	-9.77418e-08
3568.65	-2.60607e-07
3577.33	-9.89987e-08
3586.01	-2.46161e-07
3594.68	-8.60823e-08
3603.36	-2.17761e-07
3612.04	-9.41294e-08
3620.72	-1.61149e-07
3629.4	-3.0865e-08
3638.08	-1.56669e-07
3646.75	-1.11246e-07
3655.43	-2.12299e-07
3664.11	-1.03682e-07
3672.79	-1.86066e-07
3681.47	2.86886e-08
3690.14	1.10887e-07
3698.82	2.2639e-07
3707.5	2.64757e-07
3716.18	5.72347e-07
3724.86	2.48264e-06
3733.54	8.80357e-07
3742.21	1.67418e-06
3750.89	1.31762e-06
3759.57	1.31267e-06
3768.25	2.44324e-06
3776.93	1.25232e-06
3785.6	1.4265e-06
3794.28	1.66466e-06
3802.96	2.32177e-06
3811.64	2.91658e-06
3820.32	2.49113e-06
3828.99	5.15888e-06
3837.67	3.45828e-06
3846.35	4.38979e-06
3855.03	3.76174e-06
3863.71	3.9848e-06
3872.39	5.68749e-06
3881.06	1.48258e-06
3889.74	1.54858e-06
3898.42	1.78696e-06
3907.1	1.5198e-06
3915.78	7.94732e-07
3924.45	4.07629e-07
3933.13	2.38427e-07
3941.81	5.91931e-07
3950.49	1.72447e-08
3959.17	1.54321e-08
3967.85	8.57003e-09
