Infrared Spectrum: 1,2-Epoxyethane
Formula: C2 H4 O
CAS: 75-21-8
State: gas
Melting point: -111 C
Boiling point: 13.5 C
Class: IUPAC A
Instrument: IFS66V (Bruker)
Instrument parameters: KBr Beam splitter; MCT Detector; Multipass cell
Sampling: 1 L/min Flow
Resolution: 1.9290
Temperature: 23 C
Pressure: 101.3 kPa
Origin: NIST, Anayltical Chemistry Division, 301-975-3108
cm-1	(micromol/mol)-1m-1 (base 10)
574.687	-3.76612e-07
583.365	-2.28008e-07
592.043	-6.95407e-08
600.721	-1.50339e-07
609.4	-2.38476e-07
618.078	-2.14241e-07
626.756	-1.69613e-07
635.434	-2.06351e-07
644.112	-1.85001e-07
652.79	-1.71503e-07
661.469	-1.34425e-07
670.147	-1.08291e-07
678.825	-7.34041e-08
687.503	-1.19579e-07
696.181	-1.66842e-07
704.859	-1.10572e-07
713.537	-6.55271e-08
722.216	-3.3679e-08
730.894	-1.62015e-08
739.572	7.58215e-08
748.25	2.62077e-07
756.928	4.97583e-07
765.606	9.31394e-07
774.285	1.84709e-06
782.963	3.81629e-06
791.641	7.70107e-06
800.319	1.3175e-05
808.997	2.34923e-05
817.675	2.61087e-05
826.353	2.59084e-05
835.032	8.79631e-05
843.71	0.000117982
852.388	0.000160563
861.066	0.000168637
869.744	0.000220499
878.422	0.000126014
887.101	0.000136159
895.779	0.000126267
904.457	0.000107488
913.135	6.94201e-05
921.813	3.54426e-05
930.491	1.47752e-05
939.169	5.38331e-06
947.848	1.88197e-06
956.526	6.07313e-07
965.204	2.04855e-07
973.882	9.72643e-08
982.56	-1.12221e-08
991.238	-4.27701e-08
999.917	-5.43896e-08
1008.59	-5.59312e-08
1017.27	-6.52952e-08
1025.95	-3.19146e-08
1034.63	1.52538e-08
1043.31	1.18033e-07
1051.99	2.25933e-07
1060.66	4.42346e-07
1069.34	7.92097e-07
1078.02	1.24822e-06
1086.7	1.77307e-06
1095.38	2.2129e-06
1104.05	3.08176e-06
1112.73	4.73828e-06
1121.41	6.28383e-06
1130.09	8.08842e-06
1138.77	7.0207e-06
1147.45	6.18953e-06
1156.12	8.51951e-06
1164.8	8.06357e-06
1173.48	7.8303e-06
1182.16	5.3819e-06
1190.84	3.87875e-06
1199.51	2.92963e-06
1208.19	2.56015e-06
1216.87	3.50811e-06
1225.55	7.28673e-06
1234.23	1.50664e-05
1242.9	2.48018e-05
1251.58	2.97442e-05
1260.26	3.20394e-05
1268.94	2.16557e-05
1277.62	3.91395e-05
1286.3	3.09254e-05
1294.97	2.88986e-05
1303.65	1.71808e-05
1312.33	7.20442e-06
1321.01	2.531e-06
1329.69	7.65142e-07
1338.36	1.65844e-07
1347.04	-7.36224e-09
1355.72	-6.86885e-08
1364.4	-7.19362e-08
1373.08	-9.21331e-08
1381.76	-3.33506e-08
1390.43	-3.05667e-08
1399.11	-6.65676e-08
1407.79	-9.99691e-08
1416.47	-8.13166e-08
1425.15	1.36386e-08
1433.82	3.41537e-07
1442.5	8.53783e-07
1451.18	1.19123e-06
1459.86	1.21739e-06
1468.54	1.89209e-06
1477.22	2.56767e-06
1485.89	2.61742e-06
1494.57	3.37e-06
1503.25	3.60952e-06
1511.93	2.45935e-06
1520.61	2.71164e-06
1529.28	1.86142e-06
1537.96	8.7487e-07
1546.64	2.82523e-07
1555.32	9.64676e-08
1564	1.21223e-07
1572.67	3.03353e-07
1581.35	6.28938e-07
1590.03	1.10334e-06
1598.71	1.65653e-06
1607.39	2.33299e-06
1616.07	3.03185e-06
1624.74	3.77902e-06
1633.42	3.74261e-06
1642.1	1.13237e-05
1650.78	4.79534e-06
1659.46	2.67266e-06
1668.13	1.55841e-06
1676.81	5.37384e-07
1685.49	1.79609e-07
1694.17	-4.03936e-08
1702.85	2.77357e-07
1711.53	6.92218e-07
1720.2	5.58173e-07
1728.88	2.1333e-07
1737.56	2.83235e-07
1746.24	9.76101e-07
1754.92	3.77366e-07
1763.59	2.21023e-07
1772.27	2.54935e-07
1780.95	8.24698e-08
1789.63	-4.57914e-08
1798.31	-6.76053e-08
1806.98	-3.2483e-08
1815.66	8.27427e-08
1824.34	6.81201e-08
1833.02	7.78942e-08
1841.7	5.07617e-08
1850.38	8.70254e-08
1859.05	1.44166e-07
1867.73	7.15406e-08
1876.41	-4.44645e-08
1885.09	-2.67205e-08
1893.77	1.11511e-08
1902.44	1.26126e-07
1911.12	2.29324e-07
1919.8	2.42482e-07
1928.48	8.84902e-07
1937.16	7.01383e-07
1945.84	5.4077e-07
1954.51	9.75816e-07
1963.19	1.11528e-06
1971.87	1.15334e-06
1980.55	1.36541e-06
1989.23	1.74818e-06
1997.9	2.53341e-06
2006.58	2.39321e-06
2015.26	2.88208e-06
2023.94	1.20436e-06
2032.62	1.98426e-06
2041.3	2.06218e-06
2049.97	1.4175e-06
2058.65	1.0427e-06
2067.33	8.86318e-07
2076.01	8.709e-07
2084.69	2.2597e-06
2093.36	8.84862e-07
2102.04	1.98199e-06
2110.72	1.58404e-06
2119.4	1.37477e-06
2128.08	1.17399e-06
2136.75	7.58412e-07
2145.43	9.91338e-07
2154.11	8.62017e-07
2162.79	8.93315e-07
2171.47	6.75886e-07
2180.15	6.0221e-07
2188.82	5.04906e-07
2197.5	6.4823e-07
2206.18	7.1536e-07
2214.86	1.03446e-06
2223.54	1.67507e-06
2232.21	2.58642e-06
2240.89	3.22387e-06
2249.57	3.71469e-06
2258.25	4.2296e-06
2266.93	2.3485e-06
2275.61	3.97444e-06
2284.28	3.53495e-06
2292.96	2.23729e-06
2301.64	1.95203e-06
2310.32	2.29629e-06
2319	1.52911e-06
2327.67	1.39422e-06
2336.35	7.53241e-07
2345.03	4.47018e-07
2353.71	2.96931e-07
2362.39	2.04851e-07
2371.06	2.77226e-07
2379.74	2.91235e-07
2388.42	2.17542e-07
2397.1	1.95265e-07
2405.78	2.18022e-07
2414.46	3.5618e-08
2423.13	6.35181e-08
2431.81	8.23689e-08
2440.49	5.71599e-08
2449.17	6.71678e-08
2457.85	2.27524e-07
2466.52	-2.37975e-08
2475.2	-1.17917e-07
2483.88	-2.09598e-07
2492.56	-2.65324e-07
2501.24	-1.64564e-07
2509.92	-2.13639e-07
2518.59	-2.51355e-07
2527.27	-2.96829e-07
2535.95	-2.41436e-07
2544.63	-2.93919e-07
2553.31	-2.9053e-07
2561.98	-1.13695e-07
2570.66	2.95763e-09
2579.34	2.19714e-07
2588.02	5.44512e-07
2596.7	7.05674e-07
2605.38	9.6142e-07
2614.05	7.30513e-07
2622.73	1.14742e-06
2631.41	1.22323e-06
2640.09	9.37078e-07
2648.77	4.51403e-07
2657.44	1.63313e-07
2666.12	-4.01026e-08
2674.8	-1.09687e-07
2683.48	-1.3076e-07
2692.16	-9.56282e-08
2700.83	-9.73844e-08
2709.51	7.38034e-08
2718.19	1.07718e-07
2726.87	2.22745e-07
2735.55	2.82426e-07
2744.23	3.82537e-07
2752.9	5.50857e-07
2761.58	4.52327e-07
2770.26	4.55925e-07
2778.94	1.97643e-07
2787.62	1.71198e-07
2796.29	7.01446e-08
2804.97	-1.80268e-08
2813.65	-6.85275e-08
2822.33	-4.76959e-08
2831.01	-5.0779e-08
2839.69	3.50341e-08
2848.36	1.99701e-07
2857.04	3.10312e-07
2865.72	8.24752e-07
2874.4	1.85302e-06
2883.08	4.93653e-06
2891.75	1.30022e-05
2900.43	2.63384e-05
2909.11	3.58288e-05
2917.79	3.75539e-05
2926.47	3.00497e-05
2935.14	3.3825e-05
2943.82	4.50137e-05
2952.5	5.13751e-05
2961.18	4.78741e-05
2969.86	3.83182e-05
2978.54	5.74958e-05
2987.21	7.04227e-05
2995.89	6.71318e-05
3004.57	7.80713e-05
3013.25	8.54313e-05
3021.93	0.000113506
3030.6	0.000119609
3039.28	0.000109838
3047.96	7.57741e-05
3056.64	4.21784e-05
3065.32	0.00089316
3074	3.17775e-05
3082.67	5.51992e-05
3091.35	6.98196e-05
3100.03	6.07631e-05
3108.71	3.89868e-05
3117.39	1.98324e-05
3126.06	8.47212e-06
3134.74	3.34357e-06
3143.42	1.36594e-06
3152.1	6.45795e-07
3160.78	2.56894e-07
3169.46	1.32407e-07
3178.13	5.39394e-08
3186.81	2.54163e-08
3195.49	4.23108e-08
3204.17	-3.36126e-08
3212.85	-4.59678e-08
3221.52	-2.41849e-08
3230.2	-9.17038e-08
3238.88	-1.36394e-07
3247.56	-9.40066e-08
3256.24	-5.31245e-08
3264.91	-1.1858e-07
3273.59	-1.67132e-07
3282.27	-3.24497e-07
3290.95	-2.28516e-07
3299.63	-2.05872e-07
3308.31	-2.10762e-07
3316.98	-2.0146e-07
3325.66	-1.14038e-07
3334.34	-1.25478e-07
3343.02	-1.67066e-07
3351.7	-1.31431e-07
3360.37	-9.31799e-08
3369.05	-1.11287e-07
3377.73	-1.31182e-07
3386.41	-1.49738e-07
3395.09	-1.90433e-07
3403.77	-1.97531e-07
3412.44	-1.07754e-07
3421.12	-8.33475e-08
3429.8	-1.08763e-07
3438.48	-1.65813e-07
3447.16	-1.28308e-07
3455.83	-9.50543e-08
3464.51	-1.88575e-07
3473.19	-5.9209e-08
3481.87	-1.33373e-07
3490.55	-1.60549e-07
3499.22	-1.38241e-07
3507.9	-1.28912e-07
3516.58	-1.24633e-07
3525.26	-1.80553e-07
3533.94	-1.45547e-07
3542.62	-1.39495e-07
3551.29	-1.7166e-07
3559.97	-1.55647e-07
3568.65	-1.8876e-07
3577.33	-1.52911e-07
3586.01	-1.78434e-07
3594.68	-1.4349e-07
3603.36	-1.504e-07
3612.04	-1.44154e-07
3620.72	-1.04174e-07
3629.4	-7.9303e-08
3638.08	-9.73335e-08
3646.75	-1.50768e-07
3655.43	-1.51721e-07
3664.11	-1.38759e-07
3672.79	-1.20576e-07
3681.47	-6.81564e-09
3690.14	1.64086e-07
3698.82	1.89762e-07
3707.5	3.24885e-07
3716.18	5.42629e-07
3724.86	2.39451e-06
3733.54	8.4477e-07
3742.21	1.65963e-06
3750.89	1.26785e-06
3759.57	1.36659e-06
3768.25	2.33467e-06
3776.93	1.31692e-06
3785.6	1.42138e-06
3794.28	1.72077e-06
3802.96	2.28675e-06
3811.64	3.00303e-06
3820.32	2.50175e-06
3828.99	4.98024e-06
3837.67	3.42227e-06
3846.35	4.36803e-06
3855.03	3.72011e-06
3863.71	3.96359e-06
3872.39	5.42481e-06
3881.06	1.55484e-06
3889.74	1.53193e-06
3898.42	1.80337e-06
3907.1	1.47918e-06
3915.78	8.36421e-07
3924.45	3.94346e-07
3933.13	2.9639e-07
3941.81	5.46458e-07
3950.49	6.93424e-08
3959.17	1.41297e-08
3967.85	4.15678e-08
