Infrared Spectrum: 1,2-Epoxyethane
Formula: C2 H4 O
CAS: 75-21-8
State: gas
Melting point: -111 C
Boiling point: 13.5 C
Class: IUPAC A
Instrument: IFS66V (Bruker)
Instrument parameters: KBr Beam splitter; MCT Detector; Multipass cell
Sampling: 1 L/min Flow
Resolution: 0.4820
Temperature: 23 C
Pressure: 101.3 kPa
Origin: NIST, Anayltical Chemistry Division, 301-975-3108
cm-1	(micromol/mol)-1m-1 (base 10)
574.928	-6.98014e-07
583.606	-3.30829e-07
592.284	-1.41401e-07
600.962	-8.38768e-08
609.641	-2.96724e-07
618.319	-1.10324e-07
626.997	-1.42449e-07
635.675	-4.57759e-07
644.353	-1.26603e-07
653.031	-1.43009e-07
661.71	-1.83585e-07
670.388	-1.70911e-07
679.066	-1.51984e-07
687.744	-2.42579e-07
696.422	-2.5215e-07
705.1	-1.60365e-07
713.778	-1.057e-07
722.457	-1.26599e-07
731.135	-9.1949e-08
739.813	1.14845e-08
748.491	1.89515e-07
757.169	4.19718e-07
765.847	7.82662e-07
774.526	1.68766e-06
783.204	4.12055e-06
791.882	7.64442e-06
800.56	1.27018e-05
809.238	2.24035e-05
817.916	2.18695e-05
826.594	2.48579e-05
835.273	9.08055e-05
843.951	0.000115122
852.629	0.000161572
861.307	0.000163263
869.985	0.00023434
878.663	0.000143036
887.342	0.000127048
896.02	0.000132679
904.698	0.000101024
913.376	6.71142e-05
922.054	2.96298e-05
930.732	1.39384e-05
939.41	4.54005e-06
948.089	1.23289e-06
956.767	3.47203e-07
965.445	-1.22339e-08
974.123	-3.81314e-08
982.801	-1.53304e-07
991.479	-1.82345e-07
1000.16	-1.23289e-07
1008.84	-1.29811e-07
1017.51	-1.63559e-07
1026.19	-1.26585e-07
1034.87	-3.37406e-08
1043.55	5.58511e-08
1052.23	1.49732e-07
1060.9	4.15218e-07
1069.58	8.33311e-07
1078.26	1.07364e-06
1086.94	2.02222e-06
1095.62	2.1619e-06
1104.3	2.88186e-06
1112.97	4.6496e-06
1121.65	6.50374e-06
1130.33	7.94003e-06
1139.01	6.22026e-06
1147.69	3.84287e-06
1156.36	8.12751e-06
1165.04	8.1739e-06
1173.72	7.40653e-06
1182.4	4.33287e-06
1191.08	4.58075e-06
1199.76	2.52748e-06
1208.43	2.46391e-06
1217.11	3.27095e-06
1225.79	7.32302e-06
1234.47	1.45753e-05
1243.15	2.49887e-05
1251.82	3.08359e-05
1260.5	3.43724e-05
1269.18	1.64801e-05
1277.86	3.85184e-05
1286.54	3.06046e-05
1295.21	2.86779e-05
1303.89	1.7633e-05
1312.57	6.83339e-06
1321.25	2.11488e-06
1329.93	5.58573e-07
1338.61	4.06088e-08
1347.28	-7.02023e-08
1355.96	-1.03717e-07
1364.64	-1.09316e-07
1373.32	-1.29786e-07
1382	-4.08489e-08
1390.67	-3.0583e-08
1399.35	-7.0155e-08
1408.03	-1.17403e-07
1416.71	-1.06722e-07
1425.39	-3.64944e-08
1434.07	3.33866e-07
1442.74	8.7679e-07
1451.42	1.21707e-06
1460.1	1.13636e-06
1468.78	1.72315e-06
1477.46	2.64121e-06
1486.13	2.73704e-06
1494.81	3.37292e-06
1503.49	3.59917e-06
1512.17	2.35652e-06
1520.85	2.65607e-06
1529.52	1.90693e-06
1538.2	8.92225e-07
1546.88	2.67909e-07
1555.56	2.76073e-08
1564.24	1.07337e-07
1572.92	2.57574e-07
1581.59	4.93435e-07
1590.27	1.13284e-06
1598.95	1.27271e-06
1607.63	2.64209e-06
1616.31	3.142e-06
1624.98	3.72252e-06
1633.66	3.89346e-06
1642.34	1.32499e-05
1651.02	4.59682e-06
1659.7	2.6066e-06
1668.38	1.34582e-06
1677.05	4.19282e-07
1685.73	1.59561e-07
1694.41	-2.10519e-08
1703.09	2.27537e-07
1711.77	7.04205e-07
1720.44	5.37849e-07
1729.12	1.40288e-07
1737.8	3.21352e-07
1746.48	1.03515e-06
1755.16	3.57436e-07
1763.84	2.13044e-07
1772.51	3.57028e-07
1781.19	8.94426e-08
1789.87	-8.33384e-08
1798.55	-6.11078e-08
1807.23	-3.6036e-08
1815.9	7.70304e-08
1824.58	4.90557e-08
1833.26	6.24719e-08
1841.94	5.66551e-08
1850.62	8.99664e-08
1859.29	1.51583e-07
1867.97	8.50518e-08
1876.65	-6.79832e-08
1885.33	-2.05354e-08
1894.01	-2.85567e-09
1902.69	5.8143e-08
1911.36	1.9499e-07
1920.04	2.2239e-07
1928.72	9.08373e-07
1937.4	6.20267e-07
1946.08	5.15189e-07
1954.75	1.02659e-06
1963.43	9.03302e-07
1972.11	1.08854e-06
1980.79	1.36855e-06
1989.47	1.73554e-06
1998.15	2.42588e-06
2006.82	2.42921e-06
2015.5	2.82507e-06
2024.18	1.08741e-06
2032.86	1.95964e-06
2041.54	2.03537e-06
2050.21	1.38331e-06
2058.89	1.02461e-06
2067.57	8.92258e-07
2076.25	6.48725e-07
2084.93	2.21337e-06
2093.6	8.27592e-07
2102.28	2.08822e-06
2110.96	1.5991e-06
2119.64	1.42464e-06
2128.32	1.14264e-06
2137	8.34097e-07
2145.67	9.28949e-07
2154.35	9.30011e-07
2163.03	8.23267e-07
2171.71	4.461e-07
2180.39	4.07445e-07
2189.06	4.17368e-07
2197.74	6.04813e-07
2206.42	6.77966e-07
2215.1	9.16365e-07
2223.78	1.68795e-06
2232.46	2.5863e-06
2241.13	3.17303e-06
2249.81	3.78285e-06
2258.49	4.42581e-06
2267.17	2.23066e-06
2275.85	3.98908e-06
2284.52	3.55304e-06
2293.2	2.31831e-06
2301.88	1.64379e-06
2310.56	2.79414e-06
2319.24	1.5118e-06
2327.92	1.44658e-06
2336.59	7.82556e-07
2345.27	4.0823e-07
2353.95	3.5721e-07
2362.63	1.19058e-07
2371.31	2.49146e-07
2379.98	2.55013e-07
2388.66	1.75422e-07
2397.34	1.65349e-07
2406.02	2.1984e-07
2414.7	2.83239e-08
2423.37	4.47049e-08
2432.05	5.24498e-08
2440.73	4.58108e-08
2449.41	4.831e-08
2458.09	2.74461e-07
2466.77	-3.74148e-08
2475.44	-1.07766e-07
2484.12	-2.2407e-07
2492.8	-3.16372e-07
2501.48	-1.84182e-07
2510.16	-2.17919e-07
2518.83	-3.00362e-07
2527.51	-2.83425e-07
2536.19	-1.89438e-07
2544.87	-3.60506e-07
2553.55	-3.29341e-07
2562.23	-1.18021e-07
2570.9	-2.26635e-08
2579.58	2.26744e-07
2588.26	6.13988e-07
2596.94	6.35927e-07
2605.62	9.95451e-07
2614.29	4.88964e-07
2622.97	1.05471e-06
2631.65	1.20694e-06
2640.33	9.26148e-07
2649.01	4.33287e-07
2657.68	1.59998e-07
2666.36	-7.45676e-08
2675.04	-1.15384e-07
2683.72	-1.59554e-07
2692.4	-1.29055e-07
2701.08	-1.42805e-07
2709.75	4.98197e-08
2718.43	6.72193e-08
2727.11	2.27883e-07
2735.79	2.33951e-07
2744.47	3.74864e-07
2753.14	5.77872e-07
2761.82	3.88328e-07
2770.5	4.12505e-07
2779.18	1.41096e-07
2787.86	1.68728e-07
2796.54	8.59285e-08
2805.21	-6.44873e-08
2813.89	-1.09665e-07
2822.57	-1.33318e-07
2831.25	-1.40448e-07
2839.93	-2.13612e-08
2848.6	9.56778e-08
2857.28	1.95808e-07
2865.96	6.82375e-07
2874.64	1.7279e-06
2883.32	4.84551e-06
2892	1.23231e-05
2900.67	2.65596e-05
2909.35	3.43931e-05
2918.03	3.66946e-05
2926.71	2.91349e-05
2935.39	3.26756e-05
2944.06	4.47794e-05
2952.74	5.31209e-05
2961.42	4.75784e-05
2970.1	3.64049e-05
2978.78	5.60895e-05
2987.45	6.90565e-05
2996.13	6.64085e-05
3004.81	6.8742e-05
3013.49	8.97948e-05
3022.17	0.000119411
3030.85	0.000127627
3039.52	0.000118485
3048.2	6.28659e-05
3056.88	4.03825e-05
3065.56	0.00171674
3074.24	2.96679e-05
3082.91	6.11793e-05
3091.59	5.51688e-05
3100.27	6.60509e-05
3108.95	4.11613e-05
3117.63	1.93215e-05
3126.31	8.40756e-06
3134.98	3.27042e-06
3143.66	1.1094e-06
3152.34	5.14105e-07
3161.02	1.17759e-07
3169.7	1.03168e-08
3178.37	-8.71144e-08
3187.05	-1.86765e-08
3195.73	-3.67236e-08
3204.41	-6.47528e-10
3213.09	-1.08083e-07
3221.77	-9.38589e-08
3230.44	-1.78671e-07
3239.12	-1.84644e-07
3247.8	-1.44111e-07
3256.48	-4.85974e-08
3265.16	-1.32703e-07
3273.83	-1.83469e-07
3282.51	-3.68509e-07
3291.19	-2.70252e-07
3299.87	-3.03931e-07
3308.55	-2.49553e-07
3317.22	-3.18238e-07
3325.9	-1.80126e-07
3334.58	-1.28985e-07
3343.26	-1.50212e-07
3351.94	-5.11438e-08
3360.62	-5.30901e-08
3369.29	-6.44582e-08
3377.97	-8.68488e-08
3386.65	-1.91527e-07
3395.33	-1.36636e-07
3404.01	-1.65374e-07
3412.68	-1.97754e-07
3421.36	-1.06551e-07
3430.04	-6.62407e-08
3438.72	-2.05994e-07
3447.4	-1.13357e-07
3456.08	-7.81399e-08
3464.75	-2.20462e-07
3473.43	-4.04887e-08
3482.11	-1.41088e-07
3490.79	-2.5529e-07
3499.47	-7.7165e-08
3508.14	-1.72243e-07
3516.82	-8.069e-08
3525.5	-2.22368e-07
3534.18	-1.24013e-07
3542.86	-9.65654e-08
3551.53	-1.87583e-07
3560.21	-1.01684e-07
3568.89	-1.13947e-07
3577.57	-1.66517e-07
3586.25	-2.58793e-07
3594.93	-2.09996e-07
3603.6	-1.78492e-07
3612.28	-6.76704e-08
3620.96	-8.93371e-08
3629.64	4.71095e-09
3638.32	-8.78711e-08
3646.99	-1.37116e-07
3655.67	-1.95441e-07
3664.35	-1.54647e-07
3673.03	-2.15438e-07
3681.71	-3.6378e-08
3690.39	1.44206e-07
3699.06	1.63963e-07
3707.74	3.58552e-07
3716.42	5.056e-07
3725.1	3.82764e-06
3733.78	7.87762e-07
3742.45	1.92439e-06
3751.13	1.33345e-06
3759.81	1.2854e-06
3768.49	2.47579e-06
3777.17	1.22285e-06
3785.85	1.33557e-06
3794.52	1.58692e-06
3803.2	2.24218e-06
3811.88	3.06366e-06
3820.56	2.47085e-06
3829.24	5.27498e-06
3837.91	3.3816e-06
3846.59	4.52527e-06
3855.27	3.63074e-06
3863.95	4.07283e-06
3872.63	5.8609e-06
3881.3	1.4372e-06
3889.98	1.40584e-06
3898.66	1.93234e-06
3907.34	1.52304e-06
3916.02	7.67558e-07
3924.7	3.62692e-07
3933.37	3.01348e-07
3942.05	6.85103e-07
3950.73	-4.55816e-09
3959.41	1.73341e-08
3968.09	9.44664e-08
