Infrared Spectrum: 1,2-Epoxyethane
Formula: C2 H4 O
CAS: 75-21-8
State: gas
Melting point: -111 C
Boiling point: 13.5 C
Class: IUPAC A
Instrument: IFS66V (Bruker)
Instrument parameters: KBr Beam splitter; MCT Detector; Multipass cell
Sampling: 1 L/min Flow
Resolution: 1.9290
Temperature: 23 C
Pressure: 101.3 kPa
Origin: NIST, Anayltical Chemistry Division, 301-975-3108
cm-1	(micromol/mol)-1m-1 (base 10)
574.687	-3.96362e-07
583.365	-2.61871e-07
592.043	-6.47331e-08
600.721	-1.78183e-07
609.4	-2.45523e-07
618.078	-2.5192e-07
626.756	-1.82698e-07
635.434	-2.39075e-07
644.112	-2.094e-07
652.79	-2.18648e-07
661.469	-1.53932e-07
670.147	-1.53082e-07
678.825	-1.03442e-07
687.503	-1.76872e-07
696.181	-2.14107e-07
704.859	-1.76911e-07
713.537	-1.16563e-07
722.216	-1.06877e-07
730.894	-9.35391e-08
739.572	-2.80138e-08
748.25	1.56452e-07
756.928	3.53904e-07
765.606	7.71298e-07
774.285	1.62903e-06
782.963	3.56352e-06
791.641	7.41553e-06
800.319	1.28753e-05
808.997	2.34536e-05
817.675	2.48313e-05
826.353	2.38601e-05
835.032	8.8395e-05
843.71	0.000118009
852.388	0.000162106
861.066	0.000169815
869.744	0.000225635
878.422	0.000122843
887.101	0.000135725
895.779	0.000127072
904.457	0.000108325
913.135	6.94593e-05
921.813	3.49321e-05
930.491	1.41488e-05
939.169	4.86909e-06
947.848	1.49856e-06
956.526	3.28169e-07
965.204	-8.42269e-09
973.882	-6.55499e-08
982.56	-1.4779e-07
991.238	-1.58775e-07
999.917	-1.52637e-07
1008.59	-1.45055e-07
1017.27	-1.42707e-07
1025.95	-1.08226e-07
1034.63	-5.26071e-08
1043.31	5.18931e-08
1051.99	1.64338e-07
1060.66	3.76519e-07
1069.34	7.3755e-07
1078.02	1.19462e-06
1086.7	1.73421e-06
1095.38	2.15202e-06
1104.05	3.03036e-06
1112.73	4.70693e-06
1121.41	6.266e-06
1130.09	8.0859e-06
1138.77	6.45719e-06
1147.45	5.47744e-06
1156.12	8.51032e-06
1164.8	8.0956e-06
1173.48	7.87591e-06
1182.16	5.29955e-06
1190.84	3.82345e-06
1199.51	2.82235e-06
1208.19	2.41583e-06
1216.87	3.3286e-06
1225.55	7.11593e-06
1234.23	1.50217e-05
1242.9	2.50183e-05
1251.58	2.99975e-05
1260.26	3.20591e-05
1268.94	2.03567e-05
1277.62	3.97357e-05
1286.3	3.10924e-05
1294.97	2.9256e-05
1303.65	1.71807e-05
1312.33	7.02965e-06
1321.01	2.35625e-06
1329.69	6.46739e-07
1338.36	6.5337e-08
1347.04	-6.41547e-08
1355.72	-1.30577e-07
1364.4	-1.03342e-07
1373.08	-1.39913e-07
1381.76	-5.45479e-08
1390.43	-6.6262e-08
1399.11	-8.44489e-08
1407.79	-1.36459e-07
1416.47	-9.97627e-08
1425.15	-2.50725e-08
1433.82	3.2693e-07
1442.5	8.32446e-07
1451.18	1.19079e-06
1459.86	1.18058e-06
1468.54	1.76543e-06
1477.22	2.56302e-06
1485.89	2.60148e-06
1494.57	3.43166e-06
1503.25	3.71545e-06
1511.93	2.43356e-06
1520.61	2.75048e-06
1529.28	1.84883e-06
1537.96	8.68804e-07
1546.64	2.36116e-07
1555.32	7.99915e-08
1564	7.8429e-08
1572.67	2.9327e-07
1581.35	5.90822e-07
1590.03	1.11872e-06
1598.71	1.60654e-06
1607.39	2.35901e-06
1616.07	3.02565e-06
1624.74	3.87178e-06
1633.42	3.7099e-06
1642.1	1.19862e-05
1650.78	4.80425e-06
1659.46	2.67054e-06
1668.13	1.52862e-06
1676.81	5.25285e-07
1685.49	1.40508e-07
1694.17	-5.0046e-08
1702.85	2.39739e-07
1711.53	7.17177e-07
1720.2	5.34469e-07
1728.88	2.13566e-07
1737.56	2.52784e-07
1746.24	1.05826e-06
1754.92	3.57998e-07
1763.59	2.32236e-07
1772.27	2.33429e-07
1780.95	9.65922e-08
1789.63	-7.96577e-08
1798.31	-5.56884e-08
1806.98	-6.29524e-08
1815.66	9.92797e-08
1824.34	3.61409e-08
1833.02	8.00024e-08
1841.7	2.58019e-09
1850.38	1.06235e-07
1859.05	1.15514e-07
1867.73	9.03396e-08
1876.41	-7.99296e-08
1885.09	-1.14267e-08
1893.77	-2.55009e-08
1902.44	1.45158e-07
1911.12	1.93471e-07
1919.8	2.49522e-07
1928.48	8.30456e-07
1937.16	6.40754e-07
1945.84	4.85394e-07
1954.51	1.0056e-06
1963.19	1.07684e-06
1971.87	1.17043e-06
1980.55	1.31402e-06
1989.23	1.76886e-06
1997.9	2.52824e-06
2006.58	2.40545e-06
2015.26	2.87182e-06
2023.94	1.15957e-06
2032.62	1.95191e-06
2041.3	2.1127e-06
2049.97	1.37263e-06
2058.65	1.06687e-06
2067.33	8.26541e-07
2076.01	8.82622e-07
2084.69	2.31949e-06
2093.36	8.76797e-07
2102.04	1.97128e-06
2110.72	1.6203e-06
2119.4	1.34445e-06
2128.08	1.2114e-06
2136.75	6.80247e-07
2145.43	1.02312e-06
2154.11	8.12872e-07
2162.79	9.26996e-07
2171.47	6.00829e-07
2180.15	6.23372e-07
2188.82	4.47828e-07
2197.5	6.80021e-07
2206.18	6.52404e-07
2214.86	1.05679e-06
2223.54	1.62055e-06
2232.21	2.64374e-06
2240.89	3.18764e-06
2249.57	3.77509e-06
2258.25	4.26922e-06
2266.93	2.29787e-06
2275.61	3.95703e-06
2284.28	3.61798e-06
2292.96	2.16065e-06
2301.64	2.03664e-06
2310.32	2.33315e-06
2319	1.58231e-06
2327.67	1.35487e-06
2336.35	7.81371e-07
2345.03	3.48094e-07
2353.71	3.37403e-07
2362.39	1.32306e-07
2371.06	3.26329e-07
2379.74	2.25926e-07
2388.42	2.63349e-07
2397.1	1.25697e-07
2405.78	2.77471e-07
2414.46	-4.12285e-08
2423.13	1.19246e-07
2431.81	9.88241e-09
2440.49	1.13893e-07
2449.17	-6.55917e-09
2457.85	3.04592e-07
2466.52	-9.97981e-08
2475.2	-5.73245e-08
2483.88	-2.90628e-07
2492.56	-2.11408e-07
2501.24	-2.47272e-07
2509.92	-1.46027e-07
2518.59	-3.38439e-07
2527.27	-2.31303e-07
2535.95	-3.32966e-07
2544.63	-2.32442e-07
2553.31	-3.89861e-07
2561.98	-4.3002e-08
2570.66	-9.42885e-08
2579.34	2.91898e-07
2588.02	4.51224e-07
2596.7	7.88325e-07
2605.38	8.54216e-07
2614.05	7.68211e-07
2622.73	1.02908e-06
2631.41	1.33267e-06
2640.09	8.33347e-07
2648.77	5.40914e-07
2657.44	3.90012e-08
2666.12	4.57305e-08
2674.8	-2.42085e-07
2683.48	-3.83664e-08
2692.16	-2.34213e-07
2700.83	3.17409e-10
2709.51	-7.01036e-08
2718.19	2.16494e-07
2726.87	6.65294e-08
2735.55	3.97227e-07
2744.23	2.13995e-07
2752.9	6.75795e-07
2761.58	2.76335e-07
2770.26	5.85615e-07
2778.94	8.07618e-10
2787.62	3.01834e-07
2796.29	-1.45524e-07
2804.97	1.14052e-07
2813.65	-3.14406e-07
2822.33	8.76993e-08
2831.01	-3.30579e-07
2839.69	1.6975e-07
2848.36	-1.25156e-07
2857.04	4.2771e-07
2865.72	4.06925e-07
2874.4	1.91889e-06
2883.08	4.35438e-06
2891.75	1.31314e-05
2900.43	2.60452e-05
2909.11	3.6565e-05
2917.79	3.71649e-05
2926.47	2.97592e-05
2935.14	3.26277e-05
2943.82	4.50403e-05
2952.5	5.15215e-05
2961.18	4.81061e-05
2969.86	3.68803e-05
2978.54	5.78009e-05
2987.21	7.02515e-05
2995.89	6.73059e-05
3004.57	8.23379e-05
3013.25	8.51046e-05
3021.93	0.000114964
3030.6	0.000121256
3039.28	0.000109691
3047.96	7.68107e-05
3056.64	3.46052e-05
3065.32	0.000959391
3074	3.1403e-05
3082.67	5.2795e-05
3091.35	7.16498e-05
3100.03	6.01771e-05
3108.71	3.9732e-05
3117.39	1.88247e-05
3126.06	8.68363e-06
3134.74	2.50734e-06
3143.42	1.5885e-06
3152.1	4.61252e-08
3160.78	4.9758e-07
3169.46	-3.33984e-07
3178.13	2.79991e-07
3186.81	-3.63466e-07
3195.49	2.56733e-07
3204.17	-3.64621e-07
3212.85	1.48925e-07
3221.52	-3.04964e-07
3230.2	8.79822e-08
3238.88	-3.93049e-07
3247.56	7.658e-08
3256.24	-2.75895e-07
3264.91	4.17651e-08
3273.59	-3.75127e-07
3282.27	-1.92873e-07
3290.95	-4.19908e-07
3299.63	-7.35869e-08
3308.31	-3.92079e-07
3316.98	-7.42436e-08
3325.66	-2.70917e-07
3334.34	-2.69024e-09
3343.02	-3.18291e-07
3351.7	-1.77403e-08
3360.37	-2.32638e-07
3369.05	-6.6101e-09
3377.73	-2.65726e-07
3386.41	-4.47792e-08
3395.09	-3.23461e-07
3403.77	-1.0756e-07
3412.44	-2.29236e-07
3421.12	1.15377e-08
3429.8	-2.1831e-07
3438.48	-7.91102e-08
3447.16	-2.34227e-07
3455.83	-7.68056e-09
3464.51	-3.00159e-07
3473.19	2.94071e-08
3481.87	-2.33289e-07
3490.55	-8.45671e-08
3499.22	-2.36357e-07
3507.9	-5.23524e-08
3516.58	-2.14831e-07
3525.26	-1.12006e-07
3533.94	-2.34266e-07
3542.62	-6.59509e-08
3551.29	-2.58627e-07
3559.97	-8.7351e-08
3568.65	-2.70484e-07
3577.33	-8.8306e-08
3586.01	-2.55482e-07
3594.68	-7.64527e-08
3603.36	-2.27396e-07
3612.04	-8.43879e-08
3620.72	-1.70635e-07
3629.4	-2.19639e-08
3638.08	-1.65969e-07
3646.75	-1.02359e-07
3655.43	-2.20403e-07
3664.11	-9.54427e-08
3672.79	-1.92926e-07
3681.47	3.63101e-08
3690.14	1.02277e-07
3698.82	2.3482e-07
3707.5	2.56921e-07
3716.18	5.79531e-07
3724.86	2.45956e-06
3733.54	8.86628e-07
3742.21	1.66025e-06
3750.89	1.32395e-06
3759.57	1.3067e-06
3768.25	2.44394e-06
3776.93	1.24427e-06
3785.6	1.43766e-06
3794.28	1.65964e-06
3802.96	2.32816e-06
3811.64	2.91279e-06
3820.32	2.49902e-06
3828.99	5.13703e-06
3837.67	3.46585e-06
3846.35	4.38286e-06
3855.03	3.76647e-06
3863.71	3.97216e-06
3872.39	5.68068e-06
3881.06	1.47561e-06
3889.74	1.55382e-06
3898.42	1.78024e-06
3907.1	1.52505e-06
3915.78	7.89061e-07
3924.45	4.12991e-07
3933.13	2.34833e-07
3941.81	5.95906e-07
3950.49	1.19306e-08
3959.17	2.13218e-08
3967.85	2.8303e-09
