Infrared Spectrum: 1,2-Epoxyethane
Formula: C2 H4 O
CAS: 75-21-8
State: gas
Melting point: -111 C
Boiling point: 13.5 C
Class: IUPAC A
Instrument: IFS66V (Bruker)
Instrument parameters: KBr Beam splitter; MCT Detector; Multipass cell
Sampling: 1 L/min Flow
Resolution: 0.4820
Temperature: 23 C
Pressure: 101.3 kPa
Origin: NIST, Anayltical Chemistry Division, 301-975-3108
cm-1	(micromol/mol)-1m-1 (base 10)
574.928	-1.00445e-06
583.606	-3.99048e-07
592.284	-2.1431e-07
600.962	-9.04721e-08
609.641	-2.04208e-07
618.319	-1.23256e-07
626.997	2.50099e-08
635.675	-5.58952e-07
644.353	9.12106e-08
653.031	-1.9702e-07
661.71	-1.69412e-07
670.388	-3.20687e-07
679.066	-1.13059e-07
687.744	-3.95291e-07
696.422	-1.86816e-07
705.1	-6.37779e-08
713.778	-1.2398e-07
722.457	-1.49881e-07
731.135	-1.87554e-07
739.813	1.04147e-07
748.491	1.51573e-07
757.169	5.63462e-07
765.847	7.56535e-07
774.526	1.74627e-06
783.204	4.6058e-06
791.882	7.52346e-06
800.56	1.23031e-05
809.238	2.19654e-05
817.916	1.88062e-05
826.594	2.44925e-05
835.273	9.43595e-05
843.951	0.000106457
852.629	0.000166287
861.307	0.0001558
869.985	0.000225349
878.663	0.000136529
887.342	0.000129876
896.02	0.000151423
904.698	0.00010097
913.376	6.42423e-05
922.054	2.65758e-05
930.732	1.41023e-05
939.41	3.95897e-06
948.089	1.10507e-06
956.767	4.31647e-07
965.445	-6.96275e-09
974.123	-4.01431e-08
982.801	-1.41801e-07
991.479	-2.61496e-07
1000.16	-1.0642e-07
1008.84	-7.24541e-08
1017.51	-1.1733e-07
1026.19	-2.04834e-07
1034.87	-3.98776e-08
1043.55	5.82266e-08
1052.23	1.37265e-07
1060.9	3.96433e-07
1069.58	9.58713e-07
1078.26	1.08814e-06
1086.94	2.56022e-06
1095.62	2.04323e-06
1104.3	2.76834e-06
1112.97	4.55379e-06
1121.65	6.39796e-06
1130.33	8.24593e-06
1139.01	6.07294e-06
1147.69	3.94298e-06
1156.36	8.24878e-06
1165.04	7.49766e-06
1173.72	7.55688e-06
1182.4	3.88605e-06
1191.08	5.11165e-06
1199.76	2.77823e-06
1208.43	2.86132e-06
1217.11	3.23421e-06
1225.79	7.15515e-06
1234.47	1.30622e-05
1243.15	2.42641e-05
1251.82	3.24957e-05
1260.5	3.44562e-05
1269.18	1.72434e-05
1277.86	4.08646e-05
1286.54	2.82473e-05
1295.21	2.77097e-05
1303.89	1.82879e-05
1312.57	6.63777e-06
1321.25	1.81502e-06
1329.93	5.04421e-07
1338.61	2.90369e-08
1347.28	-6.36724e-08
1355.96	-9.10287e-08
1364.64	-4.88229e-08
1373.32	-9.86899e-08
1382	-2.83421e-08
1390.67	1.38491e-08
1399.35	-5.46216e-08
1408.03	-1.30422e-07
1416.71	-1.43147e-07
1425.39	-5.54655e-08
1434.07	3.67272e-07
1442.74	1.00918e-06
1451.42	1.2591e-06
1460.1	1.11719e-06
1468.78	1.59485e-06
1477.46	2.79288e-06
1486.13	3.0451e-06
1494.81	3.34322e-06
1503.49	3.38434e-06
1512.17	2.18919e-06
1520.85	2.82652e-06
1529.52	1.89971e-06
1538.2	9.666e-07
1546.88	3.22385e-07
1555.56	-4.87283e-08
1564.24	1.38316e-07
1572.92	1.9244e-07
1581.59	5.47929e-07
1590.27	9.52838e-07
1598.95	1.18194e-06
1607.63	2.68528e-06
1616.31	2.9415e-06
1624.98	3.79119e-06
1633.66	3.92776e-06
1642.34	1.32328e-05
1651.02	4.50739e-06
1659.7	2.45711e-06
1668.38	1.08965e-06
1677.05	3.29661e-07
1685.73	7.09153e-08
1694.41	-1.56462e-08
1703.09	1.90904e-07
1711.77	4.95588e-07
1720.44	6.36277e-07
1729.12	2.12302e-08
1737.8	3.24062e-07
1746.48	9.77881e-07
1755.16	3.61146e-07
1763.84	2.12131e-07
1772.51	4.94213e-07
1781.19	1.46822e-07
1789.87	-7.80599e-08
1798.55	-7.31125e-08
1807.23	-6.03293e-08
1815.9	3.12851e-08
1824.58	7.30507e-08
1833.26	7.17447e-08
1841.94	3.54467e-08
1850.62	8.71289e-08
1859.29	1.84604e-07
1867.97	4.52506e-08
1876.65	-1.07646e-07
1885.33	-2.36566e-08
1894.01	2.22451e-08
1902.69	5.75391e-08
1911.36	1.484e-07
1920.04	2.21564e-07
1928.72	8.98598e-07
1937.4	7.11266e-07
1946.08	5.13326e-07
1954.75	1.10558e-06
1963.43	7.59926e-07
1972.11	9.16289e-07
1980.79	1.40929e-06
1989.47	1.86656e-06
1998.15	1.86585e-06
2006.82	2.18665e-06
2015.5	2.88298e-06
2024.18	9.1124e-07
2032.86	1.8213e-06
2041.54	1.8179e-06
2050.21	1.27534e-06
2058.89	9.98409e-07
2067.57	8.89515e-07
2076.25	5.36852e-07
2084.93	2.16163e-06
2093.6	7.95427e-07
2102.28	2.28141e-06
2110.96	1.76187e-06
2119.64	1.47627e-06
2128.32	1.1044e-06
2137	8.80868e-07
2145.67	8.15704e-07
2154.35	8.19869e-07
2163.03	8.02939e-07
2171.71	3.85465e-07
2180.39	3.53016e-07
2189.06	3.7302e-07
2197.74	6.26906e-07
2206.42	7.17079e-07
2215.1	8.88533e-07
2223.78	1.66808e-06
2232.46	2.55557e-06
2241.13	3.14341e-06
2249.81	3.68713e-06
2258.49	4.72621e-06
2267.17	2.09541e-06
2275.85	4.35023e-06
2284.52	3.20726e-06
2293.2	2.42038e-06
2301.88	1.6675e-06
2310.56	2.71689e-06
2319.24	1.4053e-06
2327.92	1.40142e-06
2336.59	6.77864e-07
2345.27	4.29126e-07
2353.95	4.13218e-07
2362.63	-1.61991e-08
2371.31	1.25639e-07
2379.98	2.86007e-07
2388.66	1.13692e-07
2397.34	1.05533e-07
2406.02	2.44602e-07
2414.7	-1.01094e-08
2423.37	-2.70725e-08
2432.05	-4.65275e-09
2440.73	-5.94417e-09
2449.41	-3.13469e-08
2458.09	2.35475e-07
2466.77	-4.40465e-08
2475.44	-1.66779e-07
2484.12	-2.99293e-07
2492.8	-3.95141e-07
2501.48	-1.70122e-07
2510.16	-2.77404e-07
2518.83	-3.27897e-07
2527.51	-3.38628e-07
2536.19	-1.49845e-07
2544.87	-4.29348e-07
2553.55	-3.87207e-07
2562.23	-2.29152e-07
2570.9	-1.06042e-07
2579.58	1.462e-07
2588.26	6.56128e-07
2596.94	4.88313e-07
2605.62	9.3598e-07
2614.29	4.64907e-07
2622.97	9.65516e-07
2631.65	1.01833e-06
2640.33	9.30073e-07
2649.01	3.41466e-07
2657.68	8.68088e-08
2666.36	-1.45548e-07
2675.04	-1.76975e-07
2683.72	-3.00726e-07
2692.4	-2.01309e-07
2701.08	-2.4549e-07
2709.75	-5.76118e-08
2718.43	2.04917e-08
2727.11	1.6668e-07
2735.79	1.04539e-07
2744.47	3.67181e-07
2753.14	5.55445e-07
2761.82	2.44184e-07
2770.5	3.66909e-07
2779.18	7.82491e-09
2787.86	2.46206e-07
2796.54	3.55449e-08
2805.21	-1.34479e-07
2813.89	-2.24434e-07
2822.57	-2.67018e-07
2831.25	-1.78008e-07
2839.93	-1.23445e-07
2848.6	-2.1172e-08
2857.28	1.96536e-07
2865.96	6.16935e-07
2874.64	1.58624e-06
2883.32	4.75014e-06
2892	1.03402e-05
2900.67	2.74744e-05
2909.35	3.08406e-05
2918.03	3.56346e-05
2926.71	3.31361e-05
2935.39	3.31505e-05
2944.06	4.15683e-05
2952.74	6.0288e-05
2961.42	4.7649e-05
2970.1	3.71811e-05
2978.78	5.31798e-05
2987.45	6.78492e-05
2996.13	6.63906e-05
3004.81	7.21107e-05
3013.49	9.56335e-05
3022.17	0.000119252
3030.85	0.000122463
3039.52	0.000105697
3048.2	5.69352e-05
3056.88	3.52863e-05
3065.56	0.00154353
3074.24	3.35038e-05
3082.91	5.72404e-05
3091.59	5.50753e-05
3100.27	7.02534e-05
3108.95	4.32429e-05
3117.63	1.88272e-05
3126.31	9.3256e-06
3134.98	4.05877e-06
3143.66	1.55364e-06
3152.34	8.78463e-07
3161.02	4.70844e-07
3169.7	3.63423e-07
3178.37	2.56221e-07
3187.05	3.0993e-07
3195.73	5.77464e-08
3204.41	2.8365e-07
3213.09	1.1769e-07
3221.77	2.25565e-07
3230.44	-9.84498e-08
3239.12	-4.93431e-08
3247.8	3.36897e-08
3256.48	7.76998e-08
3265.16	-3.07976e-08
3273.83	-6.33632e-08
3282.51	-2.51801e-07
3291.19	-8.8715e-08
3299.87	-2.16384e-07
3308.55	-1.93902e-07
3317.22	-2.31906e-07
3325.9	-2.06347e-07
3334.58	4.08525e-09
3343.26	8.5481e-08
3351.94	2.496e-07
3360.62	1.30924e-07
3369.29	7.54552e-08
3377.97	1.90693e-07
3386.65	-1.80569e-07
3395.33	4.26277e-08
3404.01	-1.10807e-07
3412.68	-1.93636e-07
3421.36	-1.23867e-07
3430.04	5.79829e-08
3438.72	-2.18886e-07
3447.4	-1.08625e-08
3456.08	-8.00607e-08
3464.75	-1.63395e-07
3473.43	-3.80186e-08
3482.11	-1.23896e-07
3490.79	-2.12688e-07
3499.47	-2.63559e-08
3508.14	-1.43548e-07
3516.82	1.17366e-07
3525.5	-2.07722e-07
3534.18	-3.84006e-08
3542.86	-3.18417e-08
3551.53	-1.13063e-08
3560.21	-7.59172e-08
3568.89	7.36072e-08
3577.57	-1.72377e-07
3586.25	-1.9981e-07
3594.93	-1.29469e-07
3603.6	-7.90967e-08
3612.28	-8.87987e-09
3620.96	-3.14706e-08
3629.64	2.17024e-07
3638.32	-4.4785e-08
3646.99	-1.57542e-07
3655.67	-1.73574e-07
3664.35	-8.43751e-08
3673.03	-1.71271e-07
3681.71	9.28003e-09
3690.39	1.49146e-07
3699.06	1.80599e-07
3707.74	4.81619e-07
3716.42	5.30449e-07
3725.1	5.14996e-06
3733.78	9.11102e-07
3742.45	1.99606e-06
3751.13	1.37621e-06
3759.81	1.18951e-06
3768.49	2.45863e-06
3777.17	1.21586e-06
3785.85	1.39756e-06
3794.52	1.4398e-06
3803.2	2.23794e-06
3811.88	3.06931e-06
3820.56	2.53711e-06
3829.24	5.3488e-06
3837.91	3.25749e-06
3846.59	4.78459e-06
3855.27	3.68354e-06
3863.95	4.02779e-06
3872.63	6.00275e-06
3881.3	1.42276e-06
3889.98	1.27585e-06
3898.66	2.06142e-06
3907.34	1.61834e-06
3916.02	8.34984e-07
3924.7	2.33056e-07
3933.37	3.87844e-07
3942.05	6.2042e-07
3950.73	-9.33678e-08
3959.41	1.15205e-07
3968.09	2.62329e-07
