Infrared Spectrum: 1,2-Epoxyethane
Formula: C2 H4 O
CAS: 75-21-8
State: gas
Melting point: -111 C
Boiling point: 13.5 C
Class: IUPAC A
Instrument: IFS66V (Bruker)
Instrument parameters: KBr Beam splitter; MCT Detector; Multipass cell
Sampling: 1 L/min Flow
Resolution: 1.9290
Temperature: 23 C
Pressure: 101.3 kPa
Origin: NIST, Anayltical Chemistry Division, 301-975-3108
cm-1	(micromol/mol)-1m-1 (base 10)
574.687	-3.58317e-07
583.365	-2.68554e-07
592.043	-9.12463e-08
600.721	-1.75788e-07
609.4	-2.57713e-07
618.078	-2.32093e-07
626.756	-1.97237e-07
635.434	-2.13985e-07
644.112	-2.17759e-07
652.79	-2.15926e-07
661.469	-1.58195e-07
670.147	-1.47382e-07
678.825	-1.14177e-07
687.503	-1.69403e-07
696.181	-2.14814e-07
704.859	-1.77017e-07
713.537	-1.36018e-07
722.216	-1.04959e-07
730.894	-9.85567e-08
739.572	-2.17857e-08
748.25	1.42476e-07
756.928	3.563e-07
765.606	7.71383e-07
774.285	1.63236e-06
782.963	3.58182e-06
791.641	7.4423e-06
800.319	1.28253e-05
808.997	2.33921e-05
817.675	2.62701e-05
826.353	2.38112e-05
835.032	8.84123e-05
843.71	0.000118351
852.388	0.000162158
861.066	0.000169589
869.744	0.000225337
878.422	0.000121787
887.101	0.000135935
895.779	0.000127156
904.457	0.000108461
913.135	6.96633e-05
921.813	3.49812e-05
930.491	1.42036e-05
939.169	4.89262e-06
947.848	1.49296e-06
956.526	3.34414e-07
965.204	-8.95019e-09
973.882	-7.45564e-08
982.56	-1.46163e-07
991.238	-1.58062e-07
999.917	-1.5506e-07
1008.59	-1.45791e-07
1017.27	-1.38718e-07
1025.95	-1.05088e-07
1034.63	-5.64341e-08
1043.31	5.09282e-08
1051.99	1.58814e-07
1060.66	3.83801e-07
1069.34	7.4285e-07
1078.02	1.18926e-06
1086.7	1.72053e-06
1095.38	2.16753e-06
1104.05	3.01277e-06
1112.73	4.72538e-06
1121.41	6.25167e-06
1130.09	8.12582e-06
1138.77	6.64296e-06
1147.45	5.94958e-06
1156.12	8.48216e-06
1164.8	8.07927e-06
1173.48	7.84748e-06
1182.16	5.31842e-06
1190.84	3.80717e-06
1199.51	2.8287e-06
1208.19	2.42912e-06
1216.87	3.34103e-06
1225.55	7.09714e-06
1234.23	1.50363e-05
1242.9	2.50616e-05
1251.58	3.00303e-05
1260.26	3.2075e-05
1268.94	2.08157e-05
1277.62	3.97801e-05
1286.3	3.11124e-05
1294.97	2.92729e-05
1303.65	1.71843e-05
1312.33	7.00702e-06
1321.01	2.35888e-06
1329.69	6.42024e-07
1338.36	7.11595e-08
1347.04	-6.72069e-08
1355.72	-1.27541e-07
1364.4	-1.06838e-07
1373.08	-1.27585e-07
1381.76	-6.55371e-08
1390.43	-5.99284e-08
1399.11	-8.47617e-08
1407.79	-1.20651e-07
1416.47	-1.08167e-07
1425.15	-1.34357e-08
1433.82	3.17187e-07
1442.5	8.43892e-07
1451.18	1.18178e-06
1459.86	1.19139e-06
1468.54	1.77012e-06
1477.22	2.56905e-06
1485.89	2.59815e-06
1494.57	3.38871e-06
1503.25	3.67462e-06
1511.93	2.45398e-06
1520.61	2.72589e-06
1529.28	1.8655e-06
1537.96	8.61745e-07
1546.64	2.50343e-07
1555.32	6.73561e-08
1564	9.25823e-08
1572.67	2.74326e-07
1581.35	6.03492e-07
1590.03	1.07511e-06
1598.71	1.67203e-06
1607.39	2.34248e-06
1616.07	3.03889e-06
1624.74	3.89968e-06
1633.42	3.78125e-06
1642.1	1.12595e-05
1650.78	4.84455e-06
1659.46	2.65774e-06
1668.13	1.54531e-06
1676.81	5.08764e-07
1685.49	1.22329e-07
1694.17	-5.98793e-08
1702.85	2.60953e-07
1711.53	6.90766e-07
1720.2	5.59033e-07
1728.88	1.94591e-07
1737.56	2.69785e-07
1746.24	9.91275e-07
1754.92	3.83208e-07
1763.59	2.13894e-07
1772.27	2.5172e-07
1780.95	7.56897e-08
1789.63	-5.82677e-08
1798.31	-8.12147e-08
1806.98	-3.60627e-08
1815.66	7.32568e-08
1824.34	5.48135e-08
1833.02	5.84059e-08
1841.7	1.87789e-08
1850.38	8.69454e-08
1859.05	1.42041e-07
1867.73	6.12535e-08
1876.41	-5.5823e-08
1885.09	-4.43353e-08
1893.77	3.97534e-09
1902.44	1.26444e-07
1911.12	2.12299e-07
1919.8	2.2774e-07
1928.48	8.65719e-07
1937.16	6.73067e-07
1945.84	5.14717e-07
1954.51	9.81959e-07
1963.19	1.0994e-06
1971.87	1.1474e-06
1980.55	1.35771e-06
1989.23	1.74432e-06
1997.9	2.55e-06
2006.58	2.38716e-06
2015.26	2.86542e-06
2023.94	1.11827e-06
2032.62	1.98982e-06
2041.3	2.07412e-06
2049.97	1.40557e-06
2058.65	1.0297e-06
2067.33	8.65694e-07
2076.01	9.01353e-07
2084.69	2.11451e-06
2093.36	8.62055e-07
2102.04	2.01308e-06
2110.72	1.58005e-06
2119.4	1.36235e-06
2128.08	1.16691e-06
2136.75	7.26096e-07
2145.43	9.88885e-07
2154.11	8.47935e-07
2162.79	8.85354e-07
2171.47	7.20486e-07
2180.15	6.28245e-07
2188.82	4.99495e-07
2197.5	6.40263e-07
2206.18	6.90512e-07
2214.86	1.01812e-06
2223.54	1.65514e-06
2232.21	2.59121e-06
2240.89	3.24155e-06
2249.57	3.74122e-06
2258.25	4.25368e-06
2266.93	2.26832e-06
2275.61	4.01187e-06
2284.28	3.57912e-06
2292.96	2.21742e-06
2301.64	2.10794e-06
2310.32	2.3396e-06
2319	1.52415e-06
2327.67	1.39291e-06
2336.35	7.41349e-07
2345.03	4.17488e-07
2353.71	2.75054e-07
2362.39	1.86092e-07
2371.06	2.66961e-07
2379.74	2.79173e-07
2388.42	2.09547e-07
2397.1	1.90137e-07
2405.78	2.15771e-07
2414.46	2.12545e-08
2423.13	6.19201e-08
2431.81	7.28775e-08
2440.49	5.41241e-08
2449.17	5.5943e-08
2457.85	2.33474e-07
2466.52	-2.97109e-08
2475.2	-1.17327e-07
2483.88	-2.21892e-07
2492.56	-2.76903e-07
2501.24	-1.72801e-07
2509.92	-2.11196e-07
2518.59	-2.68749e-07
2527.27	-3.02393e-07
2535.95	-2.58462e-07
2544.63	-3.04919e-07
2553.31	-3.0796e-07
2561.98	-1.26591e-07
2570.66	-6.10898e-09
2579.34	2.09716e-07
2588.02	5.30885e-07
2596.7	7.09444e-07
2605.38	9.38857e-07
2614.05	7.22979e-07
2622.73	1.12906e-06
2631.41	1.23112e-06
2640.09	9.28477e-07
2648.77	4.47309e-07
2657.44	1.29279e-07
2666.12	-6.43657e-08
2674.8	-1.31108e-07
2683.48	-1.48047e-07
2692.16	-1.23647e-07
2700.83	-1.08302e-07
2709.51	4.75594e-08
2718.19	1.02639e-07
2726.87	1.87935e-07
2735.55	2.6803e-07
2744.23	3.4049e-07
2752.9	5.39032e-07
2761.58	4.21567e-07
2770.26	4.38156e-07
2778.94	1.56946e-07
2787.62	1.39658e-07
2796.29	1.60687e-08
2804.97	-5.20723e-08
2813.65	-1.34768e-07
2822.33	-9.90542e-08
2831.01	-1.31669e-07
2839.69	-3.92122e-08
2848.36	8.72091e-08
2857.04	2.0229e-07
2865.72	6.52e-07
2874.4	1.65734e-06
2883.08	4.65571e-06
2891.75	1.28197e-05
2900.43	2.6387e-05
2909.11	3.61075e-05
2917.79	3.78083e-05
2926.47	2.89766e-05
2935.14	3.19552e-05
2943.82	4.50744e-05
2952.5	5.1734e-05
2961.18	4.7908e-05
2969.86	3.77856e-05
2978.54	5.72421e-05
2987.21	7.06206e-05
2995.89	6.65716e-05
3004.57	0.000100203
3013.25	8.48272e-05
3021.93	0.000114748
3030.6	0.000121205
3039.28	0.000110512
3047.96	7.48827e-05
3056.64	3.77348e-05
3065.32	0.00083197
3074	2.7808e-05
3082.67	5.42629e-05
3091.35	6.99865e-05
3100.03	6.09589e-05
3108.71	3.88974e-05
3117.39	1.94186e-05
3126.06	8.09971e-06
3134.74	2.99249e-06
3143.42	1.15562e-06
3152.1	4.31284e-07
3160.78	1.35714e-07
3169.46	4.5183e-09
3178.13	-2.44586e-08
3186.81	-8.50346e-08
3195.49	-2.00759e-08
3204.17	-1.19632e-07
3212.85	-9.77164e-08
3221.52	-8.40014e-08
3230.2	-1.26776e-07
3238.88	-1.85132e-07
3247.56	-1.17872e-07
3256.24	-1.1163e-07
3264.91	-1.44957e-07
3273.59	-1.98514e-07
3282.27	-3.54826e-07
3290.95	-2.60093e-07
3299.63	-2.34101e-07
3308.31	-2.37764e-07
3316.98	-2.05146e-07
3325.66	-1.35371e-07
3334.34	-1.40833e-07
3343.02	-1.83552e-07
3351.7	-1.46868e-07
3360.37	-1.22224e-07
3369.05	-1.36273e-07
3377.73	-1.63839e-07
3386.41	-1.48461e-07
3395.09	-2.11292e-07
3403.77	-2.0733e-07
3412.44	-1.27038e-07
3421.12	-9.37728e-08
3429.8	-1.25269e-07
3438.48	-1.64464e-07
3447.16	-1.38499e-07
3455.83	-1.05547e-07
3464.51	-2.03524e-07
3473.19	-6.48523e-08
3481.87	-1.5923e-07
3490.55	-1.6514e-07
3499.22	-1.57063e-07
3507.9	-1.33828e-07
3516.58	-1.45459e-07
3525.26	-1.86099e-07
3533.94	-1.61508e-07
3542.62	-1.43998e-07
3551.29	-1.87405e-07
3559.97	-1.62925e-07
3568.65	-2.02043e-07
3577.33	-1.59005e-07
3586.01	-1.81086e-07
3594.68	-1.33373e-07
3603.36	-1.6744e-07
3612.04	-1.43324e-07
3620.72	-1.08297e-07
3629.4	-9.40821e-08
3638.08	-1.12679e-07
3646.75	-1.5548e-07
3655.43	-1.59968e-07
3664.11	-1.49892e-07
3672.79	-1.25031e-07
3681.47	-1.52383e-08
3690.14	1.48834e-07
3698.82	1.86492e-07
3707.5	3.03621e-07
3716.18	5.19671e-07
3724.86	2.21823e-06
3733.54	8.36642e-07
3742.21	1.61897e-06
3750.89	1.2883e-06
3759.57	1.36303e-06
3768.25	2.34065e-06
3776.93	1.29201e-06
3785.6	1.42848e-06
3794.28	1.71654e-06
3802.96	2.29326e-06
3811.64	2.93721e-06
3820.32	2.41827e-06
3828.99	5.07343e-06
3837.67	3.41804e-06
3846.35	4.41022e-06
3855.03	3.72054e-06
3863.71	3.96221e-06
3872.39	5.48559e-06
3881.06	1.51591e-06
3889.74	1.51892e-06
3898.42	1.82076e-06
3907.1	1.49261e-06
3915.78	8.27439e-07
3924.45	3.78775e-07
3933.13	2.78639e-07
3941.81	5.73373e-07
3950.49	4.03363e-08
3959.17	3.15317e-09
3967.85	1.5995e-08
