Infrared Spectrum: 1,2-Epoxyethane
Formula: C2 H4 O
CAS: 75-21-8
State: gas
Melting point: -111 C
Boiling point: 13.5 C
Class: IUPAC A
Instrument: IFS66V (Bruker)
Instrument parameters: KBr Beam splitter; MCT Detector; Multipass cell
Sampling: 1 L/min Flow
Resolution: 0.9640
Temperature: 23 C
Pressure: 101.3 kPa
Origin: NIST, Anayltical Chemistry Division, 301-975-3108
cm-1	(micromol/mol)-1m-1 (base 10)
575.169	-8.16053e-07
583.847	-6.43018e-08
592.525	-3.66374e-07
601.203	1.25395e-07
609.882	-1.33656e-07
618.56	-7.18429e-08
627.238	3.3857e-08
635.916	-5.41796e-07
644.594	-2.43387e-07
653.272	-2.56916e-07
661.951	-2.94938e-07
670.629	-2.73272e-07
679.307	-1.88176e-07
687.985	-9.98431e-08
696.663	-9.7082e-08
705.341	-3.19523e-07
714.019	-2.10869e-07
722.698	-2.82672e-07
731.376	-1.60842e-07
740.054	-3.84625e-08
748.732	2.14121e-07
757.41	4.45456e-07
766.088	7.00389e-07
774.767	1.68232e-06
783.445	4.08968e-06
792.123	7.47417e-06
800.801	1.10808e-05
809.479	2.09378e-05
818.157	2.23042e-05
826.835	2.45522e-05
835.514	9.24981e-05
844.192	0.00011177
852.87	0.000158874
861.548	0.000170994
870.226	0.000243754
878.904	0.000167779
887.583	0.000130151
896.261	0.000130251
904.939	0.000111213
913.617	5.74902e-05
922.295	3.21794e-05
930.973	1.60257e-05
939.651	4.07689e-06
948.33	1.24881e-06
957.008	2.52511e-07
965.686	-3.68509e-08
974.364	-4.55453e-08
983.042	-2.1873e-07
991.72	-1.40827e-07
1000.4	-1.14831e-07
1009.08	-1.15307e-07
1017.75	-1.57611e-07
1026.43	-1.15387e-07
1035.11	-4.89684e-08
1043.79	3.82587e-08
1052.47	1.18349e-07
1061.15	4.88731e-07
1069.82	7.8268e-07
1078.5	9.98169e-07
1087.18	1.76503e-06
1095.86	2.67742e-06
1104.54	3.05335e-06
1113.21	4.48984e-06
1121.89	6.73685e-06
1130.57	7.62398e-06
1139.25	5.57477e-06
1147.93	3.54847e-06
1156.61	7.15567e-06
1165.28	8.60816e-06
1173.96	7.83739e-06
1182.64	4.52852e-06
1191.32	3.84685e-06
1200	2.5264e-06
1208.67	2.22162e-06
1217.35	3.20248e-06
1226.03	7.37938e-06
1234.71	1.5428e-05
1243.39	2.60942e-05
1252.07	2.97942e-05
1260.74	3.45618e-05
1269.42	1.32224e-05
1278.1	3.70868e-05
1286.78	3.47846e-05
1295.46	2.95001e-05
1304.13	1.66698e-05
1312.81	6.28008e-06
1321.49	2.14572e-06
1330.17	6.40005e-07
1338.85	6.15116e-08
1347.52	-2.4788e-08
1356.2	-1.13514e-07
1364.88	-7.35454e-08
1373.56	-1.09414e-07
1382.24	-6.16462e-08
1390.92	-2.05026e-08
1399.59	-5.15658e-08
1408.27	-7.70304e-08
1416.95	-4.89757e-08
1425.63	9.88026e-09
1434.31	2.88347e-07
1442.98	9.13153e-07
1451.66	1.28005e-06
1460.34	1.09414e-06
1469.02	1.86825e-06
1477.7	2.74894e-06
1486.38	2.87836e-06
1495.05	3.28934e-06
1503.73	3.5426e-06
1512.41	2.70071e-06
1521.09	2.86221e-06
1529.77	1.8418e-06
1538.44	8.37938e-07
1547.12	2.77699e-07
1555.8	7.49896e-08
1564.48	1.33282e-07
1573.16	3.84399e-07
1581.83	6.09488e-07
1590.51	8.02593e-07
1599.19	1.40929e-06
1607.87	2.83802e-06
1616.55	3.28658e-06
1625.23	4.46419e-06
1633.9	4.42469e-06
1642.58	1.30619e-05
1651.26	5.54228e-06
1659.94	2.8207e-06
1668.62	1.67012e-06
1677.29	3.84726e-07
1685.97	1.05234e-07
1694.65	4.89066e-08
1703.33	2.762e-07
1712.01	7.79872e-07
1720.69	5.0552e-07
1729.36	2.0316e-07
1738.04	3.43798e-07
1746.72	1.06013e-06
1755.4	4.4789e-07
1764.08	3.39374e-07
1772.75	5.22708e-07
1781.43	2.29622e-07
1790.11	-2.84585e-08
1798.79	-6.10423e-09
1807.47	3.13178e-08
1816.15	1.30513e-07
1824.82	8.8253e-08
1833.5	1.01087e-07
1842.18	7.57099e-08
1850.86	1.7114e-07
1859.54	2.17671e-07
1868.21	1.64021e-07
1876.89	-4.51596e-08
1885.57	2.57192e-08
1894.25	-1.10116e-08
1902.93	1.52071e-07
1911.6	1.59627e-07
1920.28	2.29123e-07
1928.96	1.06183e-06
1937.64	6.05428e-07
1946.32	4.55103e-07
1955	1.14615e-06
1963.67	1.02109e-06
1972.35	1.1858e-06
1981.03	1.32466e-06
1989.71	1.77796e-06
1998.39	2.5471e-06
2007.06	2.25975e-06
2015.74	2.72e-06
2024.42	1.27151e-06
2033.1	2.1337e-06
2041.78	2.08122e-06
2050.46	1.45856e-06
2059.13	1.20794e-06
2067.81	8.88736e-07
2076.49	7.76696e-07
2085.17	1.30345e-06
2093.85	9.53929e-07
2102.52	2.00573e-06
2111.2	1.84068e-06
2119.88	1.49681e-06
2128.56	1.24213e-06
2137.24	9.87081e-07
2145.91	9.79496e-07
2154.59	1.12604e-06
2163.27	9.35478e-07
2171.95	3.41753e-07
2180.63	4.50323e-07
2189.31	4.75933e-07
2197.98	6.62345e-07
2206.66	7.30772e-07
2215.34	9.06321e-07
2224.02	1.69081e-06
2232.7	2.94716e-06
2241.37	3.93189e-06
2250.05	4.40817e-06
2258.73	4.47848e-06
2267.41	2.40052e-06
2276.09	3.95938e-06
2284.77	3.53205e-06
2293.44	2.45877e-06
2302.12	1.77801e-06
2310.8	3.20198e-06
2319.48	1.70627e-06
2328.16	1.38076e-06
2336.83	9.34464e-07
2345.51	4.84802e-07
2354.19	3.21953e-07
2362.87	1.50794e-07
2371.55	2.74821e-07
2380.23	4.11795e-07
2388.9	3.25132e-07
2397.58	2.63893e-07
2406.26	3.42372e-07
2414.94	1.52366e-07
2423.62	1.90497e-07
2432.29	1.70846e-07
2440.97	1.62282e-07
2449.65	1.76495e-07
2458.33	3.44336e-07
2467.01	1.03448e-07
2475.68	1.7727e-08
2484.36	-8.18141e-08
2493.04	-2.05474e-07
2501.72	-4.39883e-08
2510.4	-1.31965e-07
2519.08	-2.05354e-07
2527.75	-9.682e-08
2536.43	-1.70977e-08
2545.11	-2.28206e-07
2553.79	-1.61635e-07
2562.47	9.30476e-08
2571.14	1.79587e-07
2579.82	3.32713e-07
2588.5	7.23613e-07
2597.18	8.9591e-07
2605.86	1.06567e-06
2614.54	5.81844e-07
2623.21	1.25077e-06
2631.89	1.44804e-06
2640.57	1.11143e-06
2649.25	5.8872e-07
2657.93	3.14375e-07
2666.6	1.42034e-07
2675.28	1.13729e-07
2683.96	4.94413e-08
2692.64	4.20384e-08
2701.32	9.74457e-08
2709.99	2.97503e-07
2718.67	3.23553e-07
2727.35	3.53681e-07
2736.03	4.62615e-07
2744.71	6.64015e-07
2753.39	8.97416e-07
2762.06	6.43996e-07
2770.74	6.7618e-07
2779.42	4.50662e-07
2788.1	4.26128e-07
2796.78	4.08576e-07
2805.45	2.60299e-07
2814.13	2.00134e-07
2822.81	2.7082e-07
2831.49	2.18665e-07
2840.17	3.31003e-07
2848.85	4.5447e-07
2857.52	6.18441e-07
2866.2	1.10688e-06
2874.88	2.28022e-06
2883.56	5.21331e-06
2892.24	1.37193e-05
2900.91	2.70644e-05
2909.59	3.8224e-05
2918.27	3.68299e-05
2926.95	2.73944e-05
2935.63	3.57128e-05
2944.31	4.53909e-05
2952.98	5.43882e-05
2961.66	5.21821e-05
2970.34	3.8678e-05
2979.02	5.9117e-05
2987.7	7.28158e-05
2996.37	6.84542e-05
3005.05	0.000105854
3013.73	8.4577e-05
3022.41	0.000112828
3031.09	0.000147572
3039.76	9.78892e-05
3048.44	8.0721e-05
3057.12	3.54415e-05
3065.8	0.00257094
3074.48	1.38119e-05
3083.16	6.80312e-05
3091.83	5.09841e-05
3100.51	4.8864e-05
3109.19	4.40829e-05
3117.87	1.68839e-05
3126.55	5.96134e-06
3135.22	1.78678e-06
3143.9	1.86321e-07
3152.58	-3.72856e-07
3161.26	-6.6511e-07
3169.94	-7.18509e-07
3178.62	-6.83215e-07
3187.29	-6.81087e-07
3195.97	-5.07571e-07
3204.65	-5.6988e-07
3213.33	-5.96803e-07
3222.01	-7.58881e-07
3230.68	-6.20074e-07
3239.36	-5.96494e-07
3248.04	-4.62637e-07
3256.72	-5.19063e-07
3265.4	-5.86402e-07
3274.07	-6.2819e-07
3282.75	-6.18622e-07
3291.43	-6.44436e-07
3300.11	-6.6623e-07
3308.79	-4.87436e-07
3317.47	-5.76137e-07
3326.14	-3.8035e-07
3334.82	-3.55799e-07
3343.5	-4.46398e-07
3352.18	-3.80176e-07
3360.86	-4.0906e-07
3369.53	-2.95226e-07
3378.21	-4.07281e-07
3386.89	-5.00845e-07
3395.57	-4.68319e-07
3404.25	-3.39661e-07
3412.93	-3.80383e-07
3421.6	-3.38101e-07
3430.28	-1.81421e-07
3438.96	-4.26885e-07
3447.64	-3.56872e-07
3456.32	-3.29508e-07
3464.99	-3.66989e-07
3473.67	-1.22798e-07
3482.35	-2.85371e-07
3491.03	-3.96804e-07
3499.71	-2.37923e-07
3508.39	-4.09413e-07
3517.06	-2.79441e-07
3525.74	-3.65977e-07
3534.42	-2.60259e-07
3543.1	-2.46999e-07
3551.78	-3.15335e-07
3560.45	-2.30746e-07
3569.13	-3.50346e-07
3577.81	-3.00766e-07
3586.49	-3.72001e-07
3595.17	-2.6421e-07
3603.84	-3.28224e-07
3612.52	-1.89489e-07
3621.2	-2.5621e-07
3629.88	-1.41245e-07
3638.56	-2.31164e-07
3647.24	-2.60594e-07
3655.91	-2.60288e-07
3664.59	-2.803e-07
3673.27	-2.63584e-07
3681.95	-1.61977e-07
3690.63	-2.46752e-08
3699.3	1.13623e-07
3707.98	2.52372e-07
3716.66	3.52805e-07
3725.34	2.32453e-06
3734.02	6.52316e-07
3742.7	1.62801e-06
3751.37	1.259e-06
3760.05	1.27256e-06
3768.73	2.31271e-06
3777.41	1.16957e-06
3786.09	1.13219e-06
3794.76	1.36347e-06
3803.44	2.15274e-06
3812.12	2.53591e-06
3820.8	2.14141e-06
3829.48	5.32169e-06
3838.16	3.18004e-06
3846.83	4.24865e-06
3855.51	3.56293e-06
3864.19	3.83436e-06
3872.87	5.45775e-06
3881.55	1.14918e-06
3890.22	1.48156e-06
3898.9	1.82877e-06
3907.58	1.41764e-06
3916.26	6.56401e-07
3924.94	3.11461e-07
3933.61	2.26475e-07
3942.29	1.07226e-06
3950.97	2.33147e-08
3959.65	-5.5833e-08
3968.33	-4.36791e-08
