Infrared Spectrum: 1,2-Epoxyethane
Formula: C2 H4 O
CAS: 75-21-8
State: gas
Melting point: -111 C
Boiling point: 13.5 C
Class: IUPAC A
Instrument: IFS66V (Bruker)
Instrument parameters: KBr Beam splitter; MCT Detector; Multipass cell
Sampling: 1 L/min Flow
Resolution: 0.1250
Temperature: 23 C
Pressure: 101.3 kPa
Origin: NIST, Anayltical Chemistry Division, 301-975-3108
cm-1	(micromol/mol)-1m-1 (base 10)
3975.02	6.32923e-08
3966.46	-3.13067e-07
3957.9	2.41674e-07
3949.34	5.84049e-09
3940.79	2.61272e-07
3932.23	4.93049e-07
3923.67	2.69472e-07
3915.11	1.0289e-06
3906.56	1.43586e-06
3898	1.59084e-06
3889.44	1.75182e-06
3880.88	1.64084e-06
3872.33	6.16639e-06
3863.77	4.81352e-06
3855.21	3.67163e-06
3846.65	4.51355e-06
3838.09	3.65464e-06
3829.54	5.37347e-06
3820.98	2.30577e-06
3812.42	2.82172e-06
3803.86	2.30577e-06
3795.31	1.59584e-06
3786.75	1.54884e-06
3778.19	1.54584e-06
3769.63	2.06079e-06
3761.08	1.45485e-06
3752.52	1.74382e-06
3743.96	8.76011e-07
3735.4	8.64412e-07
3726.85	2.8887e-07
3718.29	7.37624e-07
3709.73	-1.55681e-07
3701.17	3.44954e-08
3692.62	4.50152e-07
3684.06	-7.59791e-08
3675.5	1.89478e-07
3666.94	-2.12278e-07
3658.38	-5.41232e-08
3649.83	-1.00489e-07
3641.27	1.17086e-07
3632.71	-2.42096e-09
3624.15	-1.69381e-07
3615.6	-6.14037e-07
3607.04	-4.19329e-08
3598.48	-1.58583e-07
3589.92	-3.19966e-07
3581.37	-9.82588e-08
3572.81	2.7917e-07
3564.25	-6.39334e-07
3555.69	-2.8877e-07
3547.14	1.50483e-07
3538.58	4.19238e-08
3530.02	-5.25946e-07
3521.46	-9.05485e-08
3512.91	-2.31175e-07
3504.35	-2.42474e-07
3495.79	-9.79696e-08
3487.23	-4.8645e-07
3478.67	-2.15378e-07
3470.12	-5.93616e-08
3461.56	1.26186e-07
3453	-3.35065e-07
3444.44	-5.36645e-07
3435.89	-4.02232e-08
3427.33	-2.17277e-07
3418.77	4.74224e-08
3410.21	1.14785e-07
3401.66	-7.87202e-08
3393.1	-1.87965e-08
3384.54	-4.99748e-07
3375.98	1.73359e-08
3367.43	-4.04258e-07
3358.87	8.14904e-08
3350.31	-2.53575e-07
3341.75	-1.22985e-07
3333.2	-2.34474e-07
3324.64	-4.27332e-08
3316.08	-4.69253e-07
3307.52	2.32275e-07
3298.96	1.31285e-07
3290.41	-3.36864e-07
3281.85	3.01392e-09
3273.29	1.35985e-07
3264.73	7.59191e-08
3256.18	-1.49183e-07
3247.62	-1.65682e-07
3239.06	-4.30455e-07
3230.5	-2.76971e-07
3221.95	-2.65772e-07
3213.39	-1.53082e-07
3204.83	-5.72935e-08
3196.27	3.98959e-07
3187.72	-2.8327e-07
3179.16	-5.07448e-07
3170.6	3.52357e-08
3162.04	-1.50483e-07
3153.48	2.27975e-07
3144.93	9.984e-07
3136.37	2.44176e-06
3127.81	6.32637e-06
3119.25	1.46985e-05
3110.7	3.11669e-05
3102.14	4.27258e-05
3093.58	5.85042e-05
3085.02	5.97141e-05
3076.47	2.07979e-05
3067.91	3.9806e-05
3059.35	4.24358e-05
3050.79	5.23148e-05
3042.24	0.000129487
3033.68	0.00010209
3025.12	0.000108889
3016.56	7.62224e-05
3008.01	6.27738e-05
2999.45	6.70933e-05
2990.89	6.46636e-05
2982.33	6.50835e-05
2973.77	5.23348e-05
2965.22	4.9935e-05
2956.66	4.39256e-05
2948.1	4.87252e-05
2939.54	3.69963e-05
2930.99	0.000247775
2922.43	3.42966e-05
2913.87	3.47865e-05
2905.31	3.0277e-05
2896.76	2.14779e-05
2888.2	1.0329e-05
2879.64	3.55465e-06
2871.08	1.05189e-06
2862.53	4.74951e-07
2853.97	4.40754e-07
2845.41	-1.8818e-07
2836.85	-3.01368e-07
2828.3	-3.6016e-08
2819.74	5.94417e-08
2811.18	-1.01189e-07
2802.62	-2.03479e-07
2794.06	9.67291e-09
2785.51	2.62471e-07
2776.95	4.38955e-07
2768.39	3.41164e-07
2759.83	4.61853e-07
2751.28	6.00539e-07
2742.72	3.48463e-07
2734.16	2.27075e-07
2725.6	4.21756e-07
2717.05	1.20386e-07
2708.49	-5.91233e-08
2699.93	-1.42685e-07
2691.37	-3.05757e-08
2682.82	-4.17956e-07
2674.26	-2.89471e-07
2665.7	6.13133e-08
2657.14	2.7477e-07
2648.59	3.67261e-07
2640.03	8.27416e-07
2631.47	1.20388e-06
2622.91	1.0469e-06
2614.35	6.34334e-07
2605.8	1.0379e-06
2597.24	8.29517e-07
2588.68	3.9556e-07
2580.12	4.54434e-08
2571.57	1.33185e-07
2563.01	-2.38374e-07
2554.45	-1.55183e-07
2545.89	-3.7256e-07
2537.34	-1.23685e-07
2528.78	-2.93769e-07
2520.22	-3.00668e-07
2511.66	-3.32464e-07
2503.11	-5.30027e-08
2494.55	-3.57863e-07
2485.99	-2.23275e-07
2477.43	-1.02089e-07
2468.87	2.44169e-08
2460.32	2.30475e-07
2451.76	-1.30786e-07
2443.2	1.21186e-07
2434.64	1.08588e-07
2426.09	5.10929e-08
2417.53	-1.71359e-08
2408.97	7.06915e-08
2400.41	2.34775e-07
2391.86	3.21767e-07
2383.3	2.67071e-07
2374.74	2.19778e-07
2366.18	1.00789e-07
2357.63	2.16378e-07
2349.07	4.42953e-07
2340.51	4.51753e-07
2331.95	1.22288e-06
2323.4	1.75383e-06
2314.84	1.09289e-06
2306.28	1.36086e-06
2297.72	1.9848e-06
2289.16	2.71173e-06
2280.61	4.11359e-06
2272.05	3.95361e-06
2263.49	2.29777e-06
2254.93	4.97551e-06
2246.38	2.78072e-06
2237.82	2.85072e-06
2229.26	2.72073e-06
2220.7	1.51985e-06
2212.15	9.67802e-07
2203.59	6.20938e-07
2195.03	7.63723e-07
2186.47	6.61532e-07
2177.92	1.50385e-06
2169.36	3.72263e-06
2160.8	9.20207e-07
2152.24	1.07789e-06
2143.69	1.28887e-06
2135.13	2.03879e-07
2126.57	8.25117e-07
2118.01	1.26187e-06
2109.45	1.50585e-06
2100.9	2.23278e-06
2092.34	5.68743e-07
2083.78	2.37476e-06
2075.22	1.47285e-06
2066.67	6.8503e-07
2058.11	1.18188e-06
2049.55	1.40786e-06
2040.99	2.12279e-06
2032.44	2.43376e-06
2023.88	1.25087e-06
2015.32	2.9907e-06
2006.76	2.27577e-06
1998.21	2.13079e-06
1989.65	1.55084e-06
1981.09	1.25887e-06
1972.53	1.10589e-06
1963.97	1.13788e-06
1955.42	1.0029e-06
1946.86	5.77141e-07
1938.3	4.30856e-07
1929.74	1.33687e-06
1921.19	1.63681e-07
1912.63	1.15185e-07
1904.07	2.07578e-07
1895.51	2.03278e-07
1886.96	-1.15386e-07
1878.4	-1.25386e-07
1869.84	-3.55249e-08
1861.28	4.61837e-08
1852.73	2.04977e-07
1844.17	5.89324e-09
1835.61	3.06268e-07
1827.05	-4.26041e-08
1818.5	1.02189e-07
1809.94	-2.83366e-08
1801.38	-2.36675e-07
1792.82	6.74121e-08
1784.26	1.13687e-07
1775.71	3.72061e-07
1767.15	1.61082e-07
1758.59	2.58471e-07
1750.03	1.23485e-07
1741.48	2.12178e-07
1732.92	3.41764e-07
1724.36	3.64762e-07
1715.8	2.98669e-07
1707.25	4.70951e-07
1698.69	2.44375e-07
1690.13	-5.1413e-08
1681.57	1.05789e-07
1673.02	8.08017e-07
1664.46	2.54275e-06
1655.9	4.29457e-06
1647.34	6.18439e-06
1638.79	3.21868e-06
1630.23	2.55175e-06
1621.67	2.87171e-06
1613.11	2.75672e-06
1604.55	1.78382e-06
1596	1.86981e-06
1587.44	8.47813e-07
1578.88	8.75013e-07
1570.32	2.18777e-07
1561.77	-1.65756e-08
1553.21	4.53834e-08
1544.65	3.12767e-07
1536.09	1.16788e-06
1527.54	1.71383e-06
1518.98	2.65374e-06
1510.42	2.55475e-06
1501.86	3.93161e-06
1493.31	3.88961e-06
1484.75	2.29277e-06
1476.19	2.39576e-06
1467.63	1.78582e-06
1459.08	1.46485e-06
1450.52	1.29987e-06
1441.96	1.0179e-06
1433.4	1.69582e-07
1424.84	-1.39764e-08
1416.29	-1.29486e-07
1407.73	-1.00889e-07
1399.17	-9.43682e-08
1390.61	-7.77198e-08
1382.06	-1.67357e-08
1373.5	-3.33259e-08
1364.94	-2.10378e-07
1356.38	-3.05168e-07
1347.83	5.47725e-08
1339.27	1.09389e-07
1330.71	7.49723e-07
1322.15	1.83482e-06
1313.6	5.91341e-06
1305.04	1.37886e-05
1296.48	2.9727e-05
1287.92	3.52065e-05
1279.36	2.9777e-05
1270.81	8.0562e-06
1262.25	4.0696e-05
1253.69	3.54665e-05
1245.13	2.89771e-05
1236.58	1.93081e-05
1228.02	1.05889e-05
1219.46	3.62064e-06
1210.9	2.48175e-06
1202.35	2.32577e-06
1193.79	3.0147e-06
1185.23	5.20648e-06
1176.67	6.37636e-06
1168.12	8.0342e-06
1159.56	4.85852e-06
1151	1.94581e-05
1142.44	2.06679e-05
1133.89	1.07689e-05
1125.33	8.76613e-06
1116.77	5.72143e-06
1108.21	3.87661e-06
1099.65	2.25577e-06
1091.1	1.81882e-06
1082.54	1.85581e-06
1073.98	8.97709e-07
1065.42	4.49054e-07
1056.87	2.06978e-07
1048.31	1.16886e-07
1039.75	1.11886e-07
1031.19	1.45485e-07
1022.64	-2.30975e-07
1014.08	-5.76828e-08
1005.52	-2.00777e-07
996.963	-3.46364e-07
988.406	1.24486e-07
979.848	-9.32987e-08
971.29	-4.04632e-08
962.733	2.18277e-07
954.175	5.51743e-07
945.618	1.17288e-06
937.06	4.74653e-06
928.502	1.70483e-05
919.945	4.86252e-05
911.387	6.56735e-05
902.829	0.00010509
894.272	0.000106389
885.714	0.000144686
877.157	3.92661e-05
868.599	0.000240576
860.041	0.000211279
851.484	0.000153985
842.926	0.000117188
834.368	7.0453e-05
825.811	2.26778e-05
817.253	2.13479e-05
808.696	2.45776e-05
800.138	1.65684e-05
791.58	7.50326e-06
783.023	3.85662e-06
774.465	1.60784e-06
765.907	7.60224e-07
757.35	5.48244e-07
748.792	5.86339e-07
740.235	-1.22387e-07
731.677	-5.71942e-07
723.119	-1.37285e-07
714.562	9.98594e-08
706.004	-2.37474e-07
697.446	-4.01559e-07
688.889	-4.43939e-08
680.331	6.66318e-08
671.774	2.73972e-07
663.216	-2.37276e-07
654.658	-5.45544e-07
646.101	-2.33274e-07
637.543	2.72762e-08
628.985	-2.57272e-07
620.428	-9.99886e-08
611.87	7.81221e-07
603.313	3.30065e-07
594.755	-5.13646e-07
586.197	-1.85681e-06
577.64	1.98678e-07
