Infrared Spectrum: 1,2-Epoxyethane
Formula: C2 H4 O
CAS: 75-21-8
State: gas
Melting point: -111 C
Boiling point: 13.5 C
Class: IUPAC A
Instrument: IFS66V (Bruker)
Instrument parameters: KBr Beam splitter; MCT Detector; Multipass cell
Sampling: 1 L/min Flow
Resolution: 0.1250
Temperature: 23 C
Pressure: 101.3 kPa
Origin: NIST, Anayltical Chemistry Division, 301-975-3108
cm-1	(micromol/mol)-1m-1 (base 10)
574.988	-4.14662e-07
583.546	-3.90227e-07
592.103	1.80882e-07
600.661	-6.52429e-07
609.219	-8.56938e-07
617.776	-4.59571e-07
626.334	-1.43366e-08
634.891	-2.14157e-08
643.449	-3.59058e-07
652.007	-1.5214e-07
660.564	1.61398e-07
669.122	-4.66511e-08
677.68	1.323e-07
686.237	-5.17335e-07
694.795	5.5531e-08
703.352	3.21691e-08
711.91	-2.00294e-07
720.468	-1.86776e-07
729.025	-1.16228e-08
737.583	1.46494e-08
746.141	-1.12521e-07
754.698	2.12789e-07
763.256	7.27964e-07
771.813	1.19943e-06
780.371	3.58027e-06
788.929	6.10954e-06
797.486	1.22217e-05
806.044	1.60016e-05
814.602	2.56652e-05
823.159	1.58449e-05
831.717	5.37914e-05
840.274	0.000135105
848.832	0.00014391
857.39	0.000187162
865.947	0.000113091
874.505	0.00016292
883.063	0.000181525
891.62	0.000115683
900.178	0.00012968
908.735	9.31062e-05
917.293	5.62403e-05
925.851	2.253e-05
934.408	6.82424e-06
942.966	2.36988e-06
951.524	1.14584e-06
960.081	1.88434e-07
968.639	-1.92436e-07
977.196	7.96496e-08
985.754	-3.22025e-07
994.312	-1.1721e-07
1002.87	-2.61631e-07
1011.43	-2.50135e-08
1019.98	-1.66378e-07
1028.54	1.54497e-08
1037.1	-2.42641e-09
1045.66	1.25577e-07
1054.22	2.4768e-07
1062.77	3.07671e-07
1071.33	6.36015e-07
1079.89	1.53932e-06
1088.45	1.66995e-06
1097	2.48417e-06
1105.56	3.26498e-06
1114.12	5.01214e-06
1122.68	5.66427e-06
1131.23	9.45494e-06
1139.79	6.58534e-06
1148.35	3.46008e-06
1156.91	6.38211e-06
1165.46	8.03037e-06
1174.02	7.46996e-06
1182.58	3.78565e-06
1191.14	4.82059e-06
1199.69	2.6811e-06
1208.25	2.59736e-06
1216.81	3.16719e-06
1225.37	6.43371e-06
1233.93	1.42233e-05
1242.48	2.61257e-05
1251.04	3.3914e-05
1259.6	3.50619e-05
1268.16	3.28199e-05
1276.71	4.40262e-05
1285.27	3.43253e-05
1293.83	3.204e-05
1302.39	2.39815e-05
1310.94	6.58735e-06
1319.5	2.88366e-06
1328.06	6.40293e-07
1336.62	1.91552e-07
1345.17	5.21551e-08
1353.73	-1.67994e-07
1362.29	-5.38322e-08
1370.85	-3.95684e-08
1379.4	-8.49317e-08
1387.96	-1.08883e-07
1396.52	-5.33629e-08
1405.08	-6.09768e-08
1413.64	-6.10568e-08
1422.19	-1.42271e-07
1430.75	1.98966e-07
1439.31	5.67199e-07
1447.87	1.38921e-06
1456.42	1.45192e-06
1464.98	1.45834e-06
1473.54	2.23839e-06
1482.1	2.45435e-06
1490.65	4.111e-06
1499.21	1.8644e-06
1507.77	2.92439e-06
1516.33	3.18725e-06
1524.88	2.59649e-06
1533.44	1.2017e-06
1542	6.47408e-07
1550.56	1.3063e-07
1559.11	3.11396e-08
1567.67	1.20629e-07
1576.23	6.13089e-07
1584.79	5.2066e-07
1593.35	1.1791e-06
1601.9	3.30316e-06
1610.46	1.98149e-06
1619.02	3.1431e-06
1627.58	2.93321e-06
1636.13	4.11048e-06
1644.69	4.89943e-06
1653.25	4.32132e-06
1661.81	2.52424e-06
1670.36	1.28439e-06
1678.92	2.08664e-07
1687.48	-1.84738e-07
1696.04	2.38763e-07
1704.59	2.37512e-07
1713.15	4.05498e-07
1721.71	6.26869e-07
1730.27	1.67673e-07
1738.83	5.80775e-08
1747.38	9.80365e-07
1755.94	4.09467e-07
1764.5	2.65301e-07
1773.06	2.12549e-07
1781.61	1.68034e-07
1790.17	-7.69977e-08
1798.73	-7.14973e-08
1807.29	-3.00882e-08
1815.84	1.25031e-07
1824.4	1.02779e-07
1832.96	3.92228e-08
1841.52	9.33459e-09
1850.07	6.17953e-08
1858.63	1.6094e-07
1867.19	5.40868e-08
1875.75	-1.2645e-08
1884.3	-2.14485e-08
1892.86	2.89569e-08
1901.42	1.19593e-07
1909.98	1.30128e-07
1918.54	2.06543e-07
1927.09	5.98582e-07
1935.65	1.21858e-06
1944.21	5.46907e-07
1952.77	7.96329e-07
1961.32	1.49241e-06
1969.88	1.20083e-06
1978.44	1.37658e-06
1987	1.48233e-06
1995.55	2.10102e-06
2004.11	2.31805e-06
2012.67	3.44829e-06
2021.23	1.07929e-06
2029.78	1.7733e-06
2038.34	2.50638e-06
2046.9	1.52154e-06
2055.46	9.9528e-07
2064.01	8.6807e-07
2072.57	1.21519e-06
2081.13	1.13249e-06
2089.69	8.89322e-07
2098.25	1.99801e-06
2106.8	1.55922e-06
2115.36	1.4018e-06
2123.92	1.17425e-06
2132.48	1.11481e-06
2141.03	1.33017e-06
2149.59	8.15151e-07
2158.15	1.00837e-06
2166.71	8.10767e-07
2175.26	3.64937e-07
2183.82	3.43441e-07
2192.38	4.75224e-07
2200.94	6.06818e-07
2209.49	7.46782e-07
2218.05	1.21071e-06
2226.61	1.58193e-06
2235.17	2.67865e-06
2243.72	4.11016e-06
2252.28	3.84045e-06
2260.84	2.5959e-06
2269.4	3.84163e-06
2277.96	3.58178e-06
2286.51	2.91769e-06
2295.07	2.12549e-06
2303.63	1.47791e-06
2312.19	1.34829e-06
2320.74	1.39562e-06
2329.3	1.42435e-06
2337.86	5.95722e-07
2346.42	3.89979e-07
2354.97	2.59506e-07
2363.53	2.10876e-07
2372.09	2.09734e-07
2380.65	4.64234e-07
2389.2	1.33911e-07
2397.76	2.29607e-07
2406.32	1.41394e-07
2414.88	3.03356e-08
2423.44	6.7583e-08
2431.99	9.60197e-08
2440.55	1.76662e-07
2449.11	8.79802e-08
2457.67	2.32244e-07
2466.22	-4.03687e-08
2474.78	-2.00894e-07
2483.34	-2.77808e-07
2491.9	-2.3514e-07
2500.45	-1.68437e-07
2509.01	-2.83294e-07
2517.57	-1.99744e-07
2526.13	-3.09304e-07
2534.68	-4.43612e-07
2543.24	-2.65607e-07
2551.8	-2.11374e-07
2560.36	-7.82745e-08
2568.91	-4.06742e-08
2577.47	8.42442e-08
2586.03	4.24378e-07
2594.59	4.84078e-07
2603.15	1.04247e-06
2611.7	1.48849e-06
2620.26	1.7297e-06
2628.82	1.17007e-06
2637.38	1.18637e-06
2645.93	4.62444e-07
2654.49	1.07479e-07
2663.05	-3.20381e-08
2671.61	-6.21082e-08
2680.16	-1.72977e-07
2688.72	-1.76113e-07
2697.28	-5.7801e-08
2705.84	1.84582e-08
2714.39	1.21921e-07
2722.95	1.05398e-07
2731.51	2.5278e-07
2740.07	5.49893e-07
2748.62	4.19344e-07
2757.18	4.53925e-07
2765.74	6.5221e-07
2774.3	2.09494e-07
2782.86	2.09021e-07
2791.41	6.34651e-08
2799.97	-3.42754e-08
2808.53	-5.11547e-08
2817.09	-1.28971e-07
2825.64	-2.16267e-07
2834.2	-2.95477e-07
2842.76	-9.90209e-09
2851.32	1.62166e-07
2859.87	2.36606e-07
2868.43	8.25828e-07
2876.99	2.23104e-06
2885.55	6.81958e-06
2894.1	1.83438e-05
2902.66	3.44013e-05
2911.22	3.51651e-05
2919.78	3.71803e-05
2928.34	2.79333e-05
2936.89	3.51087e-05
2945.45	4.55916e-05
2954.01	4.43969e-05
2962.57	4.55013e-05
2971.12	4.64092e-05
2979.68	5.47887e-05
2988.24	6.78192e-05
2996.8	6.79548e-05
3005.35	0.000114689
3013.91	7.91278e-05
3022.47	0.000114025
3031.03	0.000153807
3039.58	0.000106507
3048.14	6.09035e-05
3056.7	5.37439e-05
3065.26	0.000765915
3073.81	4.26641e-05
3082.37	4.38707e-05
3090.93	0.000111357
3099.49	5.07345e-05
3108.05	4.42362e-05
3116.6	1.70133e-05
3125.16	7.14522e-06
3133.72	3.62342e-06
3142.28	1.37681e-06
3150.83	5.05956e-07
3159.39	1.25599e-07
3167.95	2.0881e-09
3176.51	-2.87495e-08
3185.06	-1.14049e-07
3193.62	4.67057e-08
3202.18	-1.52111e-07
3210.74	-1.33853e-07
3219.29	-2.42543e-07
3227.85	-1.08705e-07
3236.41	-2.58498e-07
3244.97	-3.70273e-07
3253.52	-1.32194e-07
3262.08	-2.35042e-07
3270.64	-2.7907e-07
3279.2	-1.23918e-07
3287.76	-5.52291e-08
3296.31	-2.09166e-07
3304.87	2.36457e-08
3313.43	-4.4101e-08
3321.99	-2.20563e-07
3330.54	-2.15332e-07
3339.1	-1.72264e-07
3347.66	-1.52631e-07
3356.22	-1.57469e-07
3364.77	-3.53485e-08
3373.33	-7.02859e-08
3381.89	-2.66916e-07
3390.45	-2.73912e-07
3399	-1.62086e-07
3407.56	-6.51057e-08
3416.12	-2.10872e-07
3424.68	-2.80565e-07
3433.23	-2.30302e-07
3441.79	8.32692e-09
3450.35	-2.11149e-07
3458.91	-1.07628e-07
3467.47	-6.78013e-08
3476.02	-2.77084e-07
3484.58	-2.24878e-07
3493.14	-8.3633e-09
3501.7	2.54737e-07
3510.25	-4.08307e-07
3518.81	-1.92229e-07
3527.37	-9.16398e-08
3535.93	-1.38938e-07
3544.48	-3.37031e-07
3553.04	-1.59739e-07
3561.6	-3.2212e-07
3570.16	1.394e-08
3578.71	-1.80093e-07
3587.27	-9.31022e-08
3595.83	-3.911e-08
3604.39	-2.34023e-07
3612.95	-1.78118e-07
3621.5	-7.00568e-08
3630.06	-1.46338e-07
3638.62	-9.84352e-08
3647.18	6.63171e-09
3655.73	-3.67345e-07
3664.29	-1.10309e-07
3672.85	-2.394e-07
3681.41	-4.05506e-08
3689.96	2.95502e-07
3698.52	4.96014e-08
3707.08	2.10669e-07
3715.64	6.63666e-07
3724.19	1.90477e-06
3732.75	6.78977e-07
3741.31	1.46764e-06
3749.87	1.10661e-06
3758.42	1.3256e-06
3766.98	1.88214e-06
3775.54	1.42104e-06
3784.1	1.65959e-06
3792.66	1.98035e-06
3801.21	1.89424e-06
3809.77	2.4699e-06
3818.33	2.06256e-06
3826.89	3.51113e-06
3835.44	3.49842e-06
3844	3.77979e-06
3852.56	3.65653e-06
3861.12	3.73087e-06
3869.67	4.94591e-06
3878.23	1.63556e-06
3886.79	1.45006e-06
3895.35	1.67408e-06
3903.9	2.15285e-06
3912.46	1.34727e-06
3921.02	3.7875e-07
3929.58	7.21187e-07
3938.13	3.11243e-07
3946.69	3.72915e-07
3955.25	7.42122e-07
3963.81	-1.96077e-08
3972.37	-1.49841e-07
