Infrared Spectrum: 1,2-Epoxyethane
Formula: C2 H4 O
CAS: 75-21-8
State: gas
Melting point: -111 C
Boiling point: 13.5 C
Class: IUPAC A
Instrument: IFS66V (Bruker)
Instrument parameters: KBr Beam splitter; MCT Detector; Multipass cell
Sampling: 1 L/min Flow
Resolution: 0.9640
Temperature: 23 C
Pressure: 101.3 kPa
Origin: NIST, Anayltical Chemistry Division, 301-975-3108
cm-1	(micromol/mol)-1m-1 (base 10)
575.169	-5.26451e-07
583.847	-1.80228e-07
592.525	-1.53793e-07
601.203	1.656e-08
609.882	-2.38798e-07
618.56	-1.71839e-07
627.238	-1.16553e-07
635.916	-3.44513e-07
644.594	-1.80947e-07
653.272	-1.87653e-07
661.951	-2.1019e-07
670.629	-1.68114e-07
679.307	-1.569e-07
687.985	-1.48221e-07
696.663	-2.10169e-07
705.341	-2.53771e-07
714.019	-1.42846e-07
722.698	-1.32271e-07
731.376	-9.75628e-08
740.054	-5.386e-09
748.732	1.97416e-07
757.41	4.26296e-07
766.088	7.6493e-07
774.767	1.68088e-06
783.445	3.78244e-06
792.123	7.57975e-06
800.801	1.25444e-05
809.479	2.2779e-05
818.157	2.39966e-05
826.835	2.50186e-05
835.514	9.38859e-05
844.192	0.000115158
852.87	0.000162745
861.548	0.0001671
870.226	0.000242136
878.904	0.000159673
887.583	0.000129687
896.261	0.000127324
904.939	0.000107368
913.617	6.41639e-05
922.295	3.2419e-05
930.973	1.38367e-05
939.651	4.4088e-06
948.33	1.34681e-06
957.008	3.01058e-07
965.686	-2.89181e-08
974.364	-6.96633e-08
983.042	-1.63479e-07
991.72	-1.54446e-07
1000.4	-1.2265e-07
1009.08	-1.15018e-07
1017.75	-1.38323e-07
1026.43	-1.1077e-07
1035.11	-5.51915e-08
1043.79	4.78937e-08
1052.47	1.65604e-07
1061.15	4.25352e-07
1069.82	7.8782e-07
1078.5	1.17585e-06
1087.18	1.76993e-06
1095.86	2.30033e-06
1104.54	3.03412e-06
1113.21	4.66782e-06
1121.89	6.58318e-06
1130.57	8.12725e-06
1139.25	6.15966e-06
1147.93	3.73098e-06
1156.61	7.39987e-06
1165.28	8.52367e-06
1173.96	7.5814e-06
1182.64	4.92936e-06
1191.32	3.88412e-06
1200	2.59066e-06
1208.67	2.37885e-06
1217.35	3.35881e-06
1226.03	7.42062e-06
1234.71	1.57483e-05
1243.39	2.58767e-05
1252.07	3.04142e-05
1260.74	3.34463e-05
1269.42	1.33448e-05
1278.1	3.72767e-05
1286.78	3.24831e-05
1295.46	2.91317e-05
1304.13	1.64187e-05
1312.81	6.43468e-06
1321.49	2.15214e-06
1330.17	5.9459e-07
1338.85	4.27478e-08
1347.52	-6.21109e-08
1356.2	-1.20835e-07
1364.88	-9.19513e-08
1373.56	-1.27354e-07
1382.24	-6.65838e-08
1390.92	-6.85119e-08
1399.59	-6.96051e-08
1408.27	-1.18388e-07
1416.95	-9.50908e-08
1425.63	-7.53967e-09
1434.31	3.11189e-07
1442.98	8.86842e-07
1451.66	1.22153e-06
1460.34	1.15343e-06
1469.02	1.85764e-06
1477.7	2.65851e-06
1486.38	2.73479e-06
1495.05	3.15589e-06
1503.73	3.51143e-06
1512.41	2.52742e-06
1521.09	2.77143e-06
1529.77	1.85684e-06
1538.44	8.4468e-07
1547.12	2.28095e-07
1555.8	5.59118e-08
1564.48	9.61731e-08
1573.16	3.13059e-07
1581.83	5.83318e-07
1590.51	9.78231e-07
1599.19	1.62908e-06
1607.87	2.53674e-06
1616.55	3.21442e-06
1625.23	4.39231e-06
1633.9	4.14613e-06
1642.58	1.287e-05
1651.26	4.78583e-06
1659.94	2.6288e-06
1668.62	1.48735e-06
1677.29	4.0333e-07
1685.97	1.09828e-07
1694.65	-1.7695e-08
1703.33	2.53391e-07
1712.01	7.3328e-07
1720.69	5.0235e-07
1729.36	1.72668e-07
1738.04	2.87424e-07
1746.72	1.00548e-06
1755.4	3.8711e-07
1764.08	2.41937e-07
1772.75	3.22209e-07
1781.43	1.09108e-07
1790.11	-5.54862e-08
1798.79	-6.68602e-08
1807.47	-3.39094e-08
1816.15	9.75574e-08
1824.82	6.13342e-08
1833.5	6.41427e-08
1842.18	2.60041e-08
1850.86	1.10499e-07
1859.54	1.52449e-07
1868.21	7.9162e-08
1876.89	-6.86756e-08
1885.57	-3.14192e-08
1894.25	-2.47872e-08
1902.93	1.28485e-07
1911.6	1.76739e-07
1920.28	2.06552e-07
1928.96	1.00729e-06
1937.64	5.36637e-07
1946.32	4.96107e-07
1955	1.02202e-06
1963.67	9.8574e-07
1972.35	1.14333e-06
1981.03	1.32461e-06
1989.71	1.7933e-06
1998.39	2.58734e-06
2007.06	2.44607e-06
2015.74	2.60926e-06
2024.42	1.18656e-06
2033.1	2.02701e-06
2041.78	2.02708e-06
2050.46	1.38657e-06
2059.13	1.08251e-06
2067.81	8.57505e-07
2076.49	6.97213e-07
2085.17	1.5735e-06
2093.85	9.04331e-07
2102.52	1.9927e-06
2111.2	1.6886e-06
2119.88	1.37879e-06
2128.56	1.18511e-06
2137.24	9.24091e-07
2145.91	9.39401e-07
2154.59	9.25195e-07
2163.27	8.23359e-07
2171.95	4.5272e-07
2180.63	4.08676e-07
2189.31	4.7138e-07
2197.98	5.82863e-07
2206.66	6.78974e-07
2215.34	9.49635e-07
2224.02	1.72999e-06
2232.7	2.67959e-06
2241.37	3.44343e-06
2250.05	3.86657e-06
2258.73	4.2607e-06
2267.41	2.32172e-06
2276.09	3.96442e-06
2284.77	3.43684e-06
2293.44	2.26209e-06
2302.12	1.63208e-06
2310.8	2.98485e-06
2319.48	1.54578e-06
2328.16	1.36456e-06
2336.83	7.8e-07
2345.51	3.91479e-07
2354.19	2.5077e-07
2362.87	1.66522e-07
2371.55	2.47678e-07
2380.23	2.93391e-07
2388.9	1.98049e-07
2397.58	1.87371e-07
2406.26	2.20226e-07
2414.94	2.57058e-08
2423.62	7.57823e-08
2432.29	6.77825e-08
2440.97	5.90914e-08
2449.65	7.78814e-08
2458.33	2.58077e-07
2467.01	-3.24015e-08
2475.68	-1.00884e-07
2484.36	-2.11766e-07
2493.04	-2.97925e-07
2501.72	-1.64729e-07
2510.4	-2.36435e-07
2519.08	-2.66333e-07
2527.75	-2.62057e-07
2536.43	-1.6228e-07
2545.11	-3.38292e-07
2553.79	-3.09268e-07
2562.47	-1.15714e-07
2571.14	3.38167e-08
2579.82	2.12206e-07
2588.5	5.91059e-07
2597.18	7.33185e-07
2605.86	9.73798e-07
2614.54	4.6915e-07
2623.21	1.09452e-06
2631.89	1.28469e-06
2640.57	9.3202e-07
2649.25	4.32868e-07
2657.93	1.3766e-07
2666.6	-5.76617e-08
2675.28	-8.69109e-08
2683.96	-1.26963e-07
2692.64	-1.04e-07
2701.32	-1.01883e-07
2709.99	8.19942e-08
2718.67	1.03071e-07
2727.35	2.24468e-07
2736.03	2.89742e-07
2744.71	4.01964e-07
2753.39	6.25796e-07
2762.06	3.95288e-07
2770.74	4.34147e-07
2779.42	2.04479e-07
2788.1	1.59461e-07
2796.78	1.08302e-07
2805.45	-3.38803e-08
2814.13	-9.66442e-08
2822.81	-7.66318e-08
2831.49	-1.08715e-07
2840.17	5.05495e-09
2848.85	1.43787e-07
2857.52	2.33291e-07
2866.2	7.33313e-07
2874.88	1.79174e-06
2883.56	4.92692e-06
2892.24	1.33774e-05
2900.91	2.69743e-05
2909.59	3.64624e-05
2918.27	3.74887e-05
2926.95	2.86341e-05
2935.63	3.35467e-05
2944.31	4.5573e-05
2952.98	5.22359e-05
2961.66	4.94688e-05
2970.34	3.87322e-05
2979.02	5.80698e-05
2987.7	7.09345e-05
2996.37	6.58909e-05
3005.05	9.39664e-05
3013.73	8.66137e-05
3022.41	0.000116787
3031.09	0.000130881
3039.76	0.000104499
3048.44	7.3505e-05
3057.12	3.48917e-05
3065.8	0.00173224
3074.48	2.43932e-05
3083.16	6.13076e-05
3091.83	6.40827e-05
3100.51	5.77063e-05
3109.19	4.01754e-05
3117.87	1.838e-05
3126.55	7.50629e-06
3135.22	2.79835e-06
3143.9	1.01024e-06
3152.58	3.64584e-07
3161.26	4.01394e-08
3169.94	-2.09819e-08
3178.62	-1.30492e-07
3187.29	-1.11207e-07
3195.97	-3.5783e-08
3204.65	-9.99948e-08
3213.33	-1.47281e-07
3222.01	-2.34834e-07
3230.68	-2.02854e-07
3239.36	-2.17725e-07
3248.04	-1.61109e-07
3256.72	-1.30163e-07
3265.4	-2.08746e-07
3274.07	-2.46819e-07
3282.75	-3.54121e-07
3291.43	-3.03231e-07
3300.11	-3.12217e-07
3308.79	-2.74948e-07
3317.47	-2.67994e-07
3326.14	-1.44049e-07
3334.82	-1.53275e-07
3343.5	-1.855e-07
3352.18	-1.47034e-07
3360.86	-1.33273e-07
3369.53	-1.01643e-07
3378.21	-1.66973e-07
3386.89	-2.10942e-07
3395.57	-2.25774e-07
3404.25	-1.91793e-07
3412.93	-1.58542e-07
3421.6	-1.01934e-07
3430.28	-5.71378e-08
3438.96	-2.29854e-07
3447.64	-1.69478e-07
3456.32	-1.52867e-07
3464.99	-2.12217e-07
3473.67	-3.01478e-08
3482.35	-1.4458e-07
3491.03	-2.18501e-07
3499.71	-1.37813e-07
3508.39	-1.79964e-07
3517.06	-1.28822e-07
3525.74	-2.44817e-07
3534.42	-1.45855e-07
3543.1	-1.45475e-07
3551.78	-2.01447e-07
3560.45	-1.21913e-07
3569.13	-2.3128e-07
3577.81	-1.82575e-07
3586.49	-2.17226e-07
3595.17	-1.41575e-07
3603.84	-1.93832e-07
3612.52	-1.20153e-07
3621.2	-1.09381e-07
3629.88	-7.93912e-08
3638.56	-1.06921e-07
3647.24	-1.41058e-07
3655.91	-1.58615e-07
3664.59	-1.66142e-07
3673.27	-1.6875e-07
3681.95	-7.31776e-09
3690.63	1.26275e-07
3699.3	1.91631e-07
3707.98	3.37295e-07
3716.66	4.87057e-07
3725.34	2.44771e-06
3734.02	7.96362e-07
3742.7	1.70103e-06
3751.37	1.3938e-06
3760.05	1.37764e-06
3768.73	2.45367e-06
3777.41	1.27131e-06
3786.09	1.3299e-06
3794.76	1.60354e-06
3803.44	2.22706e-06
3812.12	2.86709e-06
3820.8	2.35703e-06
3829.48	5.41966e-06
3838.16	3.31346e-06
3846.83	4.43583e-06
3855.51	3.60788e-06
3864.19	3.98608e-06
3872.87	5.2096e-06
3881.55	1.37734e-06
3890.22	1.51622e-06
3898.9	1.8949e-06
3907.58	1.48421e-06
3916.26	7.67957e-07
3924.94	3.46137e-07
3933.61	3.03682e-07
3942.29	9.44922e-07
3950.97	6.21e-08
3959.65	-2.87162e-08
3968.33	5.0695e-08
