Infrared Spectrum: 1,2-Epoxyethane
Formula: C2 H4 O
CAS: 75-21-8
State: gas
Melting point: -111 C
Boiling point: 13.5 C
Class: IUPAC A
Instrument: IFS66V (Bruker)
Instrument parameters: KBr Beam splitter; MCT Detector; Multipass cell
Sampling: 1 L/min Flow
Resolution: 0.4820
Temperature: 23 C
Pressure: 101.3 kPa
Origin: NIST, Anayltical Chemistry Division, 301-975-3108
cm-1	(micromol/mol)-1m-1 (base 10)
574.928	-7.96671e-07
583.606	-3.5522e-07
592.284	-1.7205e-07
600.962	-7.74051e-08
609.641	-2.83457e-07
618.319	-1.07944e-07
626.997	-1.24482e-07
635.675	-5.11082e-07
644.353	-8.83876e-08
653.031	-1.34744e-07
661.71	-1.69925e-07
670.388	-1.97092e-07
679.066	-1.49394e-07
687.744	-2.75702e-07
696.422	-2.50142e-07
705.1	-1.34209e-07
713.778	-1.11106e-07
722.457	-1.39713e-07
731.135	-9.84607e-08
739.813	3.07067e-08
748.491	1.78947e-07
757.169	4.44765e-07
765.847	7.79297e-07
774.526	1.69758e-06
783.204	4.27288e-06
791.882	7.63838e-06
800.56	1.25875e-05
809.238	2.2258e-05
817.916	2.10704e-05
826.594	2.47934e-05
835.273	9.10736e-05
843.951	0.000113332
852.629	0.000162028
861.307	0.000162504
869.985	0.000233203
878.663	0.000141791
887.342	0.000125793
896.02	0.000136467
904.698	0.000100468
913.376	6.66878e-05
922.054	2.87941e-05
930.732	1.41209e-05
939.41	4.46014e-06
948.089	1.18186e-06
956.767	3.64813e-07
965.445	-9.94211e-09
974.123	-3.18417e-08
982.801	-1.49917e-07
991.479	-1.96059e-07
1000.16	-1.16744e-07
1008.84	-1.21175e-07
1017.51	-1.5994e-07
1026.19	-1.3569e-07
1034.87	-2.98845e-08
1043.55	5.29118e-08
1052.23	1.43297e-07
1060.9	4.15862e-07
1069.58	8.71108e-07
1078.26	1.04805e-06
1086.94	2.14663e-06
1095.62	2.16317e-06
1104.3	2.8642e-06
1112.97	4.59442e-06
1121.65	6.48384e-06
1130.33	8.00665e-06
1139.01	6.17488e-06
1147.69	3.82258e-06
1156.36	8.17733e-06
1165.04	8.11397e-06
1173.72	7.41977e-06
1182.4	4.1436e-06
1191.08	4.74806e-06
1199.76	2.52843e-06
1208.43	2.53214e-06
1217.11	3.25525e-06
1225.79	7.34551e-06
1234.47	1.43044e-05
1243.15	2.47683e-05
1251.82	3.14641e-05
1260.5	3.46155e-05
1269.18	1.65562e-05
1277.86	3.89883e-05
1286.54	2.98804e-05
1295.21	2.83521e-05
1303.89	1.78491e-05
1312.57	6.76464e-06
1321.25	2.04494e-06
1329.93	5.48144e-07
1338.61	3.45918e-08
1347.28	-6.85143e-08
1355.96	-9.91446e-08
1364.64	-1.06835e-07
1373.32	-1.25733e-07
1382	-3.38024e-08
1390.67	-1.75597e-08
1399.35	-6.59206e-08
1408.03	-1.15271e-07
1416.71	-1.09491e-07
1425.39	-4.41884e-08
1434.07	3.4422e-07
1442.74	9.04277e-07
1451.42	1.23156e-06
1460.1	1.12754e-06
1468.78	1.69748e-06
1477.46	2.67875e-06
1486.13	2.78601e-06
1494.81	3.36966e-06
1503.49	3.57204e-06
1512.17	2.32565e-06
1520.85	2.64659e-06
1529.52	1.91505e-06
1538.2	9.13117e-07
1546.88	2.76204e-07
1555.56	1.21684e-08
1564.24	1.15307e-07
1572.92	2.40237e-07
1581.59	4.88844e-07
1590.27	1.09187e-06
1598.95	1.23558e-06
1607.63	2.66331e-06
1616.31	3.14941e-06
1624.98	3.70777e-06
1633.66	3.90573e-06
1642.34	1.32504e-05
1651.02	4.56373e-06
1659.7	2.57846e-06
1668.38	1.29957e-06
1677.05	3.97317e-07
1685.73	1.43959e-07
1694.41	-1.54315e-08
1703.09	2.17984e-07
1711.77	6.67678e-07
1720.44	5.53811e-07
1729.12	1.20026e-07
1737.8	3.31553e-07
1746.48	1.02914e-06
1755.16	3.57865e-07
1763.84	2.14932e-07
1772.51	3.92788e-07
1781.19	1.03943e-07
1789.87	-8.81002e-08
1798.55	-5.88014e-08
1807.23	-3.20599e-08
1815.9	7.13845e-08
1824.58	4.96669e-08
1833.26	6.5946e-08
1841.94	6.12897e-08
1850.62	9.13597e-08
1859.29	1.60711e-07
1867.97	8.07773e-08
1876.65	-7.19266e-08
1885.33	-2.0328e-08
1894.01	4.98379e-09
1902.69	5.12966e-08
1911.36	1.90046e-07
1920.04	2.26373e-07
1928.72	9.04692e-07
1937.4	6.44669e-07
1946.08	5.11296e-07
1954.75	1.04777e-06
1963.43	8.54334e-07
1972.11	1.05575e-06
1980.79	1.38295e-06
1989.47	1.7524e-06
1998.15	2.30662e-06
2006.82	2.39675e-06
2015.5	2.83602e-06
2024.18	1.0464e-06
2032.86	1.9299e-06
2041.54	2.00323e-06
2050.21	1.37073e-06
2058.89	1.02285e-06
2067.57	8.97325e-07
2076.25	6.32581e-07
2084.93	2.19006e-06
2093.6	8.20426e-07
2102.28	2.14065e-06
2110.96	1.60733e-06
2119.64	1.43693e-06
2128.32	1.12722e-06
2137	8.44108e-07
2145.67	9.08868e-07
2154.35	9.25227e-07
2163.03	8.22307e-07
2171.71	4.31294e-07
2180.39	3.87706e-07
2189.06	4.01722e-07
2197.74	6.0911e-07
2206.42	6.86951e-07
2215.1	8.9898e-07
2223.78	1.67723e-06
2232.46	2.59964e-06
2241.13	3.15592e-06
2249.81	3.77712e-06
2258.49	4.49523e-06
2267.17	2.19901e-06
2275.85	4.06633e-06
2284.52	3.50409e-06
2293.2	2.35573e-06
2301.88	1.63881e-06
2310.56	2.80213e-06
2319.24	1.49948e-06
2327.92	1.43821e-06
2336.59	7.74011e-07
2345.27	4.12847e-07
2353.95	3.82784e-07
2362.63	8.85586e-08
2371.31	2.28385e-07
2379.98	2.58535e-07
2388.66	1.71591e-07
2397.34	1.5628e-07
2406.02	2.27246e-07
2414.7	3.13251e-08
2423.37	3.52503e-08
2432.05	4.77352e-08
2440.73	4.0878e-08
2449.41	4.23767e-08
2458.09	2.76476e-07
2466.77	-3.40644e-08
2475.44	-1.11037e-07
2484.12	-2.32445e-07
2492.8	-3.24295e-07
2501.48	-1.83123e-07
2510.16	-2.15431e-07
2518.83	-3.07671e-07
2527.51	-2.83825e-07
2536.19	-1.72988e-07
2544.87	-3.70866e-07
2553.55	-3.36526e-07
2562.23	-1.28935e-07
2570.9	-3.43627e-08
2579.58	2.2837e-07
2588.26	6.32351e-07
2596.94	6.07956e-07
2605.62	9.9372e-07
2614.29	4.89026e-07
2622.97	1.03582e-06
2631.65	1.16542e-06
2640.33	9.34558e-07
2649.01	4.27532e-07
2657.68	1.59478e-07
2666.36	-8.39895e-08
2675.04	-1.18447e-07
2683.72	-1.76739e-07
2692.4	-1.38466e-07
2701.08	-1.53548e-07
2709.75	3.69273e-08
2718.43	6.38725e-08
2727.11	2.29534e-07
2735.79	2.13972e-07
2744.47	3.81642e-07
2753.14	5.79651e-07
2761.82	3.78251e-07
2770.5	4.09958e-07
2779.18	1.23121e-07
2787.86	1.86255e-07
2796.54	9.13452e-08
2805.21	-6.79432e-08
2813.89	-1.12233e-07
2822.57	-1.49932e-07
2831.25	-1.42307e-07
2839.93	-2.43587e-08
2848.6	8.17996e-08
2857.28	2.04954e-07
2865.96	6.80341e-07
2874.64	1.71943e-06
2883.32	4.84966e-06
2892	1.18757e-05
2900.67	2.67781e-05
2909.35	3.34644e-05
2918.03	3.62893e-05
2926.71	2.98078e-05
2935.39	3.2753e-05
2944.06	4.43278e-05
2952.74	5.40771e-05
2961.42	4.74623e-05
2970.1	3.63618e-05
2978.78	5.51131e-05
2987.45	6.85767e-05
2996.13	6.64392e-05
3004.81	6.77835e-05
3013.49	9.13831e-05
3022.17	0.000119886
3030.85	0.000127755
3039.52	0.000117423
3048.2	6.0684e-05
3056.88	4.05157e-05
3065.56	0.00172413
3074.24	2.99802e-05
3082.91	6.10023e-05
3091.59	5.35639e-05
3100.27	6.71188e-05
3108.95	4.21093e-05
3117.63	1.91734e-05
3126.31	8.53046e-06
3134.98	3.39264e-06
3143.66	1.14232e-06
3152.34	5.4619e-07
3161.02	1.40801e-07
3169.7	3.33368e-08
3178.37	-6.46037e-08
3187.05	1.48459e-08
3195.73	-4.70186e-08
3204.41	3.45154e-08
3213.09	-9.05776e-08
3221.77	-5.72153e-08
3230.44	-1.86776e-07
3239.12	-1.78398e-07
3247.8	-1.34711e-07
3256.48	-4.00558e-08
3265.16	-1.2932e-07
3273.83	-1.70289e-07
3282.51	-3.62925e-07
3291.19	-2.50393e-07
3299.87	-3.06834e-07
3308.55	-2.47814e-07
3317.22	-3.27293e-07
3325.9	-2.00432e-07
3334.58	-1.14944e-07
3343.26	-1.22165e-07
3351.94	-2.06991e-09
3360.62	-1.99788e-08
3369.29	-5.10201e-08
3377.97	-5.07619e-08
3386.65	-1.96227e-07
3395.33	-1.04707e-07
3404.01	-1.57877e-07
3412.68	-2.14208e-07
3421.36	-1.24096e-07
3430.04	-4.93613e-08
3438.72	-2.14976e-07
3447.4	-1.01884e-07
3456.08	-8.17959e-08
3464.75	-2.22666e-07
3473.43	-4.52324e-08
3482.11	-1.40605e-07
3490.79	-2.6226e-07
3499.47	-6.20827e-08
3508.14	-1.79391e-07
3516.82	-5.22097e-08
3525.5	-2.25245e-07
3534.18	-1.13543e-07
3542.86	-8.45716e-08
3551.53	-1.72363e-07
3560.21	-1.02724e-07
3568.89	-7.51024e-08
3577.57	-1.76248e-07
3586.25	-2.6561e-07
3594.93	-2.14143e-07
3603.6	-1.71137e-07
3612.28	-5.56765e-08
3620.96	-8.13048e-08
3629.64	4.2937e-08
3638.32	-8.37931e-08
3646.99	-1.35708e-07
3655.67	-1.99115e-07
3664.35	-1.49415e-07
3673.03	-2.23357e-07
3681.71	-4.23804e-08
3690.39	1.43588e-07
3699.06	1.61267e-07
3707.74	3.77316e-07
3716.42	5.05752e-07
3725.1	4.16317e-06
3733.78	7.96074e-07
3742.45	1.94315e-06
3751.13	1.34009e-06
3759.81	1.259e-06
3768.49	2.45642e-06
3777.17	1.20892e-06
3785.85	1.34032e-06
3794.52	1.54602e-06
3803.2	2.24349e-06
3811.88	3.06388e-06
3820.56	2.47553e-06
3829.24	5.27219e-06
3837.91	3.34875e-06
3846.59	4.56662e-06
3855.27	3.63451e-06
3863.95	4.06793e-06
3872.63	5.92826e-06
3881.3	1.4372e-06
3889.98	1.36744e-06
3898.66	1.95245e-06
3907.34	1.53846e-06
3916.02	7.70977e-07
3924.7	3.47341e-07
3933.37	3.09639e-07
3942.05	6.65335e-07
3950.73	-3.75166e-08
3959.41	4.19802e-08
3968.09	1.12175e-07
