Infrared Spectrum: 1,2-Epoxyethane
Formula: C2 H4 O
CAS: 75-21-8
State: gas
Melting point: -111 C
Boiling point: 13.5 C
Class: IUPAC A
Instrument: IFS66V (Bruker)
Instrument parameters: KBr Beam splitter; MCT Detector; Multipass cell
Sampling: 1 L/min Flow
Resolution: 0.4820
Temperature: 23 C
Pressure: 101.3 kPa
Origin: NIST, Anayltical Chemistry Division, 301-975-3108
cm-1	(micromol/mol)-1m-1 (base 10)
574.928	-7.57299e-07
583.606	-3.27791e-07
592.284	-1.64454e-07
600.962	-7.06897e-08
609.641	-2.73439e-07
618.319	-1.26061e-07
626.997	-1.35992e-07
635.675	-4.798e-07
644.353	-8.8384e-08
653.031	-1.32867e-07
661.71	-1.58459e-07
670.388	-1.90024e-07
679.066	-1.38862e-07
687.744	-2.56669e-07
696.422	-2.31244e-07
705.1	-1.20429e-07
713.778	-9.85407e-08
722.457	-1.27814e-07
731.135	-7.3971e-08
739.813	5.1926e-08
748.491	1.97107e-07
757.169	4.74209e-07
765.847	8.20902e-07
774.526	1.74268e-06
783.204	4.26627e-06
791.882	7.68043e-06
800.56	1.26861e-05
809.238	2.24674e-05
817.916	2.20009e-05
826.594	2.51973e-05
835.273	9.11478e-05
843.951	0.000113483
852.629	0.000162316
861.307	0.000162916
869.985	0.000231791
878.663	0.000140539
887.342	0.000127026
896.02	0.000135755
904.698	0.000101416
913.376	6.66802e-05
922.054	2.96202e-05
930.732	1.42542e-05
939.41	4.59878e-06
948.089	1.31596e-06
956.767	4.34437e-07
965.445	4.56762e-08
974.123	5.06018e-09
982.801	-1.10247e-07
991.479	-1.61868e-07
1000.16	-9.4008e-08
1008.84	-9.75658e-08
1017.51	-1.3489e-07
1026.19	-1.1311e-07
1034.87	-1.68394e-08
1043.55	6.96711e-08
1052.23	1.60045e-07
1060.9	4.27543e-07
1069.58	8.74633e-07
1078.26	1.09195e-06
1086.94	2.12345e-06
1095.62	2.17815e-06
1104.3	2.89475e-06
1112.97	4.61547e-06
1121.65	6.44166e-06
1130.33	8.11344e-06
1139.01	6.33558e-06
1147.69	4.23856e-06
1156.36	8.19469e-06
1165.04	8.12382e-06
1173.72	7.49534e-06
1182.4	4.27841e-06
1191.08	4.64734e-06
1199.76	2.60523e-06
1208.43	2.57425e-06
1217.11	3.32319e-06
1225.79	7.40025e-06
1234.47	1.44255e-05
1243.15	2.47248e-05
1251.82	3.15017e-05
1260.5	3.41697e-05
1269.18	1.71685e-05
1277.86	3.90274e-05
1286.54	2.97821e-05
1295.21	2.82642e-05
1303.89	1.77371e-05
1312.57	6.78657e-06
1321.25	2.10429e-06
1329.93	5.87868e-07
1338.61	5.99946e-08
1347.28	-5.17259e-08
1355.96	-8.71362e-08
1364.64	-9.63653e-08
1373.32	-1.13245e-07
1382	-2.987e-08
1390.67	-1.48313e-08
1399.35	-6.26284e-08
1408.03	-1.09749e-07
1416.71	-1.01895e-07
1425.39	-3.25838e-08
1434.07	3.52546e-07
1442.74	9.11036e-07
1451.42	1.23397e-06
1460.1	1.14453e-06
1468.78	1.73979e-06
1477.46	2.67545e-06
1486.13	2.78623e-06
1494.81	3.33058e-06
1503.49	3.54377e-06
1512.17	2.34652e-06
1520.85	2.63969e-06
1529.52	1.91489e-06
1538.2	9.12266e-07
1546.88	2.79201e-07
1555.56	2.15685e-08
1564.24	1.2263e-07
1572.92	2.478e-07
1581.59	5.1401e-07
1590.27	1.07954e-06
1598.95	1.28757e-06
1607.63	2.61682e-06
1616.31	3.14583e-06
1624.98	3.75955e-06
1633.66	3.90298e-06
1642.34	1.28256e-05
1651.02	4.58414e-06
1659.7	2.5743e-06
1668.38	1.33461e-06
1677.05	4.12363e-07
1685.73	1.4174e-07
1694.41	-1.25177e-08
1703.09	2.27322e-07
1711.77	6.56354e-07
1720.44	5.60199e-07
1729.12	1.30612e-07
1737.8	3.28719e-07
1746.48	1.00969e-06
1755.16	3.65322e-07
1763.84	2.16536e-07
1772.51	3.78655e-07
1781.19	1.05456e-07
1789.87	-7.87402e-08
1798.55	-5.67242e-08
1807.23	-2.81711e-08
1815.9	7.35345e-08
1824.58	5.536e-08
1833.26	7.35199e-08
1841.94	6.17262e-08
1850.62	9.46956e-08
1859.29	1.63563e-07
1867.97	7.82382e-08
1876.65	-6.62225e-08
1885.33	-2.03026e-08
1894.01	9.9603e-09
1902.69	6.70192e-08
1911.36	1.96034e-07
1920.04	2.34158e-07
1928.72	9.14714e-07
1937.4	6.65594e-07
1946.08	5.18121e-07
1954.75	1.0453e-06
1963.43	8.79991e-07
1972.11	1.06737e-06
1980.79	1.3886e-06
1989.47	1.76899e-06
1998.15	2.30078e-06
2006.82	2.39376e-06
2015.5	2.82343e-06
2024.18	1.07272e-06
2032.86	1.93603e-06
2041.54	1.99697e-06
2050.21	1.37638e-06
2058.89	1.03131e-06
2067.57	9.03146e-07
2076.25	6.68613e-07
2084.93	2.13648e-06
2093.6	8.42263e-07
2102.28	2.12803e-06
2110.96	1.61133e-06
2119.64	1.4252e-06
2128.32	1.13403e-06
2137	8.49455e-07
2145.67	9.17588e-07
2154.35	9.12819e-07
2163.03	8.30255e-07
2171.71	4.71885e-07
2180.39	4.23189e-07
2189.06	4.15037e-07
2197.74	6.15297e-07
2206.42	7.00164e-07
2215.1	9.19745e-07
2223.78	1.68114e-06
2232.46	2.60717e-06
2241.13	3.17437e-06
2249.81	3.76665e-06
2258.49	4.45978e-06
2267.17	2.23345e-06
2275.85	4.06972e-06
2284.52	3.47525e-06
2293.2	2.34832e-06
2301.88	1.68267e-06
2310.56	2.72586e-06
2319.24	1.50234e-06
2327.92	1.42861e-06
2336.59	7.66983e-07
2345.27	4.27769e-07
2353.95	3.79943e-07
2362.63	1.04849e-07
2371.31	2.31702e-07
2379.98	2.72075e-07
2388.66	1.83756e-07
2397.34	1.64538e-07
2406.02	2.31462e-07
2414.7	3.88081e-08
2423.37	4.22239e-08
2432.05	5.75573e-08
2440.73	4.67348e-08
2449.41	5.18241e-08
2458.09	2.69135e-07
2466.77	-2.97718e-08
2475.44	-1.08203e-07
2484.12	-2.26089e-07
2492.8	-3.10803e-07
2501.48	-1.73468e-07
2510.16	-2.10774e-07
2518.83	-2.95204e-07
2527.51	-2.80114e-07
2536.19	-1.70806e-07
2544.87	-3.56159e-07
2553.55	-3.24525e-07
2562.23	-1.25744e-07
2570.9	-2.26708e-08
2579.58	2.35126e-07
2588.26	6.27972e-07
2596.94	6.22897e-07
2605.62	9.95946e-07
2614.29	5.35171e-07
2622.97	1.05124e-06
2631.65	1.16702e-06
2640.33	9.42758e-07
2649.01	4.31589e-07
2657.68	1.64854e-07
2666.36	-7.49823e-08
2675.04	-1.09185e-07
2683.72	-1.65327e-07
2692.4	-1.27741e-07
2701.08	-1.37647e-07
2709.75	4.41192e-08
2718.43	7.91403e-08
2727.11	2.35951e-07
2735.79	2.28941e-07
2744.47	3.93795e-07
2753.14	5.86515e-07
2761.82	3.96698e-07
2770.5	4.24608e-07
2779.18	1.42718e-07
2787.86	1.96408e-07
2796.54	1.00138e-07
2805.21	-4.71059e-08
2813.89	-9.32914e-08
2822.57	-1.26392e-07
2831.25	-1.13441e-07
2839.93	3.20126e-09
2848.6	1.16046e-07
2857.28	2.48662e-07
2865.96	7.27393e-07
2874.64	1.77246e-06
2883.32	4.92558e-06
2892	1.19945e-05
2900.67	2.68226e-05
2909.35	3.35723e-05
2918.03	3.63295e-05
2926.71	3.04271e-05
2935.39	3.32209e-05
2944.06	4.44737e-05
2952.74	5.36107e-05
2961.42	4.75719e-05
2970.1	3.7054e-05
2978.78	5.52832e-05
2987.45	6.87668e-05
2996.13	6.64567e-05
3004.81	7.26513e-05
3013.49	9.10902e-05
3022.17	0.000119288
3030.85	0.000126033
3039.52	0.000115446
3048.2	6.25186e-05
3056.88	4.15277e-05
3065.56	0.00157163
3074.24	3.01577e-05
3082.91	5.98402e-05
3091.59	5.62574e-05
3100.27	6.60494e-05
3108.95	4.17309e-05
3117.63	1.91229e-05
3126.31	8.49584e-06
3134.98	3.38413e-06
3143.66	1.16742e-06
3152.34	5.47951e-07
3161.02	1.47982e-07
3169.7	4.02159e-08
3178.37	-5.84704e-08
3187.05	8.77801e-09
3195.73	-5.31846e-08
3204.41	1.95677e-08
3213.09	-9.204e-08
3221.77	-5.72481e-08
3230.44	-1.90854e-07
3239.12	-1.81988e-07
3247.8	-1.40394e-07
3256.48	-5.42578e-08
3265.16	-1.40463e-07
3273.83	-1.74607e-07
3282.51	-3.61052e-07
3291.19	-2.50655e-07
3299.87	-3.0161e-07
3308.55	-2.51376e-07
3317.22	-3.18449e-07
3325.9	-2.00115e-07
3334.58	-1.21342e-07
3343.26	-1.32529e-07
3351.94	-1.68503e-08
3360.62	-2.54137e-08
3369.29	-6.81433e-08
3377.97	-6.01474e-08
3386.65	-1.96576e-07
3395.33	-1.13136e-07
3404.01	-1.62937e-07
3412.68	-2.04055e-07
3421.36	-1.25933e-07
3430.04	-5.51236e-08
3438.72	-2.14325e-07
3447.4	-1.08872e-07
3456.08	-9.60197e-08
3464.75	-2.25791e-07
3473.43	-5.14785e-08
3482.11	-1.42151e-07
3490.79	-2.50408e-07
3499.47	-7.46658e-08
3508.14	-1.76117e-07
3516.82	-6.25229e-08
3525.5	-2.25838e-07
3534.18	-1.23529e-07
3542.86	-9.45501e-08
3551.53	-1.75862e-07
3560.21	-1.18985e-07
3568.89	-8.91079e-08
3577.57	-1.81985e-07
3586.25	-2.52452e-07
3594.93	-2.05543e-07
3603.6	-1.70918e-07
3612.28	-7.29452e-08
3620.96	-8.63214e-08
3629.64	2.63377e-08
3638.32	-8.79293e-08
3646.99	-1.3872e-07
3655.67	-1.92658e-07
3664.35	-1.52016e-07
3673.03	-2.10272e-07
3681.71	-4.0998e-08
3690.39	1.42478e-07
3699.06	1.64014e-07
3707.74	3.73653e-07
3716.42	5.09383e-07
3725.1	3.90731e-06
3733.78	8.01556e-07
3742.45	1.8847e-06
3751.13	1.33452e-06
3759.81	1.27316e-06
3768.49	2.41724e-06
3777.17	1.22274e-06
3785.85	1.36015e-06
3794.52	1.56485e-06
3803.2	2.24876e-06
3811.88	3.05162e-06
3820.56	2.47542e-06
3829.24	5.20488e-06
3837.91	3.34105e-06
3846.59	4.53928e-06
3855.27	3.63729e-06
3863.95	4.03996e-06
3872.63	5.78404e-06
3881.3	1.45174e-06
3889.98	1.38533e-06
3898.66	1.92899e-06
3907.34	1.52284e-06
3916.02	7.76849e-07
3924.7	3.4689e-07
3933.37	3.13557e-07
3942.05	6.54258e-07
3950.73	-3.03283e-08
3959.41	4.43666e-08
3968.09	1.00029e-07
