Infrared Spectrum: 1,2-Epoxyethane
Formula: C2 H4 O
CAS: 75-21-8
State: gas
Melting point: -111 C
Boiling point: 13.5 C
Class: IUPAC A
Instrument: IFS66V (Bruker)
Instrument parameters: KBr Beam splitter; MCT Detector; Multipass cell
Sampling: 1 L/min Flow
Resolution: 0.2410
Temperature: 23 C
Pressure: 101.3 kPa
Origin: NIST, Anayltical Chemistry Division, 301-975-3108
cm-1	(micromol/mol)-1m-1 (base 10)
575.048	-4.93235e-07
583.606	-6.04533e-07
592.163	1.60791e-08
600.721	-1.20349e-07
609.279	-6.5221e-07
617.836	-2.88368e-07
626.394	-2.34613e-07
634.951	1.83454e-08
643.509	-4.66311e-07
652.067	-1.69511e-07
660.624	-2.23179e-08
669.182	-1.15729e-07
677.74	5.75791e-08
686.297	-2.66225e-07
694.855	-2.03895e-07
703.412	-1.59798e-07
711.97	-1.4385e-07
720.528	-2.38709e-07
729.085	-7.67758e-08
737.643	9.56014e-08
746.201	-1.95495e-08
754.758	1.59652e-07
763.316	6.88468e-07
771.873	1.36883e-06
780.431	3.82171e-06
788.989	6.28569e-06
797.546	1.14325e-05
806.104	1.6207e-05
814.662	2.8717e-05
823.219	1.61484e-05
831.777	5.19703e-05
840.334	0.000135057
848.892	0.00013585
857.45	0.00019045
866.007	0.000125346
874.565	0.00016183
883.123	0.000182933
891.68	0.000118189
900.238	0.000116851
908.795	9.51872e-05
917.353	5.57188e-05
925.911	2.19899e-05
934.468	7.38469e-06
943.026	2.77745e-06
951.584	9.24434e-07
960.141	1.81319e-07
968.699	-1.8527e-07
977.256	-4.47449e-09
985.814	-2.39564e-07
994.372	-1.60671e-07
1002.93	-2.33096e-07
1011.49	-5.21915e-08
1020.04	-1.94448e-07
1028.6	-4.92485e-08
1037.16	-1.54388e-08
1045.72	8.10866e-08
1054.28	2.35668e-07
1062.83	3.27598e-07
1071.39	7.20801e-07
1079.95	1.85252e-06
1088.51	1.61015e-06
1097.06	2.29591e-06
1105.62	3.01508e-06
1114.18	5.42456e-06
1122.74	5.60819e-06
1131.29	9.5832e-06
1139.85	6.72423e-06
1148.41	3.53823e-06
1156.97	6.41131e-06
1165.52	8.21747e-06
1174.08	7.81392e-06
1182.64	4.23396e-06
1191.2	4.46481e-06
1199.75	2.65291e-06
1208.31	2.7647e-06
1216.87	3.18665e-06
1225.43	7.09614e-06
1233.99	1.41572e-05
1242.54	2.56369e-05
1251.1	3.17966e-05
1259.66	3.13507e-05
1268.22	3.10432e-05
1276.77	4.52678e-05
1285.33	3.54764e-05
1293.89	3.31001e-05
1302.45	2.1594e-05
1311	6.75346e-06
1319.56	2.59116e-06
1328.12	7.691e-07
1336.68	9.63762e-08
1345.23	-3.10886e-08
1353.79	-1.20851e-07
1362.35	-1.07108e-07
1370.91	-8.34839e-08
1379.46	-9.08213e-08
1388.02	-5.54146e-08
1396.58	-6.49966e-08
1405.14	-3.74584e-08
1413.7	-1.3561e-07
1422.25	-8.75e-08
1430.81	1.63817e-07
1439.37	6.55793e-07
1447.93	1.34544e-06
1456.48	1.33604e-06
1465.04	1.45213e-06
1473.6	2.28747e-06
1482.16	2.41333e-06
1490.71	3.71623e-06
1499.27	2.01665e-06
1507.83	2.77368e-06
1516.39	2.97729e-06
1524.94	2.42025e-06
1533.5	1.3611e-06
1542.06	5.94147e-07
1550.62	9.33314e-08
1559.18	3.54831e-08
1567.73	1.65371e-07
1576.29	5.66442e-07
1584.85	5.30951e-07
1593.41	1.21974e-06
1601.96	2.97281e-06
1610.52	2.02784e-06
1619.08	3.34503e-06
1627.64	2.937e-06
1636.19	4.12122e-06
1644.75	4.67737e-06
1653.31	4.20806e-06
1661.87	2.43194e-06
1670.42	1.42972e-06
1678.98	2.02178e-07
1687.54	-1.22292e-07
1696.1	1.69656e-07
1704.65	2.0244e-07
1713.21	5.16775e-07
1721.77	5.56223e-07
1730.33	1.58637e-07
1738.89	1.44035e-07
1747.44	8.68437e-07
1756	4.21239e-07
1764.56	2.68724e-07
1773.12	2.02385e-07
1781.67	1.21277e-07
1790.23	-8.73181e-08
1798.79	-3.83351e-08
1807.35	-7.67576e-10
1815.9	5.55237e-08
1824.46	8.79402e-08
1833.02	7.1039e-08
1841.58	4.82627e-08
1850.13	4.4905e-08
1858.69	1.33114e-07
1867.25	5.38176e-08
1875.81	-1.4704e-08
1884.36	-3.09249e-08
1892.92	5.96781e-08
1901.48	1.85069e-07
1910.04	1.68947e-07
1918.6	2.34434e-07
1927.15	6.5587e-07
1935.71	1.09862e-06
1944.27	6.01034e-07
1952.83	8.18698e-07
1961.38	1.51164e-06
1969.94	1.14205e-06
1978.5	1.40333e-06
1987.06	1.53715e-06
1995.61	2.4502e-06
2004.17	2.38909e-06
2012.73	3.61207e-06
2021.29	1.16334e-06
2029.84	1.84826e-06
2038.4	2.31183e-06
2046.96	1.49881e-06
2055.52	1.05345e-06
2064.08	9.61172e-07
2072.63	1.25905e-06
2081.19	1.18038e-06
2089.75	8.68798e-07
2098.31	1.96838e-06
2106.86	1.5879e-06
2115.42	1.58997e-06
2123.98	1.17928e-06
2132.54	1.10039e-06
2141.09	1.35168e-06
2149.65	7.64225e-07
2158.21	1.19733e-06
2166.77	8.1841e-07
2175.32	3.69251e-07
2183.88	3.06539e-07
2192.44	5.23945e-07
2201	5.94169e-07
2209.55	7.66492e-07
2218.11	1.25542e-06
2226.67	1.68057e-06
2235.23	2.74521e-06
2243.79	3.76932e-06
2252.34	3.79624e-06
2260.9	2.65806e-06
2269.46	3.84978e-06
2278.02	3.68734e-06
2286.57	2.73165e-06
2295.13	2.13202e-06
2303.69	1.52105e-06
2312.25	1.33861e-06
2320.8	1.41104e-06
2329.36	1.46685e-06
2337.92	6.1887e-07
2346.48	4.12454e-07
2355.03	2.34936e-07
2363.59	2.65381e-07
2372.15	2.62365e-07
2380.71	4.05717e-07
2389.26	1.54432e-07
2397.82	2.43569e-07
2406.38	1.47185e-07
2414.94	2.38858e-08
2423.5	6.09513e-08
2432.05	5.58948e-08
2440.61	7.11445e-08
2449.17	8.519e-08
2457.73	2.63628e-07
2466.28	-4.71968e-08
2474.84	-2.12229e-07
2483.4	-2.09559e-07
2491.96	-2.4e-07
2500.51	-1.99828e-07
2509.07	-2.09428e-07
2517.63	-2.20847e-07
2526.19	-2.83301e-07
2534.74	-4.47337e-07
2543.3	-2.74181e-07
2551.86	-2.58287e-07
2560.42	-9.8417e-08
2568.98	-4.40319e-08
2577.53	6.54731e-08
2586.09	4.93097e-07
2594.65	5.20122e-07
2603.21	9.65872e-07
2611.76	1.6038e-06
2620.32	1.60606e-06
2628.88	1.13733e-06
2637.44	1.30614e-06
2645.99	4.63696e-07
2654.55	1.21892e-07
2663.11	-5.49526e-08
2671.67	-9.11196e-08
2680.22	-1.72559e-07
2688.78	-1.59372e-07
2697.34	-6.4651e-08
2705.9	-5.41996e-08
2714.45	7.86347e-08
2723.01	9.83115e-08
2731.57	2.52023e-07
2740.13	4.20864e-07
2748.69	3.85389e-07
2757.24	4.55234e-07
2765.8	5.92099e-07
2774.36	2.08453e-07
2782.92	1.50361e-07
2791.47	6.12496e-08
2800.03	1.47404e-08
2808.59	-9.38116e-08
2817.15	-1.70162e-07
2825.7	-1.35268e-07
2834.26	-1.30964e-07
2842.82	-2.22488e-08
2851.38	1.54534e-07
2859.93	2.59666e-07
2868.49	9.24772e-07
2877.05	2.25773e-06
2885.61	7.16617e-06
2894.16	1.79115e-05
2902.72	3.16432e-05
2911.28	3.6142e-05
2919.84	3.67154e-05
2928.4	2.77555e-05
2936.95	3.3832e-05
2945.51	4.70893e-05
2954.07	4.63473e-05
2962.63	4.76529e-05
2971.18	4.5547e-05
2979.74	5.54068e-05
2988.3	6.88194e-05
2996.86	6.7634e-05
3005.41	0.000123265
3013.97	8.21782e-05
3022.53	0.000111593
3031.09	0.000157269
3039.64	0.000107232
3048.2	6.05948e-05
3056.76	5.01522e-05
3065.32	0.000888768
3073.88	4.16215e-05
3082.43	4.34953e-05
3090.99	0.000105091
3099.55	5.50896e-05
3108.11	4.14999e-05
3116.66	1.73518e-05
3125.22	7.11348e-06
3133.78	3.38789e-06
3142.34	1.40381e-06
3150.89	4.78862e-07
3159.45	1.28349e-07
3168.01	7.47204e-09
3176.57	-2.91497e-08
3185.12	-1.23238e-07
3193.68	-1.02877e-08
3202.24	-2.28367e-07
3210.8	-9.99704e-08
3219.35	-2.25456e-07
3227.91	-1.01058e-07
3236.47	-2.25904e-07
3245.03	-2.66851e-07
3253.59	-7.40511e-08
3262.14	-2.32557e-07
3270.7	-4.19209e-07
3279.26	-1.47615e-07
3287.82	-1.94244e-07
3296.37	-2.14346e-07
3304.93	-4.18201e-08
3313.49	-9.12033e-08
3322.05	-2.3844e-07
3330.6	-2.22648e-07
3339.16	-1.97278e-08
3347.72	-1.0976e-07
3356.28	-1.08683e-07
3364.83	-1.08836e-07
3373.39	-2.68491e-07
3381.95	-3.3893e-07
3390.51	-2.26715e-07
3399.06	-2.08148e-07
3407.62	-9.48884e-08
3416.18	-5.65096e-08
3424.74	-2.94785e-07
3433.3	-2.01239e-07
3441.85	-6.59097e-08
3450.41	-1.59459e-07
3458.97	-9.59615e-08
3467.53	-8.58193e-08
3476.08	-2.32179e-07
3484.64	-1.77368e-07
3493.2	-6.36688e-08
3501.76	1.31277e-07
3510.31	-3.11618e-07
3518.87	-1.84698e-07
3527.43	-1.79027e-07
3535.99	-8.13885e-08
3544.54	-1.79402e-07
3553.1	-2.50553e-07
3561.66	-2.92745e-07
3570.22	-1.77124e-07
3578.78	-2.12335e-07
3587.33	-1.05194e-07
3595.89	-8.72708e-08
3604.45	-2.23365e-07
3613.01	-2.98114e-07
3621.56	1.48895e-08
3630.12	-1.24151e-07
3638.68	-1.37203e-07
3647.24	-7.74742e-08
3655.79	-1.83836e-07
3664.35	-1.74509e-07
3672.91	-3.09268e-07
3681.47	-2.94407e-08
3690.02	2.53562e-07
3698.58	1.1275e-07
3707.14	2.18144e-07
3715.7	6.40104e-07
3724.25	2.04788e-06
3732.81	7.26942e-07
3741.37	1.39746e-06
3749.93	1.03777e-06
3758.49	1.3012e-06
3767.04	1.87403e-06
3775.6	1.31764e-06
3784.16	1.53805e-06
3792.72	1.81231e-06
3801.27	2.11891e-06
3809.83	2.50814e-06
3818.39	2.02125e-06
3826.95	3.52846e-06
3835.5	3.45513e-06
3844.06	4.00205e-06
3852.62	3.77779e-06
3861.18	3.67652e-06
3869.73	5.25966e-06
3878.29	1.62462e-06
3886.85	1.32053e-06
3895.41	1.60689e-06
3903.96	1.94995e-06
3912.52	1.25302e-06
3921.08	4.09096e-07
3929.64	7.77307e-07
3938.2	3.02865e-07
3946.75	3.82507e-07
3955.31	6.51774e-07
3963.87	3.63562e-08
3972.43	-9.61689e-08
