Infrared Spectrum: 1,2-Epoxyethane
Formula: C2 H4 O
CAS: 75-21-8
State: gas
Melting point: -111 C
Boiling point: 13.5 C
Class: IUPAC A
Instrument: IFS66V (Bruker)
Instrument parameters: KBr Beam splitter; MCT Detector; Multipass cell
Sampling: 1 L/min Flow
Resolution: 0.9640
Temperature: 23 C
Pressure: 101.3 kPa
Origin: NIST, Anayltical Chemistry Division, 301-975-3108
cm-1	(micromol/mol)-1m-1 (base 10)
575.169	-5.29756e-07
583.847	-1.78744e-07
592.525	-1.53415e-07
601.203	1.87519e-08
609.882	-2.3964e-07
618.56	-1.71865e-07
627.238	-1.15749e-07
635.916	-3.46887e-07
644.594	-1.78618e-07
653.272	-1.85332e-07
661.951	-2.118e-07
670.629	-1.66995e-07
679.307	-1.56847e-07
687.985	-1.48622e-07
696.663	-2.11313e-07
705.341	-2.53497e-07
714.019	-1.41657e-07
722.698	-1.31034e-07
731.376	-9.75228e-08
740.054	-4.79847e-09
748.732	1.9866e-07
757.41	4.27238e-07
766.088	7.65236e-07
774.767	1.68125e-06
783.445	3.78293e-06
792.123	7.57762e-06
800.801	1.25357e-05
809.479	2.2781e-05
818.157	2.3917e-05
826.835	2.50128e-05
835.514	9.39158e-05
844.192	0.000115073
852.87	0.000162678
861.548	0.000167111
870.226	0.000242216
878.904	0.000159812
887.583	0.000129499
896.261	0.000127264
904.939	0.000107318
913.617	6.41188e-05
922.295	3.23863e-05
930.973	1.3833e-05
939.651	4.4065e-06
948.33	1.34647e-06
957.008	3.01636e-07
965.686	-2.90455e-08
974.364	-6.96906e-08
983.042	-1.63263e-07
991.72	-1.54712e-07
1000.4	-1.22088e-07
1009.08	-1.14776e-07
1017.75	-1.37984e-07
1026.43	-1.10892e-07
1035.11	-5.53152e-08
1043.79	4.74917e-08
1052.47	1.66016e-07
1061.15	4.24495e-07
1069.82	7.89321e-07
1078.5	1.17768e-06
1087.18	1.76997e-06
1095.86	2.2968e-06
1104.54	3.03134e-06
1113.21	4.66259e-06
1121.89	6.59669e-06
1130.57	8.1203e-06
1139.25	6.15975e-06
1147.93	3.71566e-06
1156.61	7.39209e-06
1165.28	8.52483e-06
1173.96	7.5746e-06
1182.64	4.92084e-06
1191.32	3.88987e-06
1200	2.58615e-06
1208.67	2.37959e-06
1217.35	3.35716e-06
1226.03	7.42017e-06
1234.71	1.57576e-05
1243.39	2.58928e-05
1252.07	3.04516e-05
1260.74	3.3449e-05
1269.42	1.33034e-05
1278.1	3.72616e-05
1286.78	3.25029e-05
1295.46	2.91415e-05
1304.13	1.64149e-05
1312.81	6.43164e-06
1321.49	2.14856e-06
1330.17	5.93972e-07
1338.85	4.20785e-08
1347.52	-6.26821e-08
1356.2	-1.21215e-07
1364.88	-9.21859e-08
1373.56	-1.27792e-07
1382.24	-6.65892e-08
1390.92	-6.92267e-08
1399.59	-6.97943e-08
1408.27	-1.18596e-07
1416.95	-9.53909e-08
1425.63	-8.05262e-09
1434.31	3.10525e-07
1442.98	8.86713e-07
1451.66	1.22146e-06
1460.34	1.15275e-06
1469.02	1.85786e-06
1477.7	2.65928e-06
1486.38	2.73542e-06
1495.05	3.15617e-06
1503.73	3.50954e-06
1512.41	2.52689e-06
1521.09	2.77168e-06
1529.77	1.85904e-06
1538.44	8.45822e-07
1547.12	2.27523e-07
1555.8	5.56317e-08
1564.48	9.53728e-08
1573.16	3.12775e-07
1581.83	5.80469e-07
1590.51	9.76026e-07
1599.19	1.62975e-06
1607.87	2.53883e-06
1616.55	3.21952e-06
1625.23	4.39024e-06
1633.9	4.14534e-06
1642.58	1.28984e-05
1651.26	4.77929e-06
1659.94	2.62901e-06
1668.62	1.4841e-06
1677.29	4.01403e-07
1685.97	1.09292e-07
1694.65	-1.88283e-08
1703.33	2.5234e-07
1712.01	7.33362e-07
1720.69	5.01353e-07
1729.36	1.71646e-07
1738.04	2.87859e-07
1746.72	1.0046e-06
1755.4	3.86053e-07
1764.08	2.42072e-07
1772.75	3.22843e-07
1781.43	1.09384e-07
1790.11	-5.63702e-08
1798.79	-6.73677e-08
1807.47	-3.50736e-08
1816.15	9.77374e-08
1824.82	6.07939e-08
1833.5	6.35333e-08
1842.18	2.55894e-08
1850.86	1.10183e-07
1859.54	1.51146e-07
1868.21	7.84253e-08
1876.89	-6.95669e-08
1885.57	-3.1874e-08
1894.25	-2.60096e-08
1902.93	1.27396e-07
1911.6	1.74866e-07
1920.28	2.05547e-07
1928.96	1.00729e-06
1937.64	5.3569e-07
1946.32	4.95592e-07
1955	1.02083e-06
1963.67	9.83697e-07
1972.35	1.14201e-06
1981.03	1.32333e-06
1989.71	1.7933e-06
1998.39	2.58894e-06
2007.06	2.44973e-06
2015.74	2.60903e-06
2024.42	1.18465e-06
2033.1	2.02647e-06
2041.78	2.02585e-06
2050.46	1.38518e-06
2059.13	1.08195e-06
2067.81	8.56489e-07
2076.49	6.93624e-07
2085.17	1.56675e-06
2093.85	9.01763e-07
2102.52	1.9924e-06
2111.2	1.6894e-06
2119.88	1.3784e-06
2128.56	1.18311e-06
2137.24	9.23996e-07
2145.91	9.37324e-07
2154.59	9.24278e-07
2163.27	8.20491e-07
2171.95	4.48933e-07
2180.63	4.053e-07
2189.31	4.69575e-07
2197.98	5.80762e-07
2206.66	6.76473e-07
2215.34	9.46952e-07
2224.02	1.73173e-06
2232.7	2.67661e-06
2241.37	3.44165e-06
2250.05	3.86108e-06
2258.73	4.26228e-06
2267.41	2.31997e-06
2276.09	3.9633e-06
2284.77	3.4352e-06
2293.44	2.26009e-06
2302.12	1.62776e-06
2310.8	2.98605e-06
2319.48	1.5434e-06
2328.16	1.36332e-06
2336.83	7.80719e-07
2345.51	3.90566e-07
2354.19	2.48822e-07
2362.87	1.65534e-07
2371.55	2.46213e-07
2380.23	2.91331e-07
2388.9	1.95649e-07
2397.58	1.85869e-07
2406.26	2.18192e-07
2414.94	2.36795e-08
2423.62	7.45e-08
2432.29	6.58835e-08
2440.97	5.74725e-08
2449.65	7.56896e-08
2458.33	2.58182e-07
2467.01	-3.4677e-08
2475.68	-1.01894e-07
2484.36	-2.13916e-07
2493.04	-2.99952e-07
2501.72	-1.663e-07
2510.4	-2.38759e-07
2519.08	-2.67932e-07
2527.75	-2.63183e-07
2536.43	-1.63826e-07
2545.11	-3.40539e-07
2553.79	-3.12486e-07
2562.47	-1.18052e-07
2571.14	3.21232e-08
2579.82	2.10545e-07
2588.5	5.90224e-07
2597.18	7.31346e-07
2605.86	9.72554e-07
2614.54	4.64824e-07
2623.21	1.09145e-06
2631.89	1.28352e-06
2640.57	9.30581e-07
2649.25	4.30747e-07
2657.93	1.34945e-07
2666.6	-6.02173e-08
2675.28	-8.89045e-08
2683.96	-1.29386e-07
2692.64	-1.0655e-07
2701.32	-1.05099e-07
2709.99	7.9524e-08
2718.67	9.93891e-08
2727.35	2.22843e-07
2736.03	2.88074e-07
2744.71	3.98671e-07
2753.39	6.23084e-07
2762.06	3.91019e-07
2770.74	4.30114e-07
2779.42	2.01756e-07
2788.1	1.56001e-07
2796.78	1.05612e-07
2805.45	-3.82968e-08
2814.13	-1.01303e-07
2822.81	-8.16595e-08
2831.49	-1.13393e-07
2840.17	4.58383e-10
2848.85	1.39425e-07
2857.52	2.27418e-07
2866.2	7.27514e-07
2874.88	1.78663e-06
2883.56	4.92225e-06
2892.24	1.33696e-05
2900.91	2.69706e-05
2909.59	3.64547e-05
2918.27	3.74803e-05
2926.95	2.85992e-05
2935.63	3.35273e-05
2944.31	4.55684e-05
2952.98	5.2218e-05
2961.66	4.94705e-05
2970.34	3.86874e-05
2979.02	5.80458e-05
2987.7	7.09074e-05
2996.37	6.58436e-05
3005.05	9.20394e-05
3013.73	8.67342e-05
3022.41	0.000116792
3031.09	0.000131139
3039.76	0.000104374
3048.44	7.34684e-05
3057.12	3.47371e-05
3065.8	0.00174703
3074.48	2.44103e-05
3083.16	6.1527e-05
3091.83	6.39371e-05
3100.51	5.76918e-05
3109.19	4.0238e-05
3117.87	1.83847e-05
3126.55	7.52271e-06
3135.22	2.81358e-06
3143.9	1.02247e-06
3152.58	3.75452e-07
3161.26	5.05185e-08
3169.94	-1.13322e-08
3178.62	-1.22496e-07
3187.29	-1.03393e-07
3195.97	-2.77849e-08
3204.65	-9.18276e-08
3213.33	-1.40724e-07
3222.01	-2.30623e-07
3230.68	-1.97463e-07
3239.36	-2.12077e-07
3248.04	-1.56583e-07
3256.72	-1.24506e-07
3265.4	-2.04506e-07
3274.07	-2.42874e-07
3282.75	-3.49106e-07
3291.43	-2.99071e-07
3300.11	-3.09028e-07
3308.79	-2.71828e-07
3317.47	-2.64687e-07
3326.14	-1.40121e-07
3334.82	-1.492e-07
3343.5	-1.81552e-07
3352.18	-1.42757e-07
3360.86	-1.2971e-07
3369.53	-9.68188e-08
3378.21	-1.62617e-07
3386.89	-2.07722e-07
3395.57	-2.22136e-07
3404.25	-1.88608e-07
3412.93	-1.5613e-07
3421.6	-9.84741e-08
3430.28	-5.27759e-08
3438.96	-2.28329e-07
3447.64	-1.66639e-07
3456.32	-1.50861e-07
3464.99	-2.10396e-07
3473.67	-2.66772e-08
3482.35	-1.41398e-07
3491.03	-2.17779e-07
3499.71	-1.35361e-07
3508.39	-1.78102e-07
3517.06	-1.25648e-07
3525.74	-2.43603e-07
3534.42	-1.42826e-07
3543.1	-1.43465e-07
3551.78	-1.9934e-07
3560.45	-1.18819e-07
3569.13	-2.29784e-07
3577.81	-1.80617e-07
3586.49	-2.16415e-07
3595.17	-1.40271e-07
3603.84	-1.92179e-07
3612.52	-1.18236e-07
3621.2	-1.07282e-07
3629.88	-7.67555e-08
3638.56	-1.04724e-07
3647.24	-1.38363e-07
3655.91	-1.57216e-07
3664.59	-1.64685e-07
3673.27	-1.67683e-07
3681.95	-4.81848e-09
3690.63	1.28096e-07
3699.3	1.93181e-07
3707.98	3.39023e-07
3716.66	4.88171e-07
3725.34	2.4608e-06
3734.02	7.96841e-07
3742.7	1.70558e-06
3751.37	1.39577e-06
3760.05	1.3782e-06
3768.73	2.45706e-06
3777.41	1.27144e-06
3786.09	1.32864e-06
3794.76	1.60112e-06
3803.44	2.22602e-06
3812.12	2.86863e-06
3820.8	2.35846e-06
3829.48	5.42011e-06
3838.16	3.31371e-06
3846.83	4.43616e-06
3855.51	3.60857e-06
3864.19	3.98744e-06
3872.87	5.21414e-06
3881.55	1.37442e-06
3890.22	1.51624e-06
3898.9	1.89848e-06
3907.58	1.48668e-06
3916.26	7.68166e-07
3924.94	3.47338e-07
3933.61	3.04888e-07
3942.29	9.49919e-07
3950.97	6.32878e-08
3959.65	-2.82942e-08
3968.33	5.23866e-08
