Infrared Spectrum: 1,2-Epoxyethane
Formula: C2 H4 O
CAS: 75-21-8
State: gas
Melting point: -111 C
Boiling point: 13.5 C
Class: IUPAC A
Instrument: IFS66V (Bruker)
Instrument parameters: KBr Beam splitter; MCT Detector; Multipass cell
Sampling: 1 L/min Flow
Resolution: 0.2410
Temperature: 23 C
Pressure: 101.3 kPa
Origin: NIST, Anayltical Chemistry Division, 301-975-3108
cm-1	(micromol/mol)-1m-1 (base 10)
575.048	-4.96712e-07
583.606	-5.9215e-07
592.163	2.3733e-08
600.721	-1.25617e-07
609.279	-6.40922e-07
617.836	-2.9301e-07
626.394	-2.40495e-07
634.951	1.81381e-08
643.509	-4.63237e-07
652.067	-1.67695e-07
660.624	-2.19468e-08
669.182	-1.18432e-07
677.74	5.60694e-08
686.297	-2.67193e-07
694.855	-2.02953e-07
703.412	-1.57047e-07
711.97	-1.43999e-07
720.528	-2.36464e-07
729.085	-7.45785e-08
737.643	9.32732e-08
746.201	-1.85782e-08
754.758	1.59812e-07
763.316	6.89454e-07
771.873	1.36717e-06
780.431	3.81106e-06
788.989	6.2827e-06
797.546	1.14398e-05
806.104	1.62178e-05
814.662	2.86974e-05
823.219	1.61613e-05
831.777	5.1979e-05
840.334	0.000134922
848.892	0.000135771
857.45	0.000190446
866.007	0.000125688
874.565	0.000161807
883.123	0.000182926
891.68	0.000118434
900.238	0.00011694
908.795	9.51386e-05
917.353	5.56946e-05
925.911	2.19794e-05
934.468	7.38715e-06
943.026	2.77924e-06
951.584	9.24882e-07
960.141	1.80941e-07
968.699	-1.83331e-07
977.256	-5.71862e-09
985.814	-2.36988e-07
994.372	-1.61056e-07
1002.93	-2.33343e-07
1011.49	-5.33447e-08
1020.04	-1.95041e-07
1028.6	-4.96742e-08
1037.16	-1.71522e-08
1045.72	8.28982e-08
1054.28	2.33841e-07
1062.83	3.29767e-07
1071.39	7.22034e-07
1079.95	1.84588e-06
1088.51	1.609e-06
1097.06	2.29369e-06
1105.62	3.01766e-06
1114.18	5.42684e-06
1122.74	5.60551e-06
1131.29	9.58687e-06
1139.85	6.72149e-06
1148.41	3.53899e-06
1156.97	6.41331e-06
1165.52	8.23682e-06
1174.08	7.81254e-06
1182.64	4.24555e-06
1191.2	4.46269e-06
1199.75	2.64915e-06
1208.31	2.75793e-06
1216.87	3.18944e-06
1225.43	7.09161e-06
1233.99	1.41582e-05
1242.54	2.55944e-05
1251.1	3.17367e-05
1259.66	3.13214e-05
1268.22	3.10448e-05
1276.77	4.52246e-05
1285.33	3.54466e-05
1293.89	3.30588e-05
1302.45	2.15539e-05
1311	6.77633e-06
1319.56	2.58745e-06
1328.12	7.69722e-07
1336.68	9.65545e-08
1345.23	-3.07612e-08
1353.79	-1.21812e-07
1362.35	-1.06704e-07
1370.91	-8.34111e-08
1379.46	-9.01956e-08
1388.02	-5.55783e-08
1396.58	-6.53422e-08
1405.14	-3.77495e-08
1413.7	-1.34981e-07
1422.25	-8.81912e-08
1430.81	1.63275e-07
1439.37	6.54939e-07
1447.93	1.34316e-06
1456.48	1.33346e-06
1465.04	1.45121e-06
1473.6	2.28423e-06
1482.16	2.41494e-06
1490.71	3.71091e-06
1499.27	2.01809e-06
1507.83	2.77042e-06
1516.39	2.97165e-06
1524.94	2.42209e-06
1533.5	1.36152e-06
1542.06	5.91401e-07
1550.62	9.27275e-08
1559.18	3.5996e-08
1567.73	1.66797e-07
1576.29	5.64685e-07
1584.85	5.31122e-07
1593.41	1.21976e-06
1601.96	2.96474e-06
1610.52	2.03445e-06
1619.08	3.33996e-06
1627.64	2.9386e-06
1636.19	4.12755e-06
1644.75	4.67358e-06
1653.31	4.20728e-06
1661.87	2.43291e-06
1670.42	1.43146e-06
1678.98	2.02513e-07
1687.54	-1.21357e-07
1696.1	1.69274e-07
1704.65	2.04575e-07
1713.21	5.21319e-07
1721.77	5.55488e-07
1730.33	1.59208e-07
1738.89	1.45243e-07
1747.44	8.6767e-07
1756	4.21788e-07
1764.56	2.68317e-07
1773.12	2.02684e-07
1781.67	1.21633e-07
1790.23	-8.64596e-08
1798.79	-3.77058e-08
1807.35	-1.53879e-09
1815.9	5.58039e-08
1824.46	8.72199e-08
1833.02	7.06715e-08
1841.58	4.89139e-08
1850.13	4.53743e-08
1858.69	1.33453e-07
1867.25	5.38031e-08
1875.81	-1.55298e-08
1884.36	-3.03029e-08
1892.92	6.00564e-08
1901.48	1.84826e-07
1910.04	1.68292e-07
1918.6	2.34976e-07
1927.15	6.54895e-07
1935.71	1.10273e-06
1944.27	6.00801e-07
1952.83	8.19123e-07
1961.38	1.50832e-06
1969.94	1.14196e-06
1978.5	1.40166e-06
1987.06	1.53773e-06
1995.61	2.44853e-06
2004.17	2.39006e-06
2012.73	3.61089e-06
2021.29	1.16458e-06
2029.84	1.84854e-06
2038.4	2.30872e-06
2046.96	1.5006e-06
2055.52	1.05234e-06
2064.08	9.60816e-07
2072.63	1.25838e-06
2081.19	1.18073e-06
2089.75	8.67212e-07
2098.31	1.96864e-06
2106.86	1.58777e-06
2115.42	1.59275e-06
2123.98	1.17917e-06
2132.54	1.10178e-06
2141.09	1.35075e-06
2149.65	7.64789e-07
2158.21	1.1941e-06
2166.77	8.18658e-07
2175.32	3.70666e-07
2183.88	3.05968e-07
2192.44	5.23861e-07
2201	5.93936e-07
2209.55	7.68016e-07
2218.11	1.25562e-06
2226.67	1.68248e-06
2235.23	2.75237e-06
2243.79	3.76745e-06
2252.34	3.79708e-06
2260.9	2.65622e-06
2269.46	3.84873e-06
2278.02	3.69534e-06
2286.57	2.73369e-06
2295.13	2.1341e-06
2303.69	1.521e-06
2312.25	1.34101e-06
2320.8	1.41063e-06
2329.36	1.46637e-06
2337.92	6.17582e-07
2346.48	4.13119e-07
2355.03	2.35082e-07
2363.59	2.64879e-07
2372.15	2.62886e-07
2380.71	4.0401e-07
2389.26	1.55232e-07
2397.82	2.41146e-07
2406.38	1.48048e-07
2414.94	2.3824e-08
2423.5	6.02383e-08
2432.05	5.61058e-08
2440.61	7.02787e-08
2449.17	8.41059e-08
2457.73	2.63475e-07
2466.28	-4.72186e-08
2474.84	-2.12175e-07
2483.4	-2.09417e-07
2491.96	-2.40495e-07
2500.51	-1.99872e-07
2509.07	-2.08966e-07
2517.63	-2.21418e-07
2526.19	-2.83497e-07
2534.74	-4.46358e-07
2543.3	-2.73868e-07
2551.86	-2.58804e-07
2560.42	-9.95157e-08
2568.98	-4.34935e-08
2577.53	6.54986e-08
2586.09	4.91369e-07
2594.65	5.18408e-07
2603.21	9.6489e-07
2611.76	1.60477e-06
2620.32	1.60907e-06
2628.88	1.13466e-06
2637.44	1.30242e-06
2645.99	4.64882e-07
2654.55	1.23343e-07
2663.11	-5.44069e-08
2671.67	-9.14288e-08
2680.22	-1.71915e-07
2688.78	-1.59659e-07
2697.34	-6.6117e-08
2705.9	-5.44833e-08
2714.45	7.82782e-08
2723.01	9.76386e-08
2731.57	2.51932e-07
2740.13	4.24971e-07
2748.69	3.84752e-07
2757.24	4.55518e-07
2765.8	5.91626e-07
2774.36	2.10276e-07
2782.92	1.5023e-07
2791.47	5.97218e-08
2800.03	1.47113e-08
2808.59	-9.30222e-08
2817.15	-1.68863e-07
2825.7	-1.3569e-07
2834.26	-1.30004e-07
2842.82	-2.298e-08
2851.38	1.54537e-07
2859.93	2.60219e-07
2868.49	9.23801e-07
2877.05	2.25617e-06
2885.61	7.15349e-06
2894.16	1.78893e-05
2902.72	3.16416e-05
2911.28	3.61647e-05
2919.84	3.67221e-05
2928.4	2.77891e-05
2936.95	3.38443e-05
2945.51	4.71189e-05
2954.07	4.6494e-05
2962.63	4.76505e-05
2971.18	4.55481e-05
2979.74	5.54472e-05
2988.3	6.88458e-05
2996.86	6.76067e-05
3005.41	0.000123435
3013.97	8.2209e-05
3022.53	0.000111623
3031.09	0.000157003
3039.64	0.000107178
3048.2	6.05931e-05
3056.76	5.0067e-05
3065.32	0.000890716
3073.88	4.14767e-05
3082.43	4.35526e-05
3090.99	0.000104811
3099.55	5.51403e-05
3108.11	4.148e-05
3116.66	1.7388e-05
3125.22	7.1244e-06
3133.78	3.38931e-06
3142.34	1.40024e-06
3150.89	4.80753e-07
3159.45	1.30368e-07
3168.01	7.69031e-09
3176.57	-2.78874e-08
3185.12	-1.23092e-07
3193.68	-1.23394e-08
3202.24	-2.26628e-07
3210.8	-1.03586e-07
3219.35	-2.23743e-07
3227.91	-1.03739e-07
3236.47	-2.25627e-07
3245.03	-2.65785e-07
3253.59	-7.45931e-08
3262.14	-2.31975e-07
3270.7	-4.13956e-07
3279.26	-1.48746e-07
3287.82	-1.94848e-07
3296.37	-2.11556e-07
3304.93	-4.34681e-08
3313.49	-9.33459e-08
3322.05	-2.38385e-07
3330.6	-2.21658e-07
3339.16	-2.03244e-08
3347.72	-1.11466e-07
3356.28	-1.08279e-07
3364.83	-1.09094e-07
3373.39	-2.65985e-07
3381.95	-3.36627e-07
3390.51	-2.29312e-07
3399.06	-2.07926e-07
3407.62	-9.66673e-08
3416.18	-5.83721e-08
3424.74	-2.94873e-07
3433.3	-2.01014e-07
3441.85	-6.83906e-08
3450.41	-1.60729e-07
3458.97	-9.43936e-08
3467.53	-8.19778e-08
3476.08	-2.3275e-07
3484.64	-1.76957e-07
3493.2	-6.42472e-08
3501.76	1.28884e-07
3510.31	-3.09606e-07
3518.87	-1.84182e-07
3527.43	-1.79955e-07
3535.99	-8.22688e-08
3544.54	-1.7982e-07
3553.1	-2.50175e-07
3561.66	-2.90802e-07
3570.22	-1.76804e-07
3578.78	-2.12822e-07
3587.33	-1.05482e-07
3595.89	-8.74272e-08
3604.45	-2.2383e-07
3613.01	-2.95371e-07
3621.56	1.41074e-08
3630.12	-1.26155e-07
3638.68	-1.34795e-07
3647.24	-7.74051e-08
3655.79	-1.83916e-07
3664.35	-1.72203e-07
3672.91	-3.08096e-07
3681.47	-2.79601e-08
3690.02	2.51823e-07
3698.58	1.12797e-07
3707.14	2.19938e-07
3715.7	6.39507e-07
3724.25	2.04954e-06
3732.81	7.28499e-07
3741.37	1.39928e-06
3749.93	1.03838e-06
3758.49	1.30158e-06
3767.04	1.87458e-06
3775.6	1.31725e-06
3784.16	1.53765e-06
3792.72	1.81256e-06
3801.27	2.12069e-06
3809.83	2.51203e-06
3818.39	2.021e-06
3826.95	3.53008e-06
3835.5	3.45739e-06
3844.06	4.00308e-06
3852.62	3.77966e-06
3861.18	3.67353e-06
3869.73	5.25757e-06
3878.29	1.62266e-06
3886.85	1.32315e-06
3895.41	1.60908e-06
3903.96	1.94487e-06
3912.52	1.25316e-06
3921.08	4.09976e-07
3929.64	7.71777e-07
3938.2	2.99937e-07
3946.75	3.82526e-07
3955.31	6.49293e-07
3963.87	3.80732e-08
3972.43	-9.40189e-08
