Infrared Spectrum: 1,2-Epoxyethane
Formula: C2 H4 O
CAS: 75-21-8
State: gas
Melting point: -111 C
Boiling point: 13.5 C
Class: IUPAC A
Instrument: IFS66V (Bruker)
Instrument parameters: KBr Beam splitter; MCT Detector; Multipass cell
Sampling: 1 L/min Flow
Resolution: 0.4820
Temperature: 23 C
Pressure: 101.3 kPa
Origin: NIST, Anayltical Chemistry Division, 301-975-3108
cm-1	(micromol/mol)-1m-1 (base 10)
574.928	-7.88133e-07
583.606	-3.52674e-07
592.284	-1.68787e-07
600.962	-7.83473e-08
609.641	-2.83341e-07
618.319	-1.08694e-07
626.997	-1.23321e-07
635.675	-5.04796e-07
644.353	-8.89842e-08
653.031	-1.37596e-07
661.71	-1.72042e-07
670.388	-1.96718e-07
679.066	-1.4887e-07
687.744	-2.74188e-07
696.422	-2.48695e-07
705.1	-1.3605e-07
713.778	-1.10527e-07
722.457	-1.38276e-07
731.135	-9.98394e-08
739.813	2.98409e-08
748.491	1.79682e-07
757.169	4.44325e-07
765.847	7.79213e-07
774.526	1.6973e-06
783.204	4.25974e-06
791.882	7.63596e-06
800.56	1.25959e-05
809.238	2.22719e-05
817.916	2.1124e-05
826.594	2.47946e-05
835.273	9.11278e-05
843.951	0.000113403
852.629	0.000162085
861.307	0.000162425
869.985	0.00023317
878.663	0.00014182
887.342	0.000126091
896.02	0.000136325
904.698	0.000100563
913.376	6.66798e-05
922.054	2.88545e-05
930.732	1.40933e-05
939.41	4.45766e-06
948.089	1.18738e-06
956.767	3.64162e-07
965.445	-1.01204e-08
974.123	-3.29476e-08
982.801	-1.50092e-07
991.479	-1.95775e-07
1000.16	-1.17385e-07
1008.84	-1.21062e-07
1017.51	-1.59288e-07
1026.19	-1.36236e-07
1034.87	-3.07503e-08
1043.55	5.35302e-08
1052.23	1.44028e-07
1060.9	4.15218e-07
1069.58	8.67943e-07
1078.26	1.05318e-06
1086.94	2.13977e-06
1095.62	2.15951e-06
1104.3	2.86389e-06
1112.97	4.60141e-06
1121.65	6.4842e-06
1130.33	8.00432e-06
1139.01	6.1782e-06
1147.69	3.82928e-06
1156.36	8.17212e-06
1165.04	8.10604e-06
1173.72	7.42215e-06
1182.4	4.16376e-06
1191.08	4.73327e-06
1199.76	2.53538e-06
1208.43	2.53133e-06
1217.11	3.2571e-06
1225.79	7.33756e-06
1234.47	1.43102e-05
1243.15	2.47864e-05
1251.82	3.14042e-05
1260.5	3.45718e-05
1269.18	1.65638e-05
1277.86	3.89722e-05
1286.54	2.9941e-05
1295.21	2.83821e-05
1303.89	1.78294e-05
1312.57	6.77125e-06
1321.25	2.04881e-06
1329.93	5.4846e-07
1338.61	3.52976e-08
1347.28	-6.86453e-08
1355.96	-9.95411e-08
1364.64	-1.05616e-07
1373.32	-1.25537e-07
1382	-3.4701e-08
1390.67	-1.86073e-08
1399.35	-6.62734e-08
1408.03	-1.16017e-07
1416.71	-1.09982e-07
1425.39	-4.33662e-08
1434.07	3.4339e-07
1442.74	9.03171e-07
1451.42	1.23023e-06
1460.1	1.12857e-06
1468.78	1.69862e-06
1477.46	2.67634e-06
1486.13	2.78613e-06
1494.81	3.36933e-06
1503.49	3.57067e-06
1512.17	2.32651e-06
1520.85	2.65263e-06
1529.52	1.91379e-06
1538.2	9.11487e-07
1546.88	2.76265e-07
1555.56	1.27068e-08
1564.24	1.1482e-07
1572.92	2.41434e-07
1581.59	4.91103e-07
1590.27	1.09396e-06
1598.95	1.23912e-06
1607.63	2.66081e-06
1616.31	3.14298e-06
1624.98	3.71228e-06
1633.66	3.90438e-06
1642.34	1.32498e-05
1651.02	4.56716e-06
1659.7	2.57915e-06
1668.38	1.30076e-06
1677.05	3.98681e-07
1685.73	1.44246e-07
1694.41	-1.62973e-08
1703.09	2.18643e-07
1711.77	6.68158e-07
1720.44	5.53822e-07
1729.12	1.20262e-07
1737.8	3.29919e-07
1746.48	1.02866e-06
1755.16	3.5797e-07
1763.84	2.14554e-07
1772.51	3.90332e-07
1781.19	1.0303e-07
1789.87	-8.70671e-08
1798.55	-5.94671e-08
1807.23	-3.34059e-08
1815.9	7.11554e-08
1824.58	5.0278e-08
1833.26	6.56587e-08
1841.94	5.99291e-08
1850.62	9.10796e-08
1859.29	1.60056e-07
1867.97	8.04572e-08
1876.65	-7.22831e-08
1885.33	-2.04081e-08
1894.01	4.29988e-09
1902.69	5.25335e-08
1911.36	1.89642e-07
1920.04	2.25704e-07
1928.72	9.05081e-07
1937.4	6.42937e-07
1946.08	5.11926e-07
1954.75	1.04628e-06
1963.43	8.58892e-07
1972.11	1.05678e-06
1980.79	1.38162e-06
1989.47	1.75319e-06
1998.15	2.31176e-06
2006.82	2.39581e-06
2015.5	2.83573e-06
2024.18	1.04877e-06
2032.86	1.93139e-06
2041.54	2.00273e-06
2050.21	1.36998e-06
2058.89	1.0225e-06
2067.57	8.96492e-07
2076.25	6.32275e-07
2084.93	2.1928e-06
2093.6	8.20859e-07
2102.28	2.13688e-06
2110.96	1.6105e-06
2119.64	1.4362e-06
2128.32	1.12893e-06
2137	8.43708e-07
2145.67	9.09301e-07
2154.35	9.22994e-07
2163.03	8.21841e-07
2171.71	4.32127e-07
2180.39	3.89823e-07
2189.06	4.03105e-07
2197.74	6.08971e-07
2206.42	6.8654e-07
2215.1	9.01239e-07
2223.78	1.67857e-06
2232.46	2.59655e-06
2241.13	3.15814e-06
2249.81	3.77546e-06
2258.49	4.49177e-06
2267.17	2.20093e-06
2275.85	4.06265e-06
2284.52	3.50303e-06
2293.2	2.35197e-06
2301.88	1.64036e-06
2310.56	2.79847e-06
2319.24	1.49878e-06
2327.92	1.4385e-06
2336.59	7.72611e-07
2345.27	4.12668e-07
2353.95	3.79968e-07
2362.63	9.02102e-08
2371.31	2.28614e-07
2379.98	2.58902e-07
2388.66	1.70664e-07
2397.34	1.56287e-07
2406.02	2.26715e-07
2414.7	2.98481e-08
2423.37	3.4992e-08
2432.05	4.71022e-08
2440.73	4.03832e-08
2449.41	4.13254e-08
2458.09	2.75145e-07
2466.77	-3.47992e-08
2475.44	-1.11997e-07
2484.12	-2.32961e-07
2492.8	-3.24965e-07
2501.48	-1.82778e-07
2510.16	-2.17453e-07
2518.83	-3.07045e-07
2527.51	-2.85167e-07
2536.19	-1.74698e-07
2544.87	-3.70863e-07
2553.55	-3.36769e-07
2562.23	-1.29975e-07
2570.9	-3.449e-08
2579.58	2.26035e-07
2588.26	6.3038e-07
2596.94	6.08891e-07
2605.62	9.92523e-07
2614.29	4.88495e-07
2622.97	1.03671e-06
2631.65	1.16761e-06
2640.33	9.3339e-07
2649.01	4.26074e-07
2657.68	1.57688e-07
2666.36	-8.42005e-08
2675.04	-1.19454e-07
2683.72	-1.77481e-07
2692.4	-1.3872e-07
2701.08	-1.54355e-07
2709.75	3.62907e-08
2718.43	6.32977e-08
2727.11	2.27675e-07
2735.79	2.14015e-07
2744.47	3.80416e-07
2753.14	5.78883e-07
2761.82	3.76236e-07
2770.5	4.09296e-07
2779.18	1.22798e-07
2787.86	1.85448e-07
2796.54	8.91479e-08
2805.21	-6.90818e-08
2813.89	-1.14802e-07
2822.57	-1.50609e-07
2831.25	-1.42838e-07
2839.93	-2.64068e-08
2848.6	8.11993e-08
2857.28	2.03619e-07
2865.96	6.79061e-07
2874.64	1.71721e-06
2883.32	4.84659e-06
2892	1.18991e-05
2900.67	2.67646e-05
2909.35	3.35295e-05
2918.03	3.63298e-05
2926.71	2.98023e-05
2935.39	3.27548e-05
2944.06	4.43208e-05
2952.74	5.40988e-05
2961.42	4.74851e-05
2970.1	3.63917e-05
2978.78	5.52039e-05
2987.45	6.86274e-05
2996.13	6.64314e-05
3004.81	6.8014e-05
3013.49	9.12755e-05
3022.17	0.000119806
3030.85	0.000127584
3039.52	0.000117259
3048.2	6.09e-05
3056.88	4.03619e-05
3065.56	0.00171799
3074.24	3.00213e-05
3082.91	6.09259e-05
3091.59	5.38441e-05
3100.27	6.70451e-05
3108.95	4.20013e-05
3117.63	1.91841e-05
3126.31	8.5332e-06
3134.98	3.39208e-06
3143.66	1.14796e-06
3152.34	5.4985e-07
3161.02	1.45858e-07
3169.7	3.84006e-08
3178.37	-5.96963e-08
3187.05	1.74796e-08
3195.73	-4.3177e-08
3204.41	3.57996e-08
3213.09	-8.78129e-08
3221.77	-5.51527e-08
3230.44	-1.83618e-07
3239.12	-1.76113e-07
3247.8	-1.31867e-07
3256.48	-3.83642e-08
3265.16	-1.27439e-07
3273.83	-1.69547e-07
3282.51	-3.60939e-07
3291.19	-2.4912e-07
3299.87	-3.04229e-07
3308.55	-2.46817e-07
3317.22	-3.23644e-07
3325.9	-1.9782e-07
3334.58	-1.13925e-07
3343.26	-1.20899e-07
3351.94	-2.53918e-09
3360.62	-2.07536e-08
3369.29	-4.97651e-08
3377.97	-4.9525e-08
3386.65	-1.95266e-07
3395.33	-1.05442e-07
3404.01	-1.57739e-07
3412.68	-2.11313e-07
3421.36	-1.21626e-07
3430.04	-4.89284e-08
3438.72	-2.13903e-07
3447.4	-1.01196e-07
3456.08	-8.14431e-08
3464.75	-2.21004e-07
3473.43	-4.43702e-08
3482.11	-1.40266e-07
3490.79	-2.60008e-07
3499.47	-6.33887e-08
3508.14	-1.7743e-07
3516.82	-5.18823e-08
3525.5	-2.24463e-07
3534.18	-1.13208e-07
3542.86	-8.49426e-08
3551.53	-1.70333e-07
3560.21	-1.02015e-07
3568.89	-7.68267e-08
3577.57	-1.74858e-07
3586.25	-2.62824e-07
3594.93	-2.11313e-07
3603.6	-1.69791e-07
3612.28	-5.63059e-08
3620.96	-8.12175e-08
3629.64	4.2013e-08
3638.32	-8.33638e-08
3646.99	-1.3657e-07
3655.67	-1.97918e-07
3664.35	-1.4856e-07
3673.03	-2.20851e-07
3681.71	-4.01941e-08
3690.39	1.43755e-07
3699.06	1.62122e-07
3707.74	3.77389e-07
3716.42	5.06345e-07
3725.1	4.14122e-06
3733.78	7.97857e-07
3742.45	1.94196e-06
3751.13	1.34003e-06
3759.81	1.2609e-06
3768.49	2.45921e-06
3777.17	1.21108e-06
3785.85	1.34112e-06
3794.52	1.54898e-06
3803.2	2.2431e-06
3811.88	3.06386e-06
3820.56	2.4764e-06
3829.24	5.27456e-06
3837.91	3.35092e-06
3846.59	4.56646e-06
3855.27	3.63519e-06
3863.95	4.06761e-06
3872.63	5.92027e-06
3881.3	1.43659e-06
3889.98	1.37054e-06
3898.66	1.95245e-06
3907.34	1.53822e-06
3916.02	7.72079e-07
3924.7	3.4642e-07
3933.37	3.10552e-07
3942.05	6.67056e-07
3950.73	-3.43008e-08
3959.41	4.03505e-08
3968.09	1.13587e-07
