Infrared Spectrum: 1,2-Epoxyethane
Formula: C2 H4 O
CAS: 75-21-8
State: gas
Melting point: -111 C
Boiling point: 13.5 C
Class: IUPAC A
Instrument: IFS66V (Bruker)
Instrument parameters: KBr Beam splitter; MCT Detector; Multipass cell
Sampling: 1 L/min Flow
Resolution: 0.1250
Temperature: 23 C
Pressure: 101.3 kPa
Origin: NIST, Anayltical Chemistry Division, 301-975-3108
cm-1	(micromol/mol)-1m-1 (base 10)
574.988	-3.72147e-07
583.546	-3.59487e-07
592.103	1.6568e-07
600.661	-6.07094e-07
609.219	-7.99759e-07
617.776	-4.47118e-07
626.334	-3.21763e-08
634.891	-3.01574e-08
643.449	-3.45489e-07
652.007	-1.4852e-07
660.564	1.48444e-07
669.122	-5.93907e-08
677.68	1.1172e-07
686.237	-4.89481e-07
694.795	3.73748e-08
703.352	1.51733e-08
711.91	-1.89657e-07
720.468	-1.75538e-07
729.025	-1.73123e-08
737.583	-2.79747e-09
746.141	-9.52412e-08
754.698	2.22222e-07
763.256	7.32493e-07
771.813	1.2261e-06
780.371	3.52953e-06
788.929	6.11909e-06
797.486	1.21546e-05
806.044	1.61225e-05
814.602	2.58631e-05
823.159	1.63267e-05
831.717	5.38407e-05
840.274	0.000134198
848.832	0.000142797
857.39	0.000187338
865.947	0.000116923
874.505	0.000163395
883.063	0.000181752
891.62	0.000117071
900.178	0.00012882
908.735	9.28035e-05
917.293	5.59015e-05
925.851	2.26321e-05
934.408	7.0087e-06
942.966	2.44335e-06
951.524	1.14895e-06
960.081	2.07766e-07
968.639	-1.63235e-07
977.196	7.04751e-08
985.754	-2.92792e-07
994.312	-1.18498e-07
1002.87	-2.46857e-07
1011.43	-2.84185e-08
1019.98	-1.56993e-07
1028.54	1.25504e-08
1037.1	-8.00316e-09
1045.66	1.25006e-07
1054.22	2.39709e-07
1062.77	3.32058e-07
1071.33	6.51206e-07
1079.89	1.51642e-06
1088.45	1.6793e-06
1097	2.4571e-06
1105.56	3.27066e-06
1114.12	5.04505e-06
1122.68	5.68482e-06
1131.23	9.43857e-06
1139.79	6.64134e-06
1148.35	3.57192e-06
1156.91	6.43397e-06
1165.46	8.10638e-06
1174.02	7.49133e-06
1182.58	3.91298e-06
1191.14	4.76464e-06
1199.69	2.6804e-06
1208.25	2.59226e-06
1216.81	3.19431e-06
1225.37	6.50774e-06
1233.93	1.42355e-05
1242.48	2.58552e-05
1251.04	3.34307e-05
1259.6	3.45284e-05
1268.16	3.26726e-05
1276.71	4.39089e-05
1285.27	3.41028e-05
1293.83	3.18574e-05
1302.39	2.34584e-05
1310.94	6.77832e-06
1319.5	2.86861e-06
1328.06	6.69541e-07
1336.62	1.8962e-07
1345.17	5.05909e-08
1353.73	-1.61569e-07
1362.29	-5.59166e-08
1370.85	-4.67094e-08
1379.4	-8.63614e-08
1387.96	-1.03004e-07
1396.52	-5.41814e-08
1405.08	-6.01365e-08
1413.64	-6.34687e-08
1422.19	-1.36927e-07
1430.75	1.9165e-07
1439.31	5.73885e-07
1447.87	1.36645e-06
1456.42	1.42976e-06
1464.98	1.45352e-06
1473.54	2.23802e-06
1482.1	2.46463e-06
1490.65	4.0433e-06
1499.21	1.88135e-06
1507.77	2.88493e-06
1516.33	3.13586e-06
1524.88	2.57581e-06
1533.44	1.22405e-06
1542	6.33126e-07
1550.56	1.30717e-07
1559.11	4.33444e-08
1567.67	1.29637e-07
1576.23	5.96428e-07
1584.79	5.3085e-07
1593.35	1.1864e-06
1601.9	3.19902e-06
1610.46	2.02445e-06
1619.02	3.13756e-06
1627.58	2.98108e-06
1636.13	4.15935e-06
1644.69	4.91636e-06
1653.25	4.30247e-06
1661.81	2.50873e-06
1670.36	1.29615e-06
1678.92	2.18381e-07
1687.48	-1.70613e-07
1696.04	2.24696e-07
1704.59	2.4358e-07
1713.15	4.36933e-07
1721.71	6.12569e-07
1730.27	1.71068e-07
1738.83	7.44221e-08
1747.38	9.65639e-07
1755.94	4.13167e-07
1764.5	2.6011e-07
1773.06	2.16435e-07
1781.61	1.62584e-07
1790.17	-7.15555e-08
1798.73	-7.50551e-08
1807.29	-3.32386e-08
1815.84	1.26665e-07
1824.4	1.01968e-07
1832.96	4.51378e-08
1841.52	1.39837e-08
1850.07	6.34723e-08
1858.63	1.61515e-07
1867.19	5.40432e-08
1875.75	-1.49514e-08
1884.3	-2.55555e-08
1892.86	3.04629e-08
1901.42	1.17465e-07
1909.98	1.3047e-07
1918.54	2.1116e-07
1927.09	5.99018e-07
1935.65	1.26677e-06
1944.21	5.45826e-07
1952.77	8.08537e-07
1961.32	1.46849e-06
1969.88	1.2002e-06
1978.44	1.37253e-06
1987	1.48869e-06
1995.55	2.12804e-06
2004.11	2.32684e-06
2012.67	3.44982e-06
2021.23	1.10893e-06
2029.78	1.78351e-06
2038.34	2.47892e-06
2046.9	1.53194e-06
2055.46	9.96957e-07
2064.01	8.72719e-07
2072.57	1.21071e-06
2081.13	1.13078e-06
2089.69	8.82985e-07
2098.25	1.99772e-06
2106.8	1.55971e-06
2115.36	1.42353e-06
2123.92	1.17194e-06
2132.48	1.11816e-06
2141.03	1.32758e-06
2149.59	8.10302e-07
2158.15	1.00369e-06
2166.71	8.16937e-07
2175.26	3.8138e-07
2183.82	3.46551e-07
2192.38	4.8366e-07
2200.94	6.07283e-07
2209.49	7.52923e-07
2218.05	1.21372e-06
2226.61	1.60824e-06
2235.17	2.70751e-06
2243.72	4.06096e-06
2252.28	3.85719e-06
2260.84	2.60024e-06
2269.4	3.81929e-06
2277.96	3.63007e-06
2286.51	2.91449e-06
2295.07	2.14057e-06
2303.63	1.48844e-06
2312.19	1.39421e-06
2320.74	1.40349e-06
2329.3	1.42053e-06
2337.86	5.94973e-07
2346.42	4.0616e-07
2354.97	2.60066e-07
2363.53	2.07904e-07
2372.09	2.09523e-07
2380.65	4.46536e-07
2389.2	1.42078e-07
2397.76	2.23372e-07
2406.32	1.5345e-07
2414.88	2.99718e-08
2423.44	7.29343e-08
2431.99	9.65836e-08
2440.55	1.68041e-07
2449.11	7.96678e-08
2457.67	2.32084e-07
2466.22	-3.44973e-08
2474.78	-1.98657e-07
2483.34	-2.7425e-07
2491.9	-2.34311e-07
2500.45	-1.69602e-07
2509.01	-2.7556e-07
2517.57	-2.02578e-07
2526.13	-3.07092e-07
2534.68	-4.35656e-07
2543.24	-2.63464e-07
2551.8	-2.17999e-07
2560.36	-8.47389e-08
2568.91	-3.55595e-08
2577.47	8.8042e-08
2586.03	4.23447e-07
2594.59	4.83551e-07
2603.15	1.02607e-06
2611.7	1.49376e-06
2620.26	1.72544e-06
2628.82	1.14652e-06
2637.38	1.17925e-06
2645.93	4.77218e-07
2654.49	1.16184e-07
2663.05	-3.08049e-08
2671.61	-6.21736e-08
2680.16	-1.6843e-07
2688.72	-1.7416e-07
2697.28	-6.15625e-08
2705.84	2.23143e-08
2714.39	1.23667e-07
2722.95	1.05955e-07
2731.51	2.50572e-07
2740.07	6.07047e-07
2748.62	4.16685e-07
2757.18	4.55489e-07
2765.74	6.34607e-07
2774.3	2.30753e-07
2782.86	2.06703e-07
2791.41	6.05694e-08
2799.97	-3.07212e-08
2808.53	-4.71968e-08
2817.09	-1.26268e-07
2825.64	-1.96998e-07
2834.2	-2.7489e-07
2842.76	-4.35081e-09
2851.32	1.6899e-07
2859.87	2.50215e-07
2868.43	8.33074e-07
2876.99	2.25279e-06
2885.55	6.78744e-06
2894.1	1.81303e-05
2902.66	3.40207e-05
2911.22	3.53603e-05
2919.78	3.71967e-05
2928.34	2.86392e-05
2936.89	3.51018e-05
2945.45	4.58844e-05
2954.01	4.52643e-05
2962.57	4.58152e-05
2971.12	4.62829e-05
2979.68	5.51715e-05
2988.24	6.81479e-05
2996.8	6.77431e-05
3005.35	0.000117047
3013.91	7.97959e-05
3022.47	0.000114075
3031.03	0.000151331
3039.58	0.000107078
3048.14	6.15732e-05
3056.7	5.27425e-05
3065.26	0.000775043
3073.81	4.16851e-05
3082.37	4.44054e-05
3090.93	0.000108037
3099.49	5.15415e-05
3108.05	4.39448e-05
3116.6	1.73455e-05
3125.16	7.28495e-06
3133.72	3.62808e-06
3142.28	1.38531e-06
3150.83	5.17179e-07
3159.39	1.38538e-07
3167.95	7.81036e-09
3176.51	-1.62355e-08
3185.06	-1.10178e-07
3193.62	4.13036e-08
3202.18	-1.44683e-07
3210.74	-1.47651e-07
3219.29	-2.19923e-07
3227.85	-9.84425e-08
3236.41	-2.47669e-07
3244.97	-3.55511e-07
3253.52	-1.38211e-07
3262.08	-2.31531e-07
3270.64	-2.64901e-07
3279.2	-1.28604e-07
3287.76	-7.84455e-08
3296.31	-2.04215e-07
3304.87	3.72147e-09
3313.43	-6.14243e-08
3321.99	-2.16515e-07
3330.54	-2.27446e-07
3339.1	-1.62657e-07
3347.66	-1.49939e-07
3356.22	-1.51616e-07
3364.77	-5.54473e-08
3373.33	-7.27669e-08
3381.89	-2.56989e-07
3390.45	-2.72737e-07
3399	-1.65385e-07
3407.56	-7.27305e-08
3416.12	-2.07449e-07
3424.68	-2.70925e-07
3433.23	-2.30196e-07
3441.79	-3.43772e-09
3450.35	-2.12124e-07
3458.91	-1.04609e-07
3467.47	-4.78152e-08
3476.02	-2.78648e-07
3484.58	-2.18064e-07
3493.14	-2.69779e-08
3501.7	2.25525e-07
3510.25	-3.8417e-07
3518.81	-1.91781e-07
3527.37	-1.08861e-07
3535.93	-1.27712e-07
3544.48	-3.18911e-07
3553.04	-1.59241e-07
3561.6	-3.05495e-07
3570.16	4.64183e-09
3578.71	-1.91101e-07
3587.27	-1.03877e-07
3595.83	-2.94189e-08
3604.39	-2.29505e-07
3612.95	-1.69692e-07
3621.5	-8.16468e-08
3630.06	-1.35825e-07
3638.62	-8.78238e-08
3647.18	-3.29948e-09
3655.73	-3.57749e-07
3664.29	-1.0928e-07
3672.85	-2.25478e-07
3681.41	-3.46901e-08
3689.96	2.84101e-07
3698.52	6.36178e-08
3707.08	2.15918e-07
3715.64	6.59329e-07
3724.19	1.91889e-06
3732.75	6.99549e-07
3741.31	1.46421e-06
3749.87	1.09866e-06
3758.42	1.31878e-06
3766.98	1.89446e-06
3775.54	1.41633e-06
3784.1	1.66787e-06
3792.66	1.9759e-06
3801.21	1.92774e-06
3809.77	2.49527e-06
3818.33	2.07991e-06
3826.89	3.49904e-06
3835.44	3.5138e-06
3844	3.79428e-06
3852.56	3.68165e-06
3861.12	3.72161e-06
3869.67	4.94352e-06
3878.23	1.63149e-06
3886.79	1.46368e-06
3895.35	1.66801e-06
3903.9	2.10035e-06
3912.46	1.32055e-06
3921.02	3.95713e-07
3929.58	6.89367e-07
3938.13	2.95138e-07
3946.69	3.59811e-07
3955.25	7.0462e-07
3963.81	-2.05572e-08
3972.37	-1.36236e-07
