Infrared Spectrum: 1,2-Epoxyethane
Formula: C2 H4 O
CAS: 75-21-8
State: gas
Melting point: -111 C
Boiling point: 13.5 C
Class: IUPAC A
Instrument: IFS66V (Bruker)
Instrument parameters: KBr Beam splitter; MCT Detector; Multipass cell
Sampling: 1 L/min Flow
Resolution: 0.2410
Temperature: 23 C
Pressure: 101.3 kPa
Origin: NIST, Anayltical Chemistry Division, 301-975-3108
cm-1	(micromol/mol)-1m-1 (base 10)
575.048	-6.20427e-07
583.606	-5.22537e-07
592.163	-1.09712e-07
600.721	-1.6914e-07
609.279	-6.22366e-07
617.836	-2.53744e-07
626.394	-2.45682e-07
634.951	-6.32177e-08
643.509	-4.41221e-07
652.067	-2.14314e-07
660.624	-5.86886e-08
669.182	-1.22688e-07
677.74	3.07758e-08
686.297	-2.56301e-07
694.855	-2.33994e-07
703.412	-1.78983e-07
711.97	-1.70798e-07
720.528	-2.30331e-07
729.085	-6.60152e-08
737.643	6.00419e-08
746.201	2.3351e-08
754.758	1.73792e-07
763.316	6.68519e-07
771.873	1.33232e-06
780.431	3.67209e-06
788.989	6.32362e-06
797.546	1.14944e-05
806.104	1.6237e-05
814.662	2.86402e-05
823.219	1.62452e-05
831.777	5.21503e-05
840.334	0.000134127
848.892	0.000135272
857.45	0.000189946
866.007	0.000129173
874.565	0.000161758
883.123	0.000183067
891.68	0.000120367
900.238	0.000119007
908.795	9.43198e-05
917.353	5.53902e-05
925.911	2.19741e-05
934.468	7.42825e-06
943.026	2.7933e-06
951.584	9.36584e-07
960.141	1.80861e-07
968.699	-1.69405e-07
977.256	-3.4701e-08
985.814	-2.18541e-07
994.372	-1.68026e-07
1002.93	-2.33849e-07
1011.49	-5.4858e-08
1020.04	-1.89515e-07
1028.6	-3.52394e-08
1037.16	-1.71704e-08
1045.72	9.431e-08
1054.28	2.14306e-07
1062.83	3.37551e-07
1071.39	7.48135e-07
1079.95	1.77383e-06
1088.51	1.58819e-06
1097.06	2.28142e-06
1105.62	3.03948e-06
1114.18	5.46118e-06
1122.74	5.59463e-06
1131.29	9.60649e-06
1139.85	6.68249e-06
1148.41	3.54098e-06
1156.97	6.44629e-06
1165.52	8.39375e-06
1174.08	7.76519e-06
1182.64	4.37936e-06
1191.2	4.43471e-06
1199.75	2.61269e-06
1208.31	2.6715e-06
1216.87	3.22375e-06
1225.43	7.03505e-06
1233.99	1.41551e-05
1242.54	2.50878e-05
1251.1	3.11776e-05
1259.66	3.11903e-05
1268.22	3.12283e-05
1276.77	4.48906e-05
1285.33	3.50915e-05
1293.89	3.25863e-05
1302.45	2.11672e-05
1311	7.02699e-06
1319.56	2.53105e-06
1328.12	7.69711e-07
1336.68	9.22873e-08
1345.23	-3.27438e-08
1353.79	-1.32405e-07
1362.35	-1.13616e-07
1370.91	-8.52555e-08
1379.46	-7.98097e-08
1388.02	-4.93831e-08
1396.58	-7.66157e-08
1405.14	-5.6164e-08
1413.7	-1.2685e-07
1422.25	-8.80966e-08
1430.81	1.69361e-07
1439.37	6.52516e-07
1447.93	1.32642e-06
1456.48	1.31622e-06
1465.04	1.45411e-06
1473.6	2.26328e-06
1482.16	2.43089e-06
1490.71	3.69097e-06
1499.27	2.02527e-06
1507.83	2.74569e-06
1516.39	2.89442e-06
1524.94	2.44497e-06
1533.5	1.36443e-06
1542.06	5.75689e-07
1550.62	9.10214e-08
1559.18	5.17586e-08
1567.73	1.7074e-07
1576.29	5.47049e-07
1584.85	5.25e-07
1593.41	1.22957e-06
1601.96	2.87208e-06
1610.52	2.07726e-06
1619.08	3.29372e-06
1627.64	2.97269e-06
1636.19	4.17536e-06
1644.75	4.63674e-06
1653.31	4.18426e-06
1661.87	2.45431e-06
1670.42	1.4404e-06
1678.98	2.11844e-07
1687.54	-1.24867e-07
1696.1	1.7444e-07
1704.65	2.3056e-07
1713.21	5.49904e-07
1721.77	5.41094e-07
1730.33	1.62126e-07
1738.89	1.60387e-07
1747.44	8.71359e-07
1756	4.21697e-07
1764.56	2.48309e-07
1773.12	2.05139e-07
1781.67	1.17908e-07
1790.23	-7.45567e-08
1798.79	-4.80626e-08
1807.35	-5.5622e-09
1815.9	6.28466e-08
1824.46	8.17486e-08
1833.02	6.86053e-08
1841.58	4.55598e-08
1850.13	4.94668e-08
1858.69	1.28262e-07
1867.25	4.88775e-08
1875.81	-1.68357e-08
1884.36	-4.02814e-08
1892.92	4.36609e-08
1901.48	1.75084e-07
1910.04	1.58488e-07
1918.6	2.3836e-07
1927.15	6.37994e-07
1935.71	1.13192e-06
1944.27	6.08353e-07
1952.83	8.34639e-07
1961.38	1.47645e-06
1969.94	1.15075e-06
1978.5	1.38923e-06
1987.06	1.54803e-06
1995.61	2.42314e-06
2004.17	2.40789e-06
2012.73	3.55628e-06
2021.29	1.16748e-06
2029.84	1.86861e-06
2038.4	2.28607e-06
2046.96	1.52803e-06
2055.52	1.04845e-06
2064.08	9.64112e-07
2072.63	1.25922e-06
2081.19	1.18536e-06
2089.75	8.58219e-07
2098.31	1.98236e-06
2106.86	1.58336e-06
2115.42	1.63593e-06
2123.98	1.17036e-06
2132.54	1.10492e-06
2141.09	1.35494e-06
2149.65	7.71377e-07
2158.21	1.15847e-06
2166.77	8.10305e-07
2175.32	3.89652e-07
2183.88	3.11152e-07
2192.44	5.28234e-07
2201	5.90317e-07
2209.55	7.68798e-07
2218.11	1.25727e-06
2226.67	1.71576e-06
2235.23	2.85194e-06
2243.79	3.74327e-06
2252.34	3.81004e-06
2260.9	2.63445e-06
2269.46	3.86191e-06
2278.02	3.74582e-06
2286.57	2.74943e-06
2295.13	2.15893e-06
2303.69	1.54009e-06
2312.25	1.36189e-06
2320.8	1.42092e-06
2329.36	1.47046e-06
2337.92	6.22293e-07
2346.48	4.25433e-07
2355.03	2.43085e-07
2363.59	2.49331e-07
2372.15	2.67571e-07
2380.71	3.84825e-07
2389.26	1.63435e-07
2397.82	2.35922e-07
2406.38	1.64174e-07
2414.94	3.1256e-08
2423.5	5.68952e-08
2432.05	5.21588e-08
2440.61	6.82961e-08
2449.17	7.36618e-08
2457.73	2.62922e-07
2466.28	-6.18572e-08
2474.84	-1.97791e-07
2483.4	-2.1403e-07
2491.96	-2.36875e-07
2500.51	-1.96023e-07
2509.07	-2.11865e-07
2517.63	-2.25333e-07
2526.19	-2.84189e-07
2534.74	-4.36991e-07
2543.3	-2.77604e-07
2551.86	-2.6342e-07
2560.42	-1.10971e-07
2568.98	-2.54973e-08
2577.53	6.34214e-08
2586.09	4.80281e-07
2594.65	5.12988e-07
2603.21	9.55257e-07
2611.76	1.61312e-06
2620.32	1.62983e-06
2628.88	1.12074e-06
2637.44	1.26478e-06
2645.99	4.79218e-07
2654.55	1.43671e-07
2663.11	-5.13039e-08
2671.67	-8.46043e-08
2680.22	-1.63974e-07
2688.78	-1.5525e-07
2697.34	-7.46258e-08
2705.9	-4.84846e-08
2714.45	8.14831e-08
2723.01	9.47247e-08
2731.57	2.62103e-07
2740.13	4.82732e-07
2748.69	3.81365e-07
2757.24	4.49399e-07
2765.8	5.91761e-07
2774.36	2.16696e-07
2782.92	1.42209e-07
2791.47	4.90776e-08
2800.03	1.81963e-08
2808.59	-9.81297e-08
2817.15	-1.6393e-07
2825.7	-1.25508e-07
2834.26	-1.27763e-07
2842.82	-1.64101e-08
2851.38	1.40976e-07
2859.93	2.73144e-07
2868.49	9.11633e-07
2877.05	2.25297e-06
2885.61	7.0206e-06
2894.16	1.76507e-05
2902.72	3.16253e-05
2911.28	3.63952e-05
2919.84	3.6839e-05
2928.4	2.8125e-05
2936.95	3.40599e-05
2945.51	4.76506e-05
2954.07	4.79836e-05
2962.63	4.76707e-05
2971.18	4.55273e-05
2979.74	5.55942e-05
2988.3	6.92133e-05
2996.86	6.73735e-05
3005.41	0.000124929
3013.97	8.25004e-05
3022.53	0.000111678
3031.09	0.000154174
3039.64	0.000106185
3048.2	6.03532e-05
3056.76	4.92481e-05
3065.32	0.000904847
3073.88	4.02303e-05
3082.43	4.44827e-05
3090.99	0.000102588
3099.55	5.60331e-05
3108.11	4.11601e-05
3116.66	1.77136e-05
3125.22	7.25562e-06
3133.78	3.41486e-06
3142.34	1.38161e-06
3150.89	4.70127e-07
3159.45	1.46032e-07
3168.01	1.51005e-08
3176.57	-9.46919e-09
3185.12	-1.2111e-07
3193.68	-3.39771e-09
3202.24	-2.03851e-07
3210.8	-1.19131e-07
3219.35	-2.28963e-07
3227.91	-1.08756e-07
3236.47	-2.38014e-07
3245.03	-2.39164e-07
3253.59	-9.10287e-08
3262.14	-2.39727e-07
3270.7	-3.89332e-07
3279.26	-1.2056e-07
3287.82	-2.06449e-07
3296.37	-2.17377e-07
3304.93	-8.79947e-08
3313.49	-1.09494e-07
3322.05	-2.23641e-07
3330.6	-2.25682e-07
3339.16	-3.19726e-08
3347.72	-1.22146e-07
3356.28	-1.11426e-07
3364.83	-1.1307e-07
3373.39	-2.58571e-07
3381.95	-3.04608e-07
3390.51	-2.24198e-07
3399.06	-2.00526e-07
3407.62	-9.75949e-08
3416.18	-8.94753e-08
3424.74	-2.70958e-07
3433.3	-2.16718e-07
3441.85	-8.59321e-08
3450.41	-1.5357e-07
3458.97	-1.16213e-07
3467.53	-8.66815e-08
3476.08	-2.3358e-07
3484.64	-1.7229e-07
3493.2	-9.43282e-08
3501.76	1.04747e-07
3510.31	-2.98441e-07
3518.87	-1.82112e-07
3527.43	-1.99846e-07
3535.99	-9.662e-08
3544.54	-1.73683e-07
3553.1	-2.59131e-07
3561.66	-2.58371e-07
3570.22	-1.67517e-07
3578.78	-2.1873e-07
3587.33	-9.01119e-08
3595.89	-8.15704e-08
3604.45	-2.15059e-07
3613.01	-2.75691e-07
3621.56	-1.65738e-08
3630.12	-1.23027e-07
3638.68	-1.3242e-07
3647.24	-9.08468e-08
3655.79	-1.75531e-07
3664.35	-1.68536e-07
3672.91	-2.88438e-07
3681.47	-1.26523e-08
3690.02	2.33903e-07
3698.58	1.18123e-07
3707.14	2.40895e-07
3715.7	6.39656e-07
3724.25	2.05678e-06
3732.81	7.54847e-07
3741.37	1.41546e-06
3749.93	1.0576e-06
3758.49	1.27045e-06
3767.04	1.87335e-06
3775.6	1.30904e-06
3784.16	1.53686e-06
3792.72	1.7978e-06
3801.27	2.13446e-06
3809.83	2.54113e-06
3818.39	2.02989e-06
3826.95	3.51175e-06
3835.5	3.4669e-06
3844.06	4.01415e-06
3852.62	3.79568e-06
3861.18	3.63227e-06
3869.73	5.27875e-06
3878.29	1.58933e-06
3886.85	1.34631e-06
3895.41	1.58987e-06
3903.96	1.91076e-06
3912.52	1.25216e-06
3921.08	4.1978e-07
3929.64	7.19015e-07
3938.2	2.77608e-07
3946.75	3.68116e-07
3955.31	6.13733e-07
3963.87	4.3228e-08
3972.43	-8.51245e-08
