Infrared Spectrum: 1,2-Epoxyethane
Formula: C2 H4 O
CAS: 75-21-8
State: gas
Melting point: -111 C
Boiling point: 13.5 C
Class: IUPAC A
Instrument: IFS66V (Bruker)
Instrument parameters: KBr Beam splitter; MCT Detector; Multipass cell
Sampling: 1 L/min Flow
Resolution: 0.9640
Temperature: 23 C
Pressure: 101.3 kPa
Origin: NIST, Anayltical Chemistry Division, 301-975-3108
cm-1	(micromol/mol)-1m-1 (base 10)
575.169	-4.5142e-07
583.847	-2.13059e-07
592.525	-1.1632e-07
601.203	-1.77896e-08
609.882	-2.54717e-07
618.56	-1.91386e-07
627.238	-1.494e-07
635.916	-2.93796e-07
644.594	-1.83326e-07
653.272	-1.88472e-07
661.951	-1.8562e-07
670.629	-1.5507e-07
679.307	-1.51778e-07
687.985	-1.55368e-07
696.663	-2.24971e-07
705.341	-2.43665e-07
714.019	-1.36984e-07
722.698	-1.10792e-07
731.376	-8.64852e-08
740.054	-2.96858e-09
748.732	1.86682e-07
757.41	4.16537e-07
766.088	7.74122e-07
774.767	1.67692e-06
783.445	3.71791e-06
792.123	7.61172e-06
800.801	1.28727e-05
809.479	2.31107e-05
818.157	2.47641e-05
826.835	2.51427e-05
835.514	9.40065e-05
844.192	0.000116267
852.87	0.000163837
861.548	0.000166283
870.226	0.000241389
878.904	0.000157347
887.583	0.000130631
896.261	0.000127106
904.939	0.000106858
913.617	6.57104e-05
922.295	3.26372e-05
930.973	1.34297e-05
939.651	4.48728e-06
948.33	1.36846e-06
957.008	3.07573e-07
965.686	-2.67026e-08
974.364	-7.38997e-08
983.042	-1.54164e-07
991.72	-1.55479e-07
1000.4	-1.27267e-07
1009.08	-1.16548e-07
1017.75	-1.3702e-07
1026.43	-1.09412e-07
1035.11	-5.56553e-08
1043.79	5.21374e-08
1052.47	1.71914e-07
1061.15	4.1755e-07
1069.82	7.80226e-07
1078.5	1.19914e-06
1087.18	1.77053e-06
1095.86	2.24922e-06
1104.54	3.04609e-06
1113.21	4.73054e-06
1121.89	6.47907e-06
1130.57	8.26143e-06
1139.25	6.26935e-06
1147.93	3.85928e-06
1156.61	7.49161e-06
1165.28	8.50383e-06
1173.96	7.5705e-06
1182.64	5.05273e-06
1191.32	3.85785e-06
1200	2.62823e-06
1208.67	2.40279e-06
1217.35	3.39575e-06
1226.03	7.43006e-06
1234.71	1.57539e-05
1243.39	2.57399e-05
1252.07	3.03097e-05
1260.74	3.32303e-05
1269.42	1.36085e-05
1278.1	3.74035e-05
1286.78	3.19344e-05
1295.46	2.90093e-05
1304.13	1.63941e-05
1312.81	6.48112e-06
1321.49	2.17383e-06
1330.17	5.90241e-07
1338.85	4.36519e-08
1347.52	-6.51031e-08
1356.2	-1.19622e-07
1364.88	-9.35028e-08
1373.56	-1.27874e-07
1382.24	-6.71022e-08
1390.92	-7.31739e-08
1399.59	-7.15805e-08
1408.27	-1.24338e-07
1416.95	-1.01566e-07
1425.63	-7.40507e-09
1434.31	3.19555e-07
1442.98	8.83202e-07
1451.66	1.21105e-06
1460.34	1.16855e-06
1469.02	1.84789e-06
1477.7	2.63798e-06
1486.38	2.70506e-06
1495.05	3.12988e-06
1503.73	3.51765e-06
1512.41	2.49992e-06
1521.09	2.75466e-06
1529.77	1.84688e-06
1538.44	8.39761e-07
1547.12	2.22519e-07
1555.8	5.4182e-08
1564.48	9.43432e-08
1573.16	3.0236e-07
1581.83	5.95307e-07
1590.51	1.02163e-06
1599.19	1.66402e-06
1607.87	2.47084e-06
1616.55	3.17026e-06
1625.23	4.3897e-06
1633.9	4.09927e-06
1642.58	1.26738e-05
1651.26	4.68109e-06
1659.94	2.59247e-06
1668.62	1.47301e-06
1677.29	4.18604e-07
1685.97	1.14696e-07
1694.65	-2.3523e-08
1703.33	2.55347e-07
1712.01	7.24867e-07
1720.69	5.08132e-07
1729.36	1.73391e-07
1738.04	2.7487e-07
1746.72	1.00052e-06
1755.4	3.82579e-07
1764.08	2.23418e-07
1772.75	2.81025e-07
1781.43	8.49809e-08
1790.11	-5.49205e-08
1798.79	-7.47855e-08
1807.47	-3.88771e-08
1816.15	9.09181e-08
1824.82	6.02319e-08
1833.5	6.09722e-08
1842.18	1.99069e-08
1850.86	1.01468e-07
1859.54	1.48512e-07
1868.21	6.80535e-08
1876.89	-6.74223e-08
1885.57	-3.88843e-08
1894.25	-1.97232e-08
1902.93	1.3089e-07
1911.6	1.90893e-07
1920.28	2.08712e-07
1928.96	9.97954e-07
1937.64	5.29269e-07
1946.32	5.08474e-07
1955	1.00563e-06
1963.67	9.90487e-07
1972.35	1.14425e-06
1981.03	1.33241e-06
1989.71	1.79728e-06
1998.39	2.58706e-06
2007.06	2.45983e-06
2015.74	2.59058e-06
2024.42	1.18241e-06
2033.1	2.01189e-06
2041.78	2.02455e-06
2050.46	1.38162e-06
2059.13	1.06292e-06
2067.81	8.58027e-07
2076.49	7.03796e-07
2085.17	1.66281e-06
2093.85	9.10821e-07
2102.52	1.99288e-06
2111.2	1.6561e-06
2119.88	1.3598e-06
2128.56	1.18697e-06
2137.24	9.13443e-07
2145.91	9.44593e-07
2154.59	8.93548e-07
2163.27	8.19256e-07
2171.95	4.95274e-07
2180.63	4.21887e-07
2189.31	4.81835e-07
2197.98	5.80464e-07
2206.66	6.84158e-07
2215.34	9.73238e-07
2224.02	1.72885e-06
2232.7	2.6461e-06
2241.37	3.36127e-06
2250.05	3.79854e-06
2258.73	4.21127e-06
2267.41	2.31771e-06
2276.09	3.97142e-06
2284.77	3.42944e-06
2293.44	2.2375e-06
2302.12	1.6329e-06
2310.8	2.9396e-06
2319.48	1.53085e-06
2328.16	1.36996e-06
2336.83	7.48632e-07
2345.51	3.8381e-07
2354.19	2.49642e-07
2362.87	1.76963e-07
2371.55	2.52482e-07
2380.23	2.84496e-07
2388.9	1.89321e-07
2397.58	1.82853e-07
2406.26	2.10283e-07
2414.94	1.49811e-08
2423.62	6.27766e-08
2432.29	6.07758e-08
2440.97	5.05749e-08
2449.65	7.29866e-08
2458.33	2.42741e-07
2467.01	-4.34281e-08
2475.68	-1.16209e-07
2484.36	-2.22099e-07
2493.04	-3.0236e-07
2501.72	-1.76563e-07
2510.4	-2.4098e-07
2519.08	-2.66899e-07
2527.75	-2.84916e-07
2536.43	-1.7926e-07
2545.11	-3.44538e-07
2553.79	-3.16644e-07
2562.47	-1.39527e-07
2571.14	1.8328e-08
2579.82	2.00986e-07
2588.5	5.725e-07
2597.18	7.15268e-07
2605.86	9.65453e-07
2614.54	4.74732e-07
2623.21	1.08461e-06
2631.89	1.26285e-06
2640.57	9.08595e-07
2649.25	4.18167e-07
2657.93	1.22081e-07
2666.6	-7.83216e-08
2675.28	-1.10792e-07
2683.96	-1.43876e-07
2692.64	-1.14372e-07
2701.32	-1.18256e-07
2709.99	5.82401e-08
2718.67	8.54557e-08
2727.35	2.11817e-07
2736.03	2.68707e-07
2744.71	3.7547e-07
2753.39	5.94017e-07
2762.06	3.75983e-07
2770.74	4.14908e-07
2779.42	1.77272e-07
2788.1	1.32831e-07
2796.78	7.10712e-08
2805.45	-5.99645e-08
2814.13	-1.21693e-07
2822.81	-1.0885e-07
2831.49	-1.38715e-07
2840.17	-2.54948e-08
2848.85	1.15322e-07
2857.52	1.99107e-07
2866.2	7.01728e-07
2874.88	1.73422e-06
2883.56	4.90484e-06
2892.24	1.33608e-05
2900.91	2.69839e-05
2909.59	3.61732e-05
2918.27	3.76692e-05
2926.95	2.90862e-05
2935.63	3.32979e-05
2944.31	4.56473e-05
2952.98	5.19522e-05
2961.66	4.894e-05
2970.34	3.90278e-05
2979.02	5.80493e-05
2987.7	7.07698e-05
2996.37	6.57305e-05
3005.05	0.00010214
3013.73	8.62624e-05
3022.41	0.000117481
3031.09	0.000126267
3039.76	0.000106446
3048.44	7.23933e-05
3057.12	3.57735e-05
3065.8	0.00149097
3074.48	2.61841e-05
3083.16	5.87149e-05
3091.83	6.73634e-05
3100.51	5.94289e-05
3109.19	3.90533e-05
3117.87	1.86254e-05
3126.55	7.69399e-06
3135.22	2.89013e-06
3143.9	1.08388e-06
3152.58	4.31162e-07
3161.26	1.04448e-07
3169.94	4.64695e-08
3178.62	-8.02006e-08
3187.29	-5.56226e-08
3195.97	6.2391e-10
3204.65	-6.47357e-08
3213.33	-1.06168e-07
3222.01	-1.65982e-07
3230.68	-1.60532e-07
3239.36	-1.84064e-07
3248.04	-1.35443e-07
3256.72	-9.41249e-08
3265.4	-1.66298e-07
3274.07	-2.01818e-07
3282.75	-3.3731e-07
3291.43	-2.67048e-07
3300.11	-2.67805e-07
3308.79	-2.56936e-07
3317.47	-2.3218e-07
3326.14	-1.25637e-07
3334.82	-1.42375e-07
3343.5	-1.62633e-07
3352.18	-1.3069e-07
3360.86	-1.0466e-07
3369.53	-9.5893e-08
3378.21	-1.5039e-07
3386.89	-1.7744e-07
3395.57	-2.03808e-07
3404.25	-1.84721e-07
3412.93	-1.33455e-07
3421.6	-7.93075e-08
3430.28	-6.20309e-08
3438.96	-2.04432e-07
3447.64	-1.52862e-07
3456.32	-1.33784e-07
3464.99	-1.95702e-07
3473.67	-3.51336e-08
3482.35	-1.38046e-07
3491.03	-1.91464e-07
3499.71	-1.34943e-07
3508.39	-1.49857e-07
3517.06	-1.20662e-07
3525.74	-2.31085e-07
3534.42	-1.43501e-07
3543.1	-1.40056e-07
3551.78	-1.9394e-07
3560.45	-1.20895e-07
3569.13	-2.19727e-07
3577.81	-1.73252e-07
3586.49	-1.94276e-07
3595.17	-1.27732e-07
3603.84	-1.79604e-07
3612.52	-1.1994e-07
3621.2	-9.57147e-08
3629.88	-8.49773e-08
3638.56	-9.74609e-08
3647.24	-1.35008e-07
3655.91	-1.49376e-07
3664.59	-1.54608e-07
3673.27	-1.58731e-07
3681.95	6.3064e-09
3690.63	1.43021e-07
3699.3	1.95786e-07
3707.98	3.41888e-07
3716.66	5.0409e-07
3725.34	2.39488e-06
3734.02	8.19812e-07
3742.7	1.68763e-06
3751.37	1.40694e-06
3760.05	1.39316e-06
3768.73	2.4593e-06
3777.41	1.28866e-06
3786.09	1.37283e-06
3794.76	1.66071e-06
3803.44	2.24719e-06
3812.12	2.92102e-06
3820.8	2.38816e-06
3829.48	5.43141e-06
3838.16	3.3367e-06
3846.83	4.46905e-06
3855.51	3.61128e-06
3864.19	4.00645e-06
3872.87	5.13594e-06
3881.55	1.4361e-06
3890.22	1.52168e-06
3898.9	1.88636e-06
3907.58	1.48093e-06
3916.26	7.86178e-07
3924.94	3.44417e-07
3933.61	3.0998e-07
3942.29	8.91631e-07
3950.97	6.18999e-08
3959.65	-2.66753e-08
3968.33	5.79272e-08
