Infrared Spectrum: 1,2-Epoxyethane
Formula: C2 H4 O
CAS: 75-21-8
State: gas
Melting point: -111 C
Boiling point: 13.5 C
Class: IUPAC A
Instrument: IFS66V (Bruker)
Instrument parameters: KBr Beam splitter; MCT Detector; Multipass cell
Sampling: 1 L/min Flow
Resolution: 0.9640
Temperature: 23 C
Pressure: 101.3 kPa
Origin: NIST, Anayltical Chemistry Division, 301-975-3108
cm-1	(micromol/mol)-1m-1 (base 10)
575.169	-5.08832e-07
583.847	-1.63417e-07
592.525	-1.49838e-07
601.203	1.44409e-08
609.882	-2.18098e-07
618.56	-1.55332e-07
627.238	-1.08444e-07
635.916	-3.23868e-07
644.594	-1.63392e-07
653.272	-1.66937e-07
661.951	-1.88799e-07
670.629	-1.48547e-07
679.307	-1.29957e-07
687.985	-1.23069e-07
696.663	-1.77005e-07
705.341	-2.14552e-07
714.019	-1.14015e-07
722.698	-1.01214e-07
731.376	-5.41929e-08
740.054	4.62403e-08
748.732	2.53015e-07
757.41	4.9362e-07
766.088	8.6283e-07
774.767	1.80728e-06
783.445	3.95136e-06
792.123	7.73091e-06
800.801	1.26459e-05
809.479	2.28714e-05
818.157	2.54623e-05
826.835	2.59411e-05
835.514	9.34325e-05
844.192	0.000115424
852.87	0.00016199
861.548	0.000166852
870.226	0.000238302
878.904	0.000157624
887.583	0.000130085
896.261	0.000126824
904.939	0.000107214
913.617	6.40133e-05
922.295	3.27997e-05
930.973	1.43013e-05
939.651	4.65595e-06
948.33	1.52497e-06
957.008	4.36344e-07
965.686	7.57769e-08
974.364	8.90027e-09
983.042	-9.49671e-08
991.72	-9.7732e-08
1000.4	-7.68519e-08
1009.08	-7.46309e-08
1017.75	-9.58639e-08
1026.43	-7.0018e-08
1035.11	-2.05545e-08
1043.79	7.80815e-08
1052.47	1.96761e-07
1061.15	4.56837e-07
1069.82	8.18445e-07
1078.5	1.20265e-06
1087.18	1.7876e-06
1095.86	2.32396e-06
1104.54	3.06118e-06
1113.21	4.68864e-06
1121.89	6.58286e-06
1130.57	8.1193e-06
1139.25	6.51879e-06
1147.93	4.36341e-06
1156.61	7.44174e-06
1165.28	8.44829e-06
1173.96	7.58676e-06
1182.64	4.95349e-06
1191.32	3.9199e-06
1200	2.66425e-06
1208.67	2.46138e-06
1217.35	3.46117e-06
1226.03	7.50368e-06
1234.71	1.57536e-05
1243.39	2.5823e-05
1252.07	3.03787e-05
1260.74	3.33681e-05
1269.42	1.47568e-05
1278.1	3.71018e-05
1286.78	3.24184e-05
1295.46	2.89503e-05
1304.13	1.64357e-05
1312.81	6.53555e-06
1321.49	2.22897e-06
1330.17	6.52294e-07
1338.85	8.53629e-08
1347.52	-3.4497e-08
1356.2	-1.00835e-07
1364.88	-7.72739e-08
1373.56	-1.09801e-07
1382.24	-5.44894e-08
1390.92	-5.52843e-08
1399.59	-5.84547e-08
1408.27	-1.05886e-07
1416.95	-8.45553e-08
1425.63	4.79847e-09
1434.31	3.2306e-07
1442.98	8.87693e-07
1451.66	1.22318e-06
1460.34	1.16991e-06
1469.02	1.9376e-06
1477.7	2.65078e-06
1486.38	2.7404e-06
1495.05	3.1119e-06
1503.73	3.46127e-06
1512.41	2.5213e-06
1521.09	2.74086e-06
1529.77	1.85463e-06
1538.44	8.54608e-07
1547.12	2.41566e-07
1555.8	7.07492e-08
1564.48	1.06034e-07
1573.16	3.17823e-07
1581.83	5.89191e-07
1590.51	1.00245e-06
1599.19	1.65069e-06
1607.87	2.52234e-06
1616.55	3.21214e-06
1625.23	4.30817e-06
1633.9	4.1405e-06
1642.58	1.22176e-05
1651.26	4.7851e-06
1659.94	2.63725e-06
1668.62	1.48627e-06
1677.29	4.14345e-07
1685.97	1.03862e-07
1694.65	-6.05902e-09
1703.33	2.6074e-07
1712.01	7.23407e-07
1720.69	5.02997e-07
1729.36	1.80254e-07
1738.04	2.89211e-07
1746.72	9.6017e-07
1755.4	3.80936e-07
1764.08	2.4382e-07
1772.75	3.21756e-07
1781.43	1.12637e-07
1790.11	-5.62501e-08
1798.79	-6.71749e-08
1807.47	-3.27962e-08
1816.15	9.38212e-08
1824.82	5.61119e-08
1833.5	7.37669e-08
1842.18	2.7412e-08
1850.86	1.09648e-07
1859.54	1.4586e-07
1868.21	7.50256e-08
1876.89	-6.77916e-08
1885.57	-3.27125e-08
1894.25	-2.00524e-08
1902.93	1.26548e-07
1911.6	1.75493e-07
1920.28	2.15016e-07
1928.96	1.01631e-06
1937.64	5.84575e-07
1946.32	4.98955e-07
1955	1.02208e-06
1963.67	9.98505e-07
1972.35	1.14426e-06
1981.03	1.33659e-06
1989.71	1.79059e-06
1998.39	2.56449e-06
2007.06	2.45498e-06
2015.74	2.61564e-06
2024.42	1.20695e-06
2033.1	2.01724e-06
2041.78	2.01431e-06
2050.46	1.38343e-06
2059.13	1.07987e-06
2067.81	8.655e-07
2076.49	7.37011e-07
2085.17	1.51346e-06
2093.85	9.18554e-07
2102.52	1.97055e-06
2111.2	1.67127e-06
2119.88	1.36431e-06
2128.56	1.17446e-06
2137.24	9.22716e-07
2145.91	9.37422e-07
2154.59	9.1676e-07
2163.27	8.30417e-07
2171.95	4.9201e-07
2180.63	4.27917e-07
2189.31	4.74246e-07
2197.98	5.92014e-07
2206.66	6.8273e-07
2215.34	9.63301e-07
2224.02	1.72411e-06
2232.7	2.66629e-06
2241.37	3.43844e-06
2250.05	3.8455e-06
2258.73	4.18733e-06
2267.41	2.37244e-06
2276.09	3.95368e-06
2284.77	3.41574e-06
2293.44	2.26195e-06
2302.12	1.6724e-06
2310.8	2.8288e-06
2319.48	1.52599e-06
2328.16	1.34944e-06
2336.83	7.80435e-07
2345.51	4.11994e-07
2354.19	2.50745e-07
2362.87	1.62764e-07
2371.55	2.41539e-07
2380.23	2.8303e-07
2388.9	1.95237e-07
2397.58	1.8393e-07
2406.26	2.09674e-07
2414.94	2.35012e-08
2423.62	7.18879e-08
2432.29	6.15652e-08
2440.97	5.2343e-08
2449.65	6.93886e-08
2458.33	2.40515e-07
2467.01	-3.76147e-08
2475.68	-1.04449e-07
2484.36	-2.18474e-07
2493.04	-2.97691e-07
2501.72	-1.71637e-07
2510.4	-2.4122e-07
2519.08	-2.7617e-07
2527.75	-2.69749e-07
2536.43	-1.73591e-07
2545.11	-3.38558e-07
2553.79	-3.138e-07
2562.47	-1.22494e-07
2571.14	2.48109e-08
2579.82	2.08979e-07
2588.5	5.7861e-07
2597.18	7.24361e-07
2605.86	9.69142e-07
2614.54	5.18246e-07
2623.21	1.09105e-06
2631.89	1.26064e-06
2640.57	9.18263e-07
2649.25	4.23582e-07
2657.93	1.2814e-07
2666.6	-6.40245e-08
2675.28	-9.42395e-08
2683.96	-1.3407e-07
2692.64	-1.14119e-07
2701.32	-1.07067e-07
2709.99	7.16187e-08
2718.67	9.74027e-08
2727.35	2.14943e-07
2736.03	2.91926e-07
2744.71	3.85151e-07
2753.39	6.02883e-07
2762.06	3.92976e-07
2770.74	4.20663e-07
2779.42	1.96497e-07
2788.1	1.48574e-07
2796.78	9.6757e-08
2805.45	-3.77493e-08
2814.13	-9.93563e-08
2822.81	-7.86927e-08
2831.49	-1.03478e-07
2840.17	9.84978e-09
2848.85	1.53757e-07
2857.52	2.63587e-07
2866.2	7.68645e-07
2874.88	1.86954e-06
2883.56	5.03802e-06
2892.24	1.34517e-05
2900.91	2.69022e-05
2909.59	3.63859e-05
2918.27	3.72944e-05
2926.95	2.939e-05
2935.63	3.37587e-05
2944.31	4.54589e-05
2952.98	5.19363e-05
2961.66	4.93844e-05
2970.34	3.9097e-05
2979.02	5.77873e-05
2987.7	7.05322e-05
2996.37	6.59379e-05
3005.05	9.84698e-05
3013.73	8.68653e-05
3022.41	0.000115708
3031.09	0.00013086
3039.76	0.000103971
3048.44	7.36627e-05
3057.12	3.61613e-05
3065.8	0.00161132
3074.48	2.66436e-05
3083.16	6.20907e-05
3091.83	6.33635e-05
3100.51	5.72983e-05
3109.19	4.0408e-05
3117.87	1.85492e-05
3126.55	7.73183e-06
3135.22	3.02873e-06
3143.9	1.20536e-06
3152.58	5.20368e-07
3161.26	1.75255e-07
3169.94	9.19749e-08
3178.62	-2.07728e-08
3187.29	-2.48327e-08
3195.97	3.89298e-08
3204.65	-2.74375e-08
3213.33	-7.92257e-08
3222.01	-1.67106e-07
3230.68	-1.41857e-07
3239.36	-1.56849e-07
3248.04	-1.0672e-07
3256.72	-8.82042e-08
3265.4	-1.66499e-07
3274.07	-2.02121e-07
3282.75	-3.05052e-07
3291.43	-2.60674e-07
3300.11	-2.73345e-07
3308.79	-2.27498e-07
3317.47	-2.30534e-07
3326.14	-1.11463e-07
3334.82	-1.18999e-07
3343.5	-1.53215e-07
3352.18	-1.19143e-07
3360.86	-1.10447e-07
3369.53	-7.83398e-08
3378.21	-1.36049e-07
3386.89	-1.83806e-07
3395.57	-1.95759e-07
3404.25	-1.63614e-07
3412.93	-1.31861e-07
3421.6	-8.53829e-08
3430.28	-3.44497e-08
3438.96	-1.97701e-07
3447.64	-1.41824e-07
3456.32	-1.28127e-07
3464.99	-1.86325e-07
3473.67	-1.56287e-08
3482.35	-1.26792e-07
3491.03	-1.96041e-07
3499.71	-1.18306e-07
3508.39	-1.61989e-07
3517.06	-1.12135e-07
3525.74	-2.19494e-07
3534.42	-1.28003e-07
3543.1	-1.27316e-07
3551.78	-1.81676e-07
3560.45	-1.10352e-07
3569.13	-2.0824e-07
3577.81	-1.65167e-07
3586.49	-1.99233e-07
3595.17	-1.28722e-07
3603.84	-1.76954e-07
3612.52	-1.05597e-07
3621.2	-9.49689e-08
3629.88	-6.29021e-08
3638.56	-9.74773e-08
3647.24	-1.26732e-07
3655.91	-1.41648e-07
3664.59	-1.48462e-07
3673.27	-1.40813e-07
3681.95	5.11315e-09
3690.63	1.3863e-07
3699.3	2.09568e-07
3707.98	3.4912e-07
3716.66	5.07137e-07
3725.34	2.32516e-06
3734.02	8.04826e-07
3742.7	1.65703e-06
3751.37	1.38605e-06
3760.05	1.39316e-06
3768.73	2.40504e-06
3777.41	1.2879e-06
3786.09	1.35925e-06
3794.76	1.62531e-06
3803.44	2.23986e-06
3812.12	2.90808e-06
3820.8	2.39454e-06
3829.48	5.25926e-06
3838.16	3.32548e-06
3846.83	4.39942e-06
3855.51	3.62066e-06
3864.19	3.93727e-06
3872.87	5.10455e-06
3881.55	1.40296e-06
3890.22	1.53193e-06
3898.9	1.88594e-06
3907.58	1.4915e-06
3916.26	7.82809e-07
3924.94	3.68445e-07
3933.61	3.19597e-07
3942.29	9.13715e-07
3950.97	7.60206e-08
3959.65	-7.54513e-09
3968.33	5.03639e-08
