Infrared Spectrum: 1,2-Epoxyethane
Formula: C2 H4 O
CAS: 75-21-8
State: gas
Melting point: -111 C
Boiling point: 13.5 C
Class: IUPAC A
Instrument: IFS66V (Bruker)
Instrument parameters: KBr Beam splitter; MCT Detector; Multipass cell
Sampling: 1 L/min Flow
Resolution: 0.2410
Temperature: 23 C
Pressure: 101.3 kPa
Origin: NIST, Anayltical Chemistry Division, 301-975-3108
cm-1	(micromol/mol)-1m-1 (base 10)
575.048	-4.43284e-07
583.606	-5.64557e-07
592.163	5.23916e-08
600.721	-1.07777e-07
609.279	-6.0625e-07
617.836	-2.88601e-07
626.394	-2.18755e-07
634.951	2.0419e-08
643.509	-4.40068e-07
652.067	-1.758e-07
660.624	-2.4446e-08
669.182	-1.14096e-07
677.74	4.13254e-08
686.297	-2.5059e-07
694.855	-1.83218e-07
703.412	-1.38429e-07
711.97	-1.40128e-07
720.528	-2.10701e-07
729.085	-8.25781e-08
737.643	8.9177e-08
746.201	-1.06915e-08
754.758	2.04146e-07
763.316	7.0657e-07
771.873	1.38493e-06
780.431	3.74772e-06
788.989	6.27135e-06
797.546	1.1452e-05
806.104	1.63811e-05
814.662	2.84872e-05
823.219	1.69575e-05
831.777	5.24002e-05
840.334	0.000133781
848.892	0.000135913
857.45	0.000189753
866.007	0.000128614
874.565	0.000161632
883.123	0.000182772
891.68	0.000119379
900.238	0.000117137
908.795	9.49461e-05
917.353	5.53394e-05
925.911	2.22091e-05
934.468	7.59708e-06
943.026	2.839e-06
951.584	9.55937e-07
960.141	2.1108e-07
968.699	-1.45683e-07
977.256	6.69355e-09
985.814	-2.15343e-07
994.372	-1.42249e-07
1002.93	-2.11749e-07
1011.49	-5.3301e-08
1020.04	-1.8193e-07
1028.6	-4.19766e-08
1037.16	-1.78943e-08
1045.72	9.06794e-08
1054.28	2.40761e-07
1062.83	3.53812e-07
1071.39	7.39114e-07
1079.95	1.79506e-06
1088.51	1.64168e-06
1097.06	2.29872e-06
1105.62	3.03632e-06
1114.18	5.39325e-06
1122.74	5.67042e-06
1131.29	9.51138e-06
1139.85	6.82151e-06
1148.41	3.73041e-06
1156.97	6.49021e-06
1165.52	8.25707e-06
1174.08	7.79842e-06
1182.64	4.32665e-06
1191.2	4.40903e-06
1199.75	2.67042e-06
1208.31	2.74684e-06
1216.87	3.22244e-06
1225.43	7.12214e-06
1233.99	1.42618e-05
1242.54	2.55264e-05
1251.1	3.15499e-05
1259.66	3.11838e-05
1268.22	3.08472e-05
1276.77	4.49139e-05
1285.33	3.49481e-05
1293.89	3.28087e-05
1302.45	2.12761e-05
1311	6.91637e-06
1319.56	2.65343e-06
1328.12	7.87733e-07
1336.68	1.12794e-07
1345.23	-2.02516e-08
1353.79	-1.17403e-07
1362.35	-1.05569e-07
1370.91	-7.83509e-08
1379.46	-8.90861e-08
1388.02	-5.32283e-08
1396.58	-6.08968e-08
1405.14	-3.76039e-08
1413.7	-1.32616e-07
1422.25	-7.85619e-08
1430.81	1.61999e-07
1439.37	6.53247e-07
1447.93	1.31771e-06
1456.48	1.32537e-06
1465.04	1.45108e-06
1473.6	2.28516e-06
1482.16	2.44141e-06
1490.71	3.68846e-06
1499.27	2.03208e-06
1507.83	2.74108e-06
1516.39	2.94164e-06
1524.94	2.4064e-06
1533.5	1.36151e-06
1542.06	5.88425e-07
1550.62	9.91555e-08
1559.18	4.56835e-08
1567.73	1.69329e-07
1576.29	5.55299e-07
1584.85	5.50326e-07
1593.41	1.23825e-06
1601.96	2.87276e-06
1610.52	2.08419e-06
1619.08	3.31826e-06
1627.64	2.99641e-06
1636.19	4.18312e-06
1644.75	4.74899e-06
1653.31	4.19237e-06
1661.87	2.41786e-06
1670.42	1.41488e-06
1678.98	2.15565e-07
1687.54	-1.12444e-07
1696.1	1.62337e-07
1704.65	2.14095e-07
1713.21	5.51334e-07
1721.77	5.46932e-07
1730.33	1.63457e-07
1738.89	1.51962e-07
1747.44	8.58892e-07
1756	4.18394e-07
1764.56	2.6903e-07
1773.12	2.06012e-07
1781.67	1.19433e-07
1790.23	-8.32365e-08
1798.79	-4.14127e-08
1807.35	-4.05615e-09
1815.9	5.69861e-08
1824.46	8.32038e-08
1833.02	7.29233e-08
1841.58	4.75242e-08
1850.13	4.64911e-08
1858.69	1.3888e-07
1867.25	5.87141e-08
1875.81	-1.5708e-08
1884.36	-2.95717e-08
1892.92	5.97509e-08
1901.48	1.76641e-07
1910.04	1.72934e-07
1918.6	2.35337e-07
1927.15	6.56747e-07
1935.71	1.17359e-06
1944.27	5.95646e-07
1952.83	8.21866e-07
1961.38	1.47733e-06
1969.94	1.14496e-06
1978.5	1.40777e-06
1987.06	1.54079e-06
1995.61	2.44078e-06
2004.17	2.38322e-06
2012.73	3.61108e-06
2021.29	1.19379e-06
2029.84	1.85055e-06
2038.4	2.30616e-06
2046.96	1.51489e-06
2055.52	1.05921e-06
2064.08	9.59113e-07
2072.63	1.25038e-06
2081.19	1.16681e-06
2089.75	8.58386e-07
2098.31	1.96577e-06
2106.86	1.5906e-06
2115.42	1.57778e-06
2123.98	1.16476e-06
2132.54	1.10755e-06
2141.09	1.34145e-06
2149.65	7.70526e-07
2158.21	1.16436e-06
2166.77	8.30724e-07
2175.32	3.89819e-07
2183.88	3.1714e-07
2192.44	5.27437e-07
2201	5.97716e-07
2209.55	7.76299e-07
2218.11	1.25637e-06
2226.67	1.69744e-06
2235.23	2.74134e-06
2243.79	3.7553e-06
2252.34	3.82733e-06
2260.9	2.67215e-06
2269.46	3.81285e-06
2278.02	3.72281e-06
2286.57	2.75088e-06
2295.13	2.14797e-06
2303.69	1.52677e-06
2312.25	1.4087e-06
2320.8	1.41598e-06
2329.36	1.44986e-06
2337.92	6.2732e-07
2346.48	4.39319e-07
2355.03	2.3884e-07
2363.59	2.63235e-07
2372.15	2.60692e-07
2380.71	3.92842e-07
2389.26	1.63388e-07
2397.82	2.37567e-07
2406.38	1.56353e-07
2414.94	2.09537e-08
2423.5	6.2763e-08
2432.05	5.88014e-08
2440.61	7.16865e-08
2449.17	8.23634e-08
2457.73	2.5509e-07
2466.28	-4.07397e-08
2474.84	-2.02374e-07
2483.4	-2.09821e-07
2491.96	-2.42325e-07
2500.51	-1.91712e-07
2509.07	-2.02462e-07
2517.63	-2.26588e-07
2526.19	-2.81977e-07
2534.74	-4.41414e-07
2543.3	-2.65392e-07
2551.86	-2.61732e-07
2560.42	-9.62889e-08
2568.98	-4.05433e-08
2577.53	7.48841e-08
2586.09	4.85453e-07
2594.65	5.26237e-07
2603.21	9.55723e-07
2611.76	1.59194e-06
2620.32	1.60623e-06
2628.88	1.12253e-06
2637.44	1.27824e-06
2645.99	4.75817e-07
2654.55	1.27054e-07
2663.11	-5.07509e-08
2671.67	-8.93444e-08
2680.22	-1.70464e-07
2688.78	-1.54174e-07
2697.34	-6.81906e-08
2705.9	-4.73605e-08
2714.45	7.91185e-08
2723.01	1.02128e-07
2731.57	2.47429e-07
2740.13	4.92704e-07
2748.69	3.864e-07
2757.24	4.63689e-07
2765.8	5.82725e-07
2774.36	2.20131e-07
2782.92	1.5983e-07
2791.47	6.85944e-08
2800.03	1.90148e-08
2808.59	-8.08792e-08
2817.15	-1.60776e-07
2825.7	-1.21441e-07
2834.26	-1.16868e-07
2842.82	-1.13536e-08
2851.38	1.66029e-07
2859.93	2.87361e-07
2868.49	9.35926e-07
2877.05	2.28809e-06
2885.61	7.09617e-06
2894.16	1.77069e-05
2902.72	3.14286e-05
2911.28	3.62788e-05
2919.84	3.67278e-05
2928.4	2.89053e-05
2936.95	3.40567e-05
2945.51	4.70179e-05
2954.07	4.67046e-05
2962.63	4.77744e-05
2971.18	4.55348e-05
2979.74	5.599e-05
2988.3	6.89805e-05
2996.86	6.7438e-05
3005.41	0.000127442
3013.97	8.25936e-05
3022.53	0.000112171
3031.09	0.000153202
3039.64	0.000107927
3048.2	6.22056e-05
3056.76	4.91662e-05
3065.32	0.000896619
3073.88	4.0719e-05
3082.43	4.42086e-05
3090.99	0.000100886
3099.55	5.55621e-05
3108.11	4.14726e-05
3116.66	1.77489e-05
3125.22	7.31649e-06
3133.78	3.41071e-06
3142.34	1.42235e-06
3150.89	5.00056e-07
3159.45	1.48524e-07
3168.01	2.04081e-08
3176.57	-1.02149e-08
3185.12	-1.22947e-07
3193.68	-5.99146e-09
3202.24	-2.07718e-07
3210.8	-9.5896e-08
3219.35	-2.07151e-07
3227.91	-1.01797e-07
3236.47	-2.06922e-07
3245.03	-2.46519e-07
3253.59	-7.99261e-08
3262.14	-2.21135e-07
3270.7	-3.87473e-07
3279.26	-1.57699e-07
3287.82	-1.92971e-07
3296.37	-2.07198e-07
3304.93	-4.608e-08
3313.49	-9.54377e-08
3322.05	-2.30626e-07
3330.6	-2.15725e-07
3339.16	-3.23619e-08
3347.72	-1.08807e-07
3356.28	-1.10858e-07
3364.83	-1.21881e-07
3373.39	-2.48029e-07
3381.95	-3.22131e-07
3390.51	-2.22728e-07
3399.06	-2.00581e-07
3407.62	-9.64381e-08
3416.18	-6.0704e-08
3424.74	-2.85997e-07
3433.3	-1.91698e-07
3441.85	-6.39016e-08
3450.41	-1.54155e-07
3458.97	-1.07777e-07
3467.53	-7.33635e-08
3476.08	-2.29723e-07
3484.64	-1.66626e-07
3493.2	-7.18138e-08
3501.76	1.1351e-07
3510.31	-2.98485e-07
3518.87	-1.74473e-07
3527.43	-1.78318e-07
3535.99	-8.74527e-08
3544.54	-1.71082e-07
3553.1	-2.42805e-07
3561.66	-2.8062e-07
3570.22	-1.79093e-07
3578.78	-2.10399e-07
3587.33	-1.13077e-07
3595.89	-8.30182e-08
3604.45	-2.17104e-07
3613.01	-2.80955e-07
3621.56	5.70043e-09
3630.12	-1.22045e-07
3638.68	-1.31725e-07
3647.24	-8.54883e-08
3655.79	-1.81785e-07
3664.35	-1.76732e-07
3672.91	-2.88747e-07
3681.47	-3.38716e-08
3690.02	2.41372e-07
3698.58	1.23289e-07
3707.14	2.22986e-07
3715.7	6.25491e-07
3724.25	2.05242e-06
3732.81	7.42464e-07
3741.37	1.4009e-06
3749.93	1.04493e-06
3758.49	1.31712e-06
3767.04	1.87961e-06
3775.6	1.32409e-06
3784.16	1.55716e-06
3792.72	1.81185e-06
3801.27	2.11821e-06
3809.83	2.51688e-06
3818.39	2.06109e-06
3826.95	3.52639e-06
3835.5	3.46884e-06
3844.06	4.00265e-06
3852.62	3.79697e-06
3861.18	3.66565e-06
3869.73	5.22214e-06
3878.29	1.62068e-06
3886.85	1.3287e-06
3895.41	1.63114e-06
3903.96	1.91321e-06
3912.52	1.22748e-06
3921.08	4.18718e-07
3929.64	7.44865e-07
3938.2	2.95524e-07
3946.75	3.73791e-07
3955.31	6.4452e-07
3963.87	3.6669e-08
3972.43	-8.3593e-08
