Infrared Spectrum: 2-CHLOROPROPANE
Formula: C3 H7 Cl
CAS: 75-29-6
Class: COBLENTZ
Instrument: Not specified, most likely a prism, grating, or hybrid spectrometer.
Sampling: TRANSMISSION
Path length: 0.0025 CM
Resolution: 4
Origin: W.T. BOLLETER
MICROMETERS	TRANSMITTANCE
14.51	0.401
14.5803	0.391
14.6506	0.369
14.7208	0.348
14.7911	0.333
14.8614	0.326
14.9317	0.33
15.0019	0.326
15.0722	0.316
15.1425	0.3
15.2128	0.273
15.283	0.26
15.3533	0.242
15.4236	0.219
15.4939	0.198
15.5642	0.157
15.6344	0.112
15.7047	0.096
15.775	0.053
15.8453	0.046
15.9155	0.039
15.9858	0.033
16.0561	0.032
16.1264	0.032
16.1966	0.032
16.2669	0.03
16.3372	0.03
16.4075	0.03
16.4778	0.03
16.548	0.03
16.6183	0.032
16.6886	0.037
16.7589	0.041
16.8291	0.055
16.8994	0.078
16.9697	0.117
17.04	0.157
17.1102	0.216
17.1805	0.253
17.2508	0.283
17.3211	0.319
17.3914	0.337
17.4616	0.369
17.5319	0.391
17.6022	0.41
17.6725	0.419
17.7427	0.435
17.813	0.448
17.8833	0.455
17.9536	0.464
18.0238	0.475
18.0941	0.478
18.1644	0.48
18.2347	0.483
18.305	0.487
18.3752	0.492
18.4455	0.494
18.5158	0.5
18.5861	0.503
18.6563	0.508
18.7266	0.514
18.7969	0.516
18.8672	0.516
18.9374	0.517
19.0077	0.521
19.078	0.525
19.1483	0.526
19.2186	0.526
19.2888	0.528
19.3591	0.528
19.4294	0.528
19.4997	0.528
19.5699	0.526
19.6402	0.526
19.7105	0.525
19.7808	0.523
19.851	0.521
19.9213	0.519
19.9916	0.521
20.0619	0.519
20.1322	0.517
20.2024	0.514
20.2727	0.512
20.343	0.51
20.4133	0.507
20.4835	0.505
20.5538	0.503
20.6241	0.503
20.6944	0.503
20.7646	0.501
20.8349	0.5
20.9052	0.496
20.9755	0.496
21.0458	0.496
21.116	0.492
21.1863	0.491
21.2566	0.489
21.3269	0.489
21.3971	0.489
21.4674	0.489
21.5377	0.489
21.608	0.487
21.6782	0.485
21.7485	0.482
21.8188	0.478
21.8891	0.473
21.9594	0.467
22.0296	0.458
22.0999	0.451
22.1702	0.448
22.2405	0.439
22.3107	0.432
22.381	0.43
22.4513	0.426
22.5216	0.416
22.5918	0.41
22.6621	0.4
22.7324	0.392
22.8027	0.375
22.873	0.362
22.9432	0.341
23.0135	0.31
23.0838	0.291
23.1541	0.258
23.2243	0.221
23.2946	0.196
23.3649	0.153
23.4352	0.13
23.5054	0.11
23.5757	0.1
23.646	0.096
23.7163	0.101
23.7866	0.116
23.8568	0.148
23.9271	0.185
23.9974	0.233
24.0677	0.271
24.1379	0.31
24.2082	0.337
24.2785	0.36
24.3488	0.38
24.419	0.396
24.4893	0.41
24.5596	0.43
24.6299	0.439
24.7002	0.448
24.7704	0.453
24.8407	0.467
24.911	0.478
24.9813	0.483
25.0515	0.485
25.1218	0.491
25.1921	0.492
25.2624	0.494
25.3326	0.496
25.4029	0.5
25.4732	0.505
25.5435	0.501
25.6138	0.498
25.684	0.501
25.7543	0.505
25.8246	0.503
25.8949	0.507
25.9651	0.514
26.0354	0.516
26.1057	0.519
26.176	0.519
26.2462	0.523
26.3165	0.53
26.3868	0.532
26.4571	0.532
26.5274	0.533
26.5976	0.535
26.6679	0.539
26.7382	0.541
26.8085	0.542
26.8787	0.544
26.949	0.546
27.0193	0.548
27.0896	0.55
27.1598	0.55
27.2301	0.553
27.3004	0.555
27.3707	0.558
27.441	0.56
27.5112	0.558
27.5815	0.56
27.6518	0.562
27.7221	0.562
27.7923	0.558
27.8626	0.557
27.9329	0.557
28.0032	0.553
28.0734	0.55
28.1437	0.546
28.214	0.541
28.2843	0.53
28.3546	0.519
28.4248	0.503
28.4951	0.498
28.5654	0.483
28.6357	0.457
28.7059	0.423
28.7762	0.401
28.8465	0.378
28.9168	0.353
28.987	0.326
29.0573	0.285
29.1276	0.251
29.1979	0.219
29.2682	0.196
29.3384	0.167
29.4087	0.151
29.479	0.137
29.5493	0.114
29.6195	0.101
29.6898	0.092
29.7601	0.091
29.8304	0.089
29.9006	0.089
29.9709	0.091
30.0412	0.094
30.1115	0.098
30.1818	0.101
30.252	0.107
30.3223	0.11
30.3926	0.112
30.4629	0.112
30.5331	0.112
30.6034	0.112
30.6737	0.112
30.744	0.112
30.8142	0.114
30.8845	0.117
30.9548	0.123
31.0251	0.13
31.0954	0.142
31.1656	0.155
31.2359	0.185
31.3062	0.214
31.3765	0.251
31.4467	0.301
31.517	0.351
31.5873	0.38
31.6576	0.421
31.7278	0.448
31.7981	0.457
31.8684	0.476
31.9387	0.492
32.009	0.517
32.0792	0.532
32.1495	0.548
32.2198	0.566
32.2901	0.58
32.3603	0.592
32.4306	0.603
32.5009	0.619
32.5712	0.632
32.6414	0.648
32.7117	0.662
32.782	0.675
32.8523	0.7
32.9226	0.723
32.9928	0.728
33.0631	0.728
33.1334	0.728
33.2037	0.726
33.2739	0.73
33.3442	0.735
33.4145	0.748
33.4848	0.76
33.555	0.778
33.6253	0.792
33.6956	0.812
33.7659	0.828
33.8362	0.832
33.9064	0.839
33.9767	0.842
34.047	0.848
34.1173	0.858
34.1875	0.864
34.2578	0.873
34.3281	0.878
34.3984	0.882
34.4686	0.883
34.5389	0.882
34.6092	0.88
34.6795	0.88
34.7498	0.876
34.82	0.873
34.8903	0.878
34.9606	0.878
35.0309	0.871
35.1011	0.873
35.1714	0.871
35.2417	0.871
35.312	0.873
35.3822	0.873
35.4525	0.869
35.5228	0.867
35.5931	0.871
35.6634	0.873
35.7336	0.875
35.8039	0.875
35.8742	0.873
35.9445	0.869
36.0147	0.869
36.085	0.871
36.1553	0.869
36.2256	0.867
36.2958	0.867
36.3661	0.869
36.4364	0.869
36.5067	0.867
36.577	0.867
36.6472	0.864
36.7175	0.862
36.7878	0.866
36.8581	0.866
36.9283	0.864
36.9986	0.864
37.0689	0.862
37.1392	0.858
37.2094	0.862
37.2797	0.862
37.35	0.86
37.4203	0.86
37.4906	0.86
37.5608	0.858
37.6311	0.853
37.7014	0.851
37.7717	0.853
37.8419	0.851
37.9122	0.853
37.9825	0.851
