Infrared Spectrum: 1,2-Epoxyethane
Formula: C2 H4 O
CAS: 75-21-8
State: gas
Melting point: -111 C
Boiling point: 13.5 C
Class: IUPAC A
Instrument: IFS66V (Bruker)
Instrument parameters: KBr Beam splitter; MCT Detector; Multipass cell
Sampling: 1 L/min Flow
Resolution: 0.2410
Temperature: 23 C
Pressure: 101.3 kPa
Origin: NIST, Anayltical Chemistry Division, 301-975-3108
cm-1	(micromol/mol)-1m-1 (base 10)
575.048	5.14785e-08
583.606	-6.05304e-07
592.163	9.54188e-07
600.721	-6.56405e-08
609.279	-3.97753e-07
617.836	-6.50224e-07
626.394	-3.98197e-07
634.951	4.42076e-07
643.509	-4.83696e-07
652.067	1.46232e-07
660.624	1.76455e-07
669.182	-1.79347e-07
677.74	1.52351e-07
686.297	-3.61121e-07
694.855	-1.50387e-08
703.412	3.65199e-08
711.97	3.92882e-10
720.528	-2.0348e-07
729.085	-4.87283e-08
737.643	2.03568e-07
746.201	-2.06107e-07
754.758	8.28764e-08
763.316	8.29964e-07
771.873	1.5039e-06
780.431	4.23458e-06
788.989	5.97326e-06
797.546	1.13572e-05
806.104	1.64282e-05
814.662	2.84252e-05
823.219	1.60566e-05
831.777	5.14349e-05
840.334	0.000135137
848.892	0.000136095
857.45	0.000192604
866.007	0.000117343
874.565	0.000161325
883.123	0.000181975
891.68	0.000115514
900.238	0.00010847
908.795	9.79259e-05
917.353	5.6595e-05
925.911	2.16773e-05
934.468	7.26884e-06
943.026	2.76247e-06
951.584	8.73439e-07
960.141	1.69423e-07
968.699	-1.98358e-07
977.256	1.112e-07
985.814	-2.56359e-07
994.372	-1.37316e-07
1002.93	-2.38236e-07
1011.49	-8.08647e-08
1020.04	-2.41263e-07
1028.6	-1.39859e-07
1037.16	-6.68227e-08
1045.72	7.41238e-08
1054.28	2.83847e-07
1062.83	3.56366e-07
1071.39	6.22187e-07
1079.95	2.03243e-06
1088.51	1.68934e-06
1097.06	2.29187e-06
1105.62	2.97876e-06
1114.18	5.31012e-06
1122.74	5.58474e-06
1131.29	9.57986e-06
1139.85	6.84418e-06
1148.41	3.55032e-06
1156.97	6.30034e-06
1165.52	7.96917e-06
1174.08	8.02506e-06
1182.64	3.8861e-06
1191.2	4.54312e-06
1199.75	2.73608e-06
1208.31	3.01788e-06
1216.87	3.08767e-06
1225.43	7.25839e-06
1233.99	1.4183e-05
1242.54	2.70483e-05
1251.1	3.29521e-05
1259.66	3.11602e-05
1268.22	3.01232e-05
1276.77	4.57376e-05
1285.33	3.63917e-05
1293.89	3.43178e-05
1302.45	2.24135e-05
1311	6.12548e-06
1319.56	2.78093e-06
1328.12	7.88453e-07
1336.68	1.24453e-07
1345.23	-1.10298e-08
1353.79	-9.43936e-08
1362.35	-5.38467e-08
1370.91	-7.4473e-08
1379.46	-1.25737e-07
1388.02	-9.4139e-08
1396.58	-1.47513e-08
1405.14	5.25444e-08
1413.7	-1.59357e-07
1422.25	-1.11171e-07
1430.81	1.14867e-07
1439.37	6.40347e-07
1447.93	1.36403e-06
1456.48	1.34551e-06
1465.04	1.41e-06
1473.6	2.29437e-06
1482.16	2.37972e-06
1490.71	3.66379e-06
1499.27	2.02198e-06
1507.83	2.80482e-06
1516.39	3.21896e-06
1524.94	2.35055e-06
1533.5	1.35487e-06
1542.06	5.94347e-07
1550.62	8.55792e-08
1559.18	-3.23546e-08
1567.73	1.89991e-07
1576.29	6.06214e-07
1584.85	5.71724e-07
1593.41	1.17025e-06
1601.96	3.2136e-06
1610.52	2.00564e-06
1619.08	3.43692e-06
1627.64	2.81047e-06
1636.19	4.06484e-06
1644.75	4.76073e-06
1653.31	4.302e-06
1661.87	2.35307e-06
1670.42	1.43273e-06
1678.98	1.6377e-07
1687.54	-7.13045e-08
1696.1	1.30502e-07
1704.65	1.30779e-07
1713.21	5.00147e-07
1721.77	6.11387e-07
1730.33	1.60904e-07
1738.89	1.01651e-07
1747.44	8.24689e-07
1756	4.37154e-07
1764.56	3.60855e-07
1773.12	2.00483e-07
1781.67	1.51449e-07
1790.23	-1.24627e-07
1798.79	3.73384e-08
1807.35	-4.41629e-09
1815.9	2.82148e-08
1824.46	9.666e-08
1833.02	6.99112e-08
1841.58	8.93844e-08
1850.13	3.81642e-08
1858.69	1.69016e-07
1867.25	7.87147e-08
1875.81	-3.49738e-08
1884.36	4.09725e-08
1892.92	1.58252e-07
1901.48	2.31848e-07
1910.04	2.022e-07
1918.6	2.34944e-07
1927.15	7.14886e-07
1935.71	1.07308e-06
1944.27	5.51094e-07
1952.83	7.51137e-07
1961.38	1.57873e-06
1969.94	1.09204e-06
1978.5	1.41476e-06
1987.06	1.49934e-06
1995.61	2.53579e-06
2004.17	2.32588e-06
2012.73	3.85991e-06
2021.29	1.18583e-06
2029.84	1.75028e-06
2038.4	2.33706e-06
2046.96	1.40578e-06
2055.52	1.03685e-06
2064.08	9.30928e-07
2072.63	1.23333e-06
2081.19	1.16635e-06
2089.75	8.67903e-07
2098.31	1.90235e-06
2106.86	1.61165e-06
2115.42	1.44755e-06
2123.98	1.21875e-06
2132.54	1.12344e-06
2141.09	1.30047e-06
2149.65	7.46771e-07
2158.21	1.28472e-06
2166.77	8.6751e-07
2175.32	3.12371e-07
2183.88	2.59808e-07
2192.44	4.97535e-07
2201	6.05414e-07
2209.55	8.10425e-07
2218.11	1.25252e-06
2226.67	1.56447e-06
2235.23	2.43073e-06
2243.79	3.84216e-06
2252.34	3.74884e-06
2260.9	2.71943e-06
2269.46	3.74835e-06
2278.02	3.66722e-06
2286.57	2.71242e-06
2295.13	2.06628e-06
2303.69	1.41928e-06
2312.25	1.30649e-06
2320.8	1.34313e-06
2329.36	1.43223e-06
2337.92	5.53309e-07
2346.48	3.68164e-07
2355.03	1.95972e-07
2363.59	3.29512e-07
2372.15	2.54551e-07
2380.71	4.5526e-07
2389.26	1.33427e-07
2397.82	1.96299e-07
2406.38	8.51682e-08
2414.94	-1.67557e-08
2423.5	5.77392e-08
2432.05	8.37422e-08
2440.61	5.25262e-08
2449.17	1.09472e-07
2457.73	2.63639e-07
2466.28	3.04193e-08
2474.84	-2.88641e-07
2483.4	-1.8018e-07
2491.96	-2.74301e-07
2500.51	-2.22713e-07
2509.07	-1.81064e-07
2517.63	-2.17089e-07
2526.19	-2.87706e-07
2534.74	-4.64784e-07
2543.3	-2.46072e-07
2551.86	-2.4808e-07
2560.42	-7.58081e-08
2568.98	-1.24114e-07
2577.53	7.85983e-08
2586.09	4.99394e-07
2594.65	4.99168e-07
2603.21	9.86513e-07
2611.76	1.58776e-06
2620.32	1.58842e-06
2628.88	1.1279e-06
2637.44	1.39046e-06
2645.99	4.26266e-07
2654.55	5.90269e-08
2663.11	-5.40868e-08
2671.67	-1.36898e-07
2680.22	-1.89973e-07
2688.78	-1.92974e-07
2697.34	-6.51675e-08
2705.9	-9.68892e-08
2714.45	4.78662e-08
2723.01	9.46374e-08
2731.57	1.96172e-07
2740.13	2.50903e-07
2748.69	3.82136e-07
2757.24	4.9772e-07
2765.8	5.77257e-07
2774.36	2.33587e-07
2782.92	1.89817e-07
2791.47	6.79832e-08
2800.03	-3.92155e-09
2808.59	-4.43084e-08
2817.15	-1.52464e-07
2825.7	-2.04011e-07
2834.26	-1.11509e-07
2842.82	-8.22907e-08
2851.38	2.30826e-07
2859.93	2.03338e-07
2868.49	9.6258e-07
2877.05	2.22447e-06
2885.61	7.48511e-06
2894.16	1.84945e-05
2902.72	3.169e-05
2911.28	3.56227e-05
2919.84	3.63259e-05
2928.4	2.69601e-05
2936.95	3.30698e-05
2945.51	4.5163e-05
2954.07	4.29633e-05
2962.63	4.74597e-05
2971.18	4.57198e-05
2979.74	5.58692e-05
2988.3	6.76971e-05
2996.86	6.80263e-05
3005.41	0.000120707
3013.97	8.16372e-05
3022.53	0.000112314
3031.09	0.000163894
3039.64	0.000111006
3048.2	6.18879e-05
3056.76	5.18973e-05
3065.32	0.000873839
3073.88	4.37144e-05
3082.43	4.04375e-05
3090.99	0.00010825
3099.55	5.19644e-05
3108.11	4.25434e-05
3116.66	1.67339e-05
3125.22	6.75866e-06
3133.78	3.29767e-06
3142.34	1.39002e-06
3150.89	5.95697e-07
3159.45	1.07166e-07
3168.01	-2.30964e-08
3176.57	-9.01847e-08
3185.12	-1.19203e-07
3193.68	-1.22954e-07
3202.24	-2.94884e-07
3210.8	-1.29156e-07
3219.35	-1.40576e-07
3227.91	-1.60693e-07
3236.47	-1.52093e-07
3245.03	-3.79674e-07
3253.59	-5.71135e-10
3262.14	-1.69096e-07
3270.7	-3.8592e-07
3279.26	-3.34972e-07
3287.82	-1.49801e-07
3296.37	-1.00065e-07
3304.93	1.43071e-07
3313.49	-7.72596e-08
3322.05	-3.16638e-07
3330.6	-1.73563e-07
3339.16	2.22888e-08
3347.72	-1.06126e-07
3356.28	-7.822e-08
3364.83	-9.13015e-08
3373.39	-2.35686e-07
3381.95	-4.37442e-07
3390.51	-3.34881e-07
3399.06	-2.44518e-07
3407.62	-1.47044e-07
3416.18	5.10893e-08
3424.74	-4.27798e-07
3433.3	-1.07439e-07
3441.85	-4.99215e-08
3450.41	-2.41335e-07
3458.97	7.92895e-08
3467.53	5.58912e-08
3476.08	-2.43398e-07
3484.64	-1.90639e-07
3493.2	8.08574e-08
3501.76	1.82887e-07
3510.31	-3.0249e-07
3518.87	-1.81184e-07
3527.43	-1.03383e-07
3535.99	-3.48283e-08
3544.54	-2.26813e-07
3553.1	-1.91588e-07
3561.66	-4.03548e-07
3570.22	-2.17842e-07
3578.78	-1.93877e-07
3587.33	-1.9455e-07
3595.89	-1.25333e-07
3604.45	-2.86109e-07
3613.01	-3.13389e-07
3621.56	1.54275e-07
3630.12	-2.04062e-07
3638.68	-7.57608e-08
3647.24	-1.59336e-09
3655.79	-2.30986e-07
3664.35	-1.17945e-07
3672.91	-3.78062e-07
3681.47	-6.40071e-08
3690.02	2.98885e-07
3698.58	8.34657e-08
3707.14	1.62635e-07
3715.7	6.21649e-07
3724.25	2.06078e-06
3732.81	6.31897e-07
3741.37	1.37323e-06
3749.93	9.54613e-07
3758.49	1.47293e-06
3767.04	1.9056e-06
3775.6	1.34688e-06
3784.16	1.52741e-06
3792.72	1.89668e-06
3801.27	2.10159e-06
3809.83	2.47851e-06
3818.39	1.97271e-06
3826.95	3.67976e-06
3835.5	3.47597e-06
3844.06	3.9736e-06
3852.62	3.75187e-06
3861.18	3.80732e-06
3869.73	5.08119e-06
3878.29	1.74401e-06
3886.85	1.27936e-06
3895.41	1.77436e-06
3903.96	1.96961e-06
3912.52	1.26245e-06
3921.08	3.89976e-07
3929.64	8.82643e-07
3938.2	3.3204e-07
3946.75	4.62845e-07
3955.31	7.65138e-07
3963.87	6.0915e-08
3972.43	-7.68704e-08
