Infrared Spectrum: 1,1-Dichloroethene
Formula: C H2 C Cl2
CAS: 75-35-4
State: gas
Melting point: -122.1 C
Boiling point: 37 C
Class: IUPAC A
Instrument: IFS66V (Bruker)
Instrument parameters: KBr Beam Splitter; MCT Detector; Multipass cell
Sampling: 1 L/min Flow
Resolution: 1.9290
Temperature: 23 C
Pressure: 101.3 Pa
Origin: NIST, Analytical Chemistry Division, 301-975-3108
cm-1	(micromol/mol)-1m-1 (base 10)
575.652	6.34432e-06
584.33	2.28837e-05
593.008	6.1979e-05
601.687	5.39509e-05
610.365	8.17559e-05
619.043	3.0004e-05
627.721	8.37659e-06
636.399	1.21492e-06
645.077	4.13445e-08
653.756	-1.38399e-07
662.434	-7.03336e-08
671.112	7.87682e-08
679.79	6.21561e-07
688.468	1.0503e-07
697.147	-1.54041e-07
705.825	-1.97744e-07
714.503	-7.66318e-08
723.181	-3.16848e-08
731.859	5.37863e-08
740.537	1.87852e-07
749.216	7.85939e-07
757.894	5.69545e-06
766.572	3.10191e-05
775.25	0.000130061
783.928	0.000398965
792.607	0.000486699
801.285	0.000457281
809.963	0.000106446
818.641	7.85031e-06
827.319	7.90245e-06
835.997	1.22832e-05
844.676	4.02367e-05
853.354	9.79388e-05
862.032	0.000191594
870.71	0.000200877
879.388	0.00013595
888.066	0.000100108
896.745	2.46776e-05
905.423	1.02202e-05
914.101	4.49948e-06
922.779	5.55673e-06
931.457	3.28468e-06
940.136	1.52557e-06
948.814	1.0352e-06
957.492	6.57212e-07
966.17	6.19731e-07
974.848	3.44531e-07
983.526	4.54763e-07
992.205	1.59508e-07
1000.88	3.50558e-07
1009.56	1.0452e-06
1018.24	1.30032e-06
1026.92	1.04644e-06
1035.6	2.35999e-07
1044.27	5.20514e-07
1052.95	3.50281e-06
1061.63	2.16389e-05
1070.31	0.000117197
1078.99	0.000267366
1087.66	0.000417923
1096.34	0.000411385
1105.02	0.000280554
1113.7	2.93994e-05
1122.38	1.60196e-05
1131.06	6.2422e-05
1139.73	7.93598e-05
1148.41	6.13722e-05
1157.09	8.33499e-06
1165.77	8.4771e-07
1174.45	8.76094e-07
1183.12	4.04417e-07
1191.8	1.16668e-07
1200.48	1.13362e-07
1209.16	2.48327e-08
1217.84	-1.11333e-07
1226.52	-3.94446e-08
1235.19	1.069e-07
1243.87	3.04996e-07
1252.55	3.43746e-07
1261.23	2.80117e-07
1269.91	-8.55739e-08
1278.58	-5.17063e-08
1287.26	1.65317e-07
1295.94	1.14787e-06
1304.62	3.41621e-06
1313.3	5.84433e-06
1321.98	5.65058e-06
1330.65	3.66019e-06
1339.33	1.70908e-06
1348.01	1.18352e-06
1356.69	1.24502e-06
1365.37	1.44521e-06
1374.04	3.784e-06
1382.72	8.71891e-06
1391.4	1.22319e-05
1400.08	1.05239e-05
1408.76	5.55295e-06
1417.44	3.72818e-08
1426.11	1.3133e-08
1434.79	-2.39469e-09
1443.47	-1.40162e-08
1452.15	7.2641e-09
1460.83	8.8809e-08
1469.5	7.68037e-08
1478.18	9.49935e-08
1486.86	3.53382e-08
1495.54	4.46087e-08
1504.22	1.22075e-07
1512.9	3.14101e-07
1521.57	1.01782e-06
1530.25	4.10053e-06
1538.93	9.93675e-06
1547.61	2.37229e-05
1556.29	5.19812e-05
1564.96	6.8268e-05
1573.64	7.06449e-05
1582.32	5.10858e-05
1591	3.34087e-05
1599.68	6.3635e-05
1608.36	0.000171241
1617.03	0.00026056
1625.71	0.000275873
1634.39	0.000173368
1643.07	4.86073e-05
1651.75	7.04879e-06
1660.42	7.6582e-07
1669.1	2.89869e-07
1677.78	5.62904e-07
1686.46	6.08928e-07
1695.14	8.50674e-07
1703.82	4.96304e-07
1712.49	5.19182e-07
1721.17	1.61919e-06
1729.85	4.17292e-06
1738.53	8.38368e-06
1747.21	8.63223e-06
1755.88	5.61178e-06
1764.56	2.01099e-06
1773.24	9.73576e-07
1781.92	2.99775e-07
1790.6	3.31443e-07
1799.28	8.27881e-08
1807.95	5.15754e-07
1816.63	5.85775e-08
1825.31	-1.33195e-08
1833.99	-5.51151e-10
1842.67	1.28475e-07
1851.34	3.0762e-07
1860.02	5.08481e-07
1868.7	1.00283e-06
1877.38	1.12193e-06
1886.06	9.33452e-07
1894.74	7.5007e-07
1903.41	3.24135e-07
1912.09	2.94075e-07
1920.77	3.91303e-07
1929.45	4.47279e-07
1938.13	2.88619e-07
1946.8	1.35738e-07
1955.48	-3.88998e-08
1964.16	-5.66421e-08
1972.84	9.9671e-09
1981.52	2.55414e-07
1990.2	2.87566e-07
1998.87	2.91522e-07
2007.55	-2.2901e-08
2016.23	-7.99051e-08
2024.91	-6.70985e-08
2033.59	-6.90121e-08
2042.26	-1.02949e-07
2050.94	-4.17338e-08
2059.62	-4.66414e-08
2068.3	3.11318e-09
2076.98	-5.31961e-09
2085.66	-2.97558e-08
2094.33	-1.91066e-08
2103.01	-6.49767e-08
2111.69	-6.64983e-08
2120.37	-7.35468e-08
2129.05	-1.39404e-07
2137.72	-2.28838e-07
2146.4	-2.79005e-07
2155.08	-3.06436e-07
2163.76	-3.68524e-07
2172.44	-3.07817e-07
2181.12	-2.79967e-07
2189.79	-2.60793e-07
2198.47	-8.91637e-08
2207.15	1.58516e-07
2215.83	4.6968e-07
2224.51	6.83657e-07
2233.18	5.67097e-07
2241.86	9.42259e-08
2250.54	-9.47552e-08
2259.22	-2.04694e-07
2267.9	-2.02422e-07
2276.58	-3.5036e-07
2285.25	-2.08178e-07
2293.93	-2.36177e-07
2302.61	-1.94752e-07
2311.29	-9.09072e-08
2319.97	-2.51929e-10
2328.64	9.31118e-08
2337.32	1.85099e-07
2346	1.75398e-07
2354.68	4.92352e-08
2363.36	-1.35549e-07
2372.04	-8.14066e-08
2380.71	-9.25915e-08
2389.39	2.8407e-08
2398.07	1.65432e-07
2406.75	4.59021e-07
2415.43	1.04973e-06
2424.1	1.3691e-06
2432.78	1.20391e-06
2441.46	4.89786e-07
2450.14	4.09389e-08
2458.82	1.39227e-07
2467.5	-1.65118e-08
2476.17	-4.61121e-08
2484.85	-4.40457e-08
2493.53	-8.19205e-08
2502.21	-8.26563e-08
2510.89	-5.49514e-08
2519.56	-5.5659e-08
2528.24	-6.74169e-08
2536.92	-8.42915e-08
2545.6	-1.44049e-07
2554.28	-1.60047e-07
2562.96	-1.24554e-07
2571.63	-1.24152e-07
2580.31	-1.06952e-07
2588.99	-1.31561e-07
2597.67	-6.52123e-08
2606.35	-3.73809e-08
2615.02	5.97589e-08
2623.7	3.17912e-08
2632.38	1.49554e-07
2641.06	1.34773e-07
2649.74	1.46585e-07
2658.42	1.35925e-07
2667.09	9.69726e-08
2675.77	1.11258e-08
2684.45	5.35535e-08
2693.13	2.83001e-07
2701.81	3.47532e-07
2710.48	4.54321e-07
2719.16	7.80051e-08
2727.84	1.19361e-08
2736.52	-1.12026e-07
2745.2	-4.32553e-09
2753.88	-3.36257e-08
2762.55	-9.52873e-09
2771.23	-1.19221e-07
2779.91	-9.55556e-08
2788.59	-8.32711e-08
2797.27	-1.65856e-07
2805.94	-1.2257e-07
2814.62	-1.17464e-07
2823.3	-5.65675e-08
2831.98	-1.27838e-08
2840.66	-4.08343e-08
2849.34	-1.72876e-08
2858.01	-3.06389e-08
2866.69	-9.45779e-09
2875.37	1.28453e-07
2884.05	6.03783e-08
2892.73	3.14674e-08
2901.4	2.71646e-08
2910.08	7.82925e-08
2918.76	2.32773e-07
2927.44	1.35166e-07
2936.12	3.33789e-07
2944.8	3.96479e-07
2953.47	3.91334e-07
2962.15	4.38554e-07
2970.83	2.56482e-07
2979.51	1.69342e-07
2988.19	5.14206e-07
2996.86	5.52527e-07
3005.54	8.78616e-07
3014.22	4.02198e-07
3022.9	2.25323e-07
3031.58	4.82995e-07
3040.26	9.11319e-07
3048.93	7.87335e-07
3057.61	4.96758e-07
3066.29	7.91729e-08
3074.97	-4.02431e-08
3083.65	-8.14858e-08
3092.32	9.72154e-09
3101	-3.7471e-08
3109.68	-1.4091e-07
3118.36	-2.81182e-07
3127.04	-3.69117e-07
3135.72	-3.55416e-07
3144.39	-1.86496e-07
3153.07	-2.42214e-07
3161.75	1.3732e-07
3170.43	9.65577e-07
3179.11	2.26578e-06
3187.78	2.97933e-06
3196.46	3.10586e-06
3205.14	1.57673e-06
3213.82	1.80669e-07
3222.5	-3.31979e-07
3231.18	4.60757e-08
3239.85	5.59815e-07
3248.53	5.04233e-07
3257.21	-8.16667e-08
3265.89	-5.75626e-07
3274.57	-5.45769e-07
3283.24	-3.4561e-07
3291.92	-1.47546e-07
3300.6	1.56983e-07
3309.28	1.10951e-07
3317.96	1.65744e-07
3326.64	1.08256e-07
3335.31	4.3912e-08
3343.99	2.04574e-07
3352.67	8.72874e-08
3361.35	2.40221e-07
3370.03	2.71246e-08
3378.7	-1.53717e-07
3387.38	-9.82104e-08
3396.06	-6.9083e-08
3404.74	-5.62883e-09
3413.42	2.83506e-08
3422.1	1.1788e-07
3430.77	4.8806e-08
3439.45	-8.41642e-09
3448.13	-1.13885e-07
3456.81	-1.66183e-07
3465.49	-1.88893e-07
3474.16	-1.77563e-07
3482.84	-1.4863e-07
3491.52	-2.65107e-08
3500.2	1.44724e-07
3508.88	8.088e-08
3517.56	2.24873e-07
3526.23	-6.40863e-08
3534.91	-3.21568e-08
3543.59	-4.345e-08
3552.27	-1.00787e-07
3560.95	-9.58248e-08
3569.62	-8.69536e-08
3578.3	-8.19705e-08
3586.98	-7.79669e-08
3595.66	-5.61264e-08
3604.34	-8.9743e-08
3613.02	-7.17033e-08
3621.69	1.12322e-08
3630.37	1.05328e-08
3639.05	1.31176e-07
3647.73	9.44906e-08
3656.41	1.51674e-07
3665.08	6.19963e-08
3673.76	-1.09657e-08
3682.44	-1.04525e-07
3691.12	-1.64956e-07
3699.8	-6.02492e-08
3708.48	-6.57934e-08
3717.15	-9.13082e-08
3725.83	1.09664e-07
3734.51	2.24145e-07
3743.19	2.81531e-07
3751.87	1.56302e-07
3760.54	-4.87096e-08
3769.22	-9.97647e-08
3777.9	-4.29216e-08
3786.58	-8.21852e-08
3795.26	-1.07079e-07
3803.94	-8.32611e-08
3812.61	-7.29447e-08
3821.29	-1.41137e-07
3829.97	-9.06098e-08
3838.65	-8.62915e-08
3847.33	-2.90264e-08
3856	-9.96519e-08
3864.68	-1.31553e-07
3873.36	-7.58897e-08
3882.04	-2.19133e-08
3890.72	-2.10392e-08
3899.4	-3.56365e-08
3908.07	2.18405e-08
3916.75	6.61045e-08
3925.43	1.78777e-07
3934.11	1.6921e-07
3942.79	1.27279e-07
3951.46	-2.52202e-08
3960.14	-1.05875e-07
3968.82	-9.68752e-08
