Infrared Spectrum: 1,1-Dichloroethene
Formula: C H2 C Cl2
CAS: 75-35-4
State: gas
Melting point: -122.1 C
Boiling point: 37 C
Class: IUPAC A
Instrument: IFS66V (Bruker)
Instrument parameters: KBr Beam Splitter; MCT Detector; Multipass cell
Sampling: 1 L/min Flow
Resolution: 0.4820
Temperature: 23 C
Pressure: 101.3 Pa
Origin: NIST, Analytical Chemistry Division, 301-975-3108
cm-1	(micromol/mol)-1m-1 (base 10)
575.17	6.35911e-06
583.848	2.12801e-05
592.526	6.03646e-05
601.205	5.5097e-05
609.883	8.41081e-05
618.561	3.16088e-05
627.239	8.52334e-06
635.917	1.17394e-06
644.595	-1.24446e-07
653.274	-3.59416e-07
661.952	-4.16486e-07
670.63	-5.34811e-08
679.308	1.08417e-06
687.986	3.5916e-08
696.665	-3.85283e-07
705.343	-1.99182e-07
714.021	-2.56265e-08
722.699	-1.65629e-07
731.377	1.3225e-07
740.055	1.19789e-07
748.734	9.05328e-07
757.412	5.09385e-06
766.09	2.86458e-05
774.768	0.000116101
783.446	0.000392067
792.124	0.000405818
800.803	0.000451519
809.481	0.000121952
818.159	8.28761e-06
826.837	5.74952e-06
835.515	1.14456e-05
844.194	3.76646e-05
852.872	9.50923e-05
861.55	0.00028627
870.228	0.000152542
878.906	0.000136854
887.584	9.71826e-05
896.263	2.64756e-05
904.941	1.03155e-05
913.619	3.92519e-06
922.297	5.65629e-06
930.975	2.55622e-06
939.654	1.68193e-06
948.332	1.02789e-06
957.01	5.86492e-07
965.688	6.23384e-07
974.366	3.26312e-07
983.044	4.38097e-07
991.723	2.67142e-07
1000.4	2.16025e-07
1009.08	9.02753e-07
1017.76	1.77267e-06
1026.44	1.02426e-06
1035.11	2.47056e-07
1043.79	4.09567e-07
1052.47	3.46665e-06
1061.15	1.89461e-05
1069.83	0.000107159
1078.5	0.000293268
1087.18	0.000379018
1095.86	0.000325804
1104.54	0.000293095
1113.22	3.33673e-05
1121.9	1.53326e-05
1130.57	6.27783e-05
1139.25	0.000152866
1147.93	6.40904e-05
1156.61	9.38542e-06
1165.29	8.95672e-07
1173.96	9.01178e-07
1182.64	5.25211e-07
1191.32	8.06955e-08
1200	1.31057e-07
1208.68	6.26102e-08
1217.36	-1.48988e-07
1226.03	1.20684e-08
1234.71	6.11387e-08
1243.39	2.86899e-07
1252.07	4.6847e-07
1260.75	3.67114e-07
1269.42	-1.35397e-07
1278.1	-5.20387e-08
1286.78	9.66727e-08
1295.46	1.04175e-06
1304.14	3.25574e-06
1312.82	6.03064e-06
1321.49	5.59032e-06
1330.17	3.8499e-06
1338.85	1.71872e-06
1347.53	9.37543e-07
1356.21	1.28546e-06
1364.88	1.31987e-06
1373.56	3.74739e-06
1382.24	8.63106e-06
1390.92	1.32488e-05
1399.6	9.3972e-06
1408.28	6.18369e-06
1416.95	1.23158e-08
1425.63	9.14543e-09
1434.31	1.5668e-08
1442.99	5.06927e-09
1451.67	-1.15718e-08
1460.34	2.4979e-08
1469.02	1.31335e-07
1477.7	1.22314e-07
1486.38	1.22376e-08
1495.06	8.55538e-08
1503.74	1.42418e-07
1512.41	2.84774e-07
1521.09	8.0934e-07
1529.77	3.77548e-06
1538.45	9.70347e-06
1547.13	2.21132e-05
1555.8	5.03287e-05
1564.48	6.93215e-05
1573.16	6.60882e-05
1581.84	5.37949e-05
1590.52	3.30047e-05
1599.2	6.02078e-05
1607.87	0.00016245
1616.55	0.000266345
1625.23	0.000252848
1633.91	0.000185542
1642.59	5.21022e-05
1651.26	7.93841e-06
1659.94	7.77023e-07
1668.62	3.4098e-07
1677.3	4.50583e-07
1685.98	5.96974e-07
1694.66	1.18343e-06
1703.33	4.36752e-07
1712.01	4.63845e-07
1720.69	1.52919e-06
1729.37	3.86812e-06
1738.05	8.57576e-06
1746.72	8.28148e-06
1755.4	5.81449e-06
1764.08	2.10377e-06
1772.76	6.88541e-07
1781.44	3.4026e-07
1790.12	3.79728e-07
1798.79	9.32732e-08
1807.47	3.80632e-07
1816.15	1.03836e-07
1824.83	1.11862e-08
1833.51	-2.34092e-09
1842.18	1.41578e-07
1850.86	2.87179e-07
1859.54	5.0532e-07
1868.22	9.7441e-07
1876.9	1.03845e-06
1885.58	8.42187e-07
1894.25	8.62719e-07
1902.93	3.17534e-07
1911.61	2.86417e-07
1920.29	4.00944e-07
1928.97	5.02258e-07
1937.64	3.22204e-07
1946.32	1.49588e-07
1955	-4.06197e-08
1963.68	-7.69631e-08
1972.36	6.96839e-08
1981.04	2.51057e-07
1989.71	3.51761e-07
1998.39	2.80613e-07
2007.07	-6.82415e-08
2015.75	-6.58023e-08
2024.43	-8.26217e-08
2033.1	-6.50566e-08
2041.78	-8.90315e-08
2050.46	-1.22958e-09
2059.14	-6.55059e-08
2067.82	-5.03253e-08
2076.5	-2.86986e-08
2085.17	1.96987e-09
2093.85	-1.8069e-08
2102.53	-3.68855e-08
2111.21	-3.09322e-08
2119.89	-3.95811e-08
2128.56	-1.01154e-07
2137.24	-2.73019e-07
2145.92	-3.0934e-07
2154.6	-2.38451e-07
2163.28	-3.21922e-07
2171.96	-4.04378e-07
2180.63	-3.02221e-07
2189.31	-3.1563e-07
2197.99	-8.31783e-08
2206.67	1.02299e-07
2215.35	4.25233e-07
2224.02	6.58427e-07
2232.7	5.75918e-07
2241.38	1.64658e-07
2250.06	-5.81848e-08
2258.74	-1.68021e-07
2267.42	-2.72955e-07
2276.09	-3.09511e-07
2284.77	-2.41364e-07
2293.45	-2.05183e-07
2302.13	-1.86694e-07
2310.81	-1.08552e-07
2319.48	3.60342e-08
2328.16	1.0628e-07
2336.84	2.84974e-07
2345.52	1.1355e-07
2354.2	9.91592e-08
2362.88	-2.32172e-07
2371.55	-1.07706e-07
2380.23	-8.73872e-08
2388.91	1.63374e-08
2397.59	2.09956e-07
2406.27	4.93619e-07
2414.94	1.02031e-06
2423.62	1.5075e-06
2432.3	1.10655e-06
2440.98	5.49066e-07
2449.66	-2.89514e-08
2458.34	2.27339e-07
2467.01	-5.95235e-08
2475.69	-7.75324e-08
2484.37	-5.07291e-08
2493.05	-1.10844e-07
2501.73	-1.44666e-07
2510.4	-1.07304e-07
2519.08	-2.26289e-08
2527.76	-1.26843e-07
2536.44	4.02341e-08
2545.12	-1.24807e-07
2553.8	-1.25677e-07
2562.47	-8.13776e-08
2571.15	-1.49963e-07
2579.83	-1.70007e-07
2588.51	-9.48011e-08
2597.19	-7.30088e-08
2605.86	2.19523e-08
2614.54	3.12851e-08
2623.22	4.27933e-08
2631.9	9.23837e-08
2640.58	4.70731e-08
2649.26	2.0001e-07
2657.93	1.19962e-07
2666.61	1.695e-07
2675.29	9.24001e-08
2683.97	7.22231e-08
2692.65	2.92834e-07
2701.32	4.0285e-07
2710	5.20675e-07
2718.68	1.5086e-07
2727.36	-2.62285e-09
2736.04	-1.73823e-07
2744.71	1.08243e-08
2753.39	7.49732e-08
2762.07	-7.47713e-08
2770.75	-1.91417e-07
2779.43	-9.68619e-08
2788.11	-1.03863e-07
2796.78	-1.89093e-07
2805.46	-1.01962e-07
2814.14	-1.08192e-07
2822.82	-4.66348e-08
2831.5	-2.27799e-08
2840.17	2.05754e-08
2848.85	7.15119e-08
2857.53	4.92995e-08
2866.21	-2.531e-08
2874.89	1.6618e-07
2883.57	1.21279e-07
2892.24	-6.14788e-10
2900.92	7.29288e-08
2909.6	1.48986e-08
2918.28	2.92241e-07
2926.96	9.42299e-08
2935.63	4.24171e-07
2944.31	6.18995e-07
2952.99	4.4371e-07
2961.67	3.50446e-07
2970.35	3.27264e-07
2979.03	2.20487e-07
2987.7	5.26421e-07
2996.38	5.92825e-07
3005.06	9.43756e-07
3013.74	3.53278e-07
3022.42	2.19863e-07
3031.09	4.14291e-07
3039.77	9.2419e-07
3048.45	6.56708e-07
3057.13	5.3731e-07
3065.81	9.54704e-08
3074.49	9.27439e-08
3083.16	-5.66005e-08
3091.84	-6.02274e-08
3100.52	-1.58097e-07
3109.2	-1.81484e-07
3117.88	-1.66277e-07
3126.55	-4.51851e-07
3135.23	-3.89414e-07
3143.91	-8.61395e-08
3152.59	-3.53732e-07
3161.27	9.97739e-08
3169.95	9.17548e-07
3178.62	2.15908e-06
3187.3	3.072e-06
3195.98	2.88635e-06
3204.66	1.80972e-06
3213.34	2.54519e-07
3222.01	-4.09969e-07
3230.69	5.3101e-08
3239.37	5.32736e-07
3248.05	4.5636e-07
3256.73	-4.82918e-09
3265.41	-5.67062e-07
3274.08	-6.10228e-07
3282.76	-2.28905e-07
3291.44	-1.11593e-07
3300.12	2.4838e-07
3308.8	1.52526e-07
3317.47	1.06593e-07
3326.15	1.35748e-07
3334.83	8.33984e-08
3343.51	2.98578e-07
3352.19	2.22979e-08
3360.87	2.16693e-07
3369.54	-6.28794e-08
3378.22	-1.48189e-07
3386.9	9.58378e-09
3395.58	-6.80869e-08
3404.26	2.28072e-08
3412.93	3.20363e-08
3421.61	1.18274e-07
3430.29	-1.04059e-08
3438.97	2.16431e-08
3447.65	-4.65511e-08
3456.33	-2.65448e-07
3465	-1.51553e-07
3473.68	-1.66218e-07
3482.36	-1.78405e-07
3491.04	2.39913e-09
3499.72	2.08206e-07
3508.39	3.19945e-08
3517.07	3.00737e-07
3525.75	-9.56469e-08
3534.43	1.20964e-07
3543.11	-7.06879e-08
3551.79	-2.50342e-07
3560.46	-1.44999e-07
3569.14	3.3526e-08
3577.82	-1.02562e-07
3586.5	-1.3211e-07
3595.18	-1.11477e-07
3603.85	-7.15737e-09
3612.53	-4.00394e-08
3621.21	-5.72772e-08
3629.89	1.07315e-08
3638.57	1.23241e-07
3647.25	3.06339e-08
3655.92	1.24827e-07
3664.6	1.26263e-07
3673.28	-1.02912e-07
3681.96	-9.34715e-08
3690.64	-2.33001e-07
3699.31	-2.01079e-08
3707.99	-7.02459e-08
3716.67	-1.08819e-07
3725.35	3.95793e-08
3734.03	3.38479e-07
3742.71	3.43976e-07
3751.38	1.99657e-07
3760.06	-3.73893e-08
3768.74	-7.79981e-08
3777.42	-1.41587e-07
3786.1	-1.37896e-07
3794.77	-9.68746e-08
3803.45	-1.93114e-07
3812.13	-5.36084e-08
3820.81	-1.41807e-07
3829.49	-6.2019e-08
3838.17	-1.28158e-07
3846.84	-9.33278e-08
3855.52	-7.50533e-08
3864.2	-2.23505e-07
3872.88	-1.42402e-08
3881.56	-1.85055e-08
3890.23	-7.57008e-08
3898.91	-1.45185e-08
3907.59	6.5575e-08
3916.27	1.19784e-07
3924.95	1.17872e-07
3933.63	1.35674e-07
3942.3	1.90572e-07
3950.98	1.43293e-08
3959.66	-5.80011e-08
3968.34	-1.12544e-07
