Infrared Spectrum: 1,1-Dichloroethene
Formula: C H2 C Cl2
CAS: 75-35-4
State: gas
Melting point: -122.1 C
Boiling point: 37 C
Class: IUPAC A
Instrument: IFS66V (Bruker)
Instrument parameters: KBr Beam Splitter; MCT Detector; Multipass cell
Sampling: 1 L/min Flow
Resolution: 1.9290
Temperature: 23 C
Pressure: 101.3 Pa
Origin: NIST, Analytical Chemistry Division, 301-975-3108
cm-1	(micromol/mol)-1m-1 (base 10)
575.652	6.3138e-06
584.33	2.32432e-05
593.008	6.21037e-05
601.687	5.34321e-05
610.365	8.20624e-05
619.043	3.02117e-05
627.721	7.65019e-06
636.399	1.76208e-06
645.077	-8.18651e-07
653.756	5.38916e-07
662.434	-8.13821e-07
671.112	7.82716e-07
679.79	4.55283e-07
688.468	8.53266e-07
697.147	-1.00431e-06
705.825	4.92685e-07
714.503	-9.21437e-07
723.181	8.92709e-07
731.859	-7.65031e-07
740.537	9.85395e-07
749.216	-1.9386e-07
757.894	6.58228e-06
766.572	2.99815e-05
775.25	0.000131484
783.928	0.000414182
792.607	0.000453541
801.285	0.000456843
809.963	0.000104911
818.641	5.75159e-06
827.319	1.17823e-05
835.997	9.24357e-06
844.676	4.38405e-05
853.354	9.24636e-05
862.032	0.000259993
870.71	0.000137351
879.388	0.000127337
888.066	0.000113783
896.745	2.13894e-05
905.423	1.22032e-05
914.101	2.86337e-06
922.779	6.81505e-06
931.457	2.00525e-06
940.136	2.49407e-06
948.814	1.51367e-07
957.492	1.38324e-06
966.17	3.7011e-08
974.848	8.61416e-07
983.526	-3.44882e-08
992.205	6.32626e-07
1000.88	-7.40874e-08
1009.56	1.34826e-06
1018.24	9.52442e-07
1026.92	1.24075e-06
1035.6	1.73194e-07
1044.27	3.77433e-07
1052.95	3.97624e-06
1061.63	2.0064e-05
1070.31	0.000118251
1078.99	0.0002952
1087.66	0.000335131
1096.34	0.000333324
1105.02	0.000288823
1113.7	2.70919e-05
1122.38	1.52025e-05
1131.06	6.40026e-05
1139.73	7.16232e-05
1148.41	6.05654e-05
1157.09	8.95448e-06
1165.77	1.28342e-07
1174.45	1.35549e-06
1183.12	9.62162e-08
1191.8	4.18909e-07
1200.48	-1.18216e-07
1209.16	2.37205e-07
1217.84	-3.46042e-07
1226.52	1.30835e-07
1235.19	-6.2461e-08
1243.87	5.31146e-07
1252.55	8.18414e-08
1261.23	4.63767e-07
1269.91	-3.10182e-07
1278.58	1.19253e-07
1287.26	-6.30849e-08
1295.94	1.27666e-06
1304.62	3.23229e-06
1313.3	6.15193e-06
1321.98	5.61892e-06
1330.65	3.73944e-06
1339.33	1.4723e-06
1348.01	1.32336e-06
1356.69	9.26537e-07
1365.37	1.58817e-06
1374.04	3.50149e-06
1382.72	8.90221e-06
1391.4	1.04012e-05
1400.08	8.02993e-06
1408.76	5.66182e-06
1417.44	-3.93956e-08
1426.11	3.86516e-09
1434.79	9.68401e-08
1443.47	-6.446e-08
1452.15	4.91467e-08
1460.83	8.84713e-09
1469.5	1.68326e-07
1478.18	2.12939e-08
1486.86	1.51629e-07
1495.54	-7.54625e-08
1504.22	2.78272e-07
1512.9	1.90937e-07
1521.57	1.10229e-06
1530.25	3.99198e-06
1538.93	9.78794e-06
1547.61	2.34226e-05
1556.29	5.21208e-05
1564.96	6.82076e-05
1573.64	7.03633e-05
1582.32	5.08076e-05
1591	3.35275e-05
1599.68	6.31543e-05
1608.36	0.000171199
1617.03	0.000263154
1625.71	0.000283691
1634.39	0.00017217
1643.07	4.84467e-05
1651.75	6.74924e-06
1660.42	8.67883e-07
1669.1	1.57657e-07
1677.78	6.76871e-07
1686.46	5.36143e-07
1695.14	1.05101e-06
1703.82	3.51344e-07
1712.49	6.01012e-07
1721.17	1.49638e-06
1729.85	4.26269e-06
1738.53	8.47439e-06
1747.21	9.05219e-06
1755.88	5.44771e-06
1764.56	2.15593e-06
1773.24	9.64623e-07
1781.92	4.98892e-07
1790.6	1.79633e-07
1799.28	1.90341e-07
1807.95	6.41188e-07
1816.63	2.47536e-07
1825.31	-2.24048e-07
1833.99	1.55392e-07
1842.67	-4.56544e-09
1851.34	4.61615e-07
1860.02	3.58723e-07
1868.7	1.17659e-06
1877.38	9.2678e-07
1886.06	1.0917e-06
1894.74	5.61962e-07
1903.41	4.5234e-07
1912.09	1.10094e-07
1920.77	5.92812e-07
1929.45	3.02512e-07
1938.13	4.68174e-07
1946.8	-4.38173e-08
1955.48	1.91639e-07
1964.16	-2.25844e-07
1972.84	2.02193e-07
1981.52	6.41362e-08
1990.2	4.48277e-07
1998.87	9.61743e-08
2007.55	1.16006e-07
2016.23	-2.61425e-07
2024.91	1.24906e-07
2033.59	-2.67391e-07
2042.26	6.53931e-08
2050.94	-2.16849e-07
2059.62	1.40454e-07
2068.3	-1.97505e-07
2076.98	1.38013e-07
2085.66	-2.19219e-07
2094.33	1.92782e-07
2103.01	-2.23432e-07
2111.69	1.86505e-07
2120.37	-2.28956e-07
2129.05	5.90979e-08
2137.72	-4.2525e-07
2146.4	-8.25035e-08
2155.08	-4.87451e-07
2163.76	-1.77525e-07
2172.44	-4.85464e-07
2181.12	-1.21694e-07
2189.79	-4.77823e-07
2198.47	9.06722e-08
2207.15	-5.73881e-08
2215.83	7.05706e-07
2224.51	4.97933e-07
2233.18	7.13847e-07
2241.86	-8.45097e-08
2250.54	1.31392e-07
2259.22	-4.34703e-07
2267.9	1.42911e-08
2276.58	-5.73137e-07
2285.25	-2.24361e-08
2293.93	-4.49588e-07
2302.61	9.11633e-09
2311.29	-3.28486e-07
2319.97	2.13794e-07
2328.64	-1.49441e-07
2337.32	3.59256e-07
2346	-7.60719e-08
2354.68	2.58971e-07
2363.36	-3.29577e-07
2372.04	1.41159e-07
2380.71	-3.18373e-07
2389.39	2.26251e-07
2398.07	-2.62467e-09
2406.75	7.23649e-07
2415.43	8.36543e-07
2424.1	1.58473e-06
2432.78	9.82599e-07
2441.46	6.82782e-07
2450.14	-1.98589e-07
2458.82	3.38039e-07
2467.5	-2.43845e-07
2476.17	1.35537e-07
2484.85	-2.94458e-07
2493.53	9.77895e-08
2502.21	-3.19817e-07
2510.89	2.22275e-07
2519.56	-2.65983e-07
2528.24	1.18412e-07
2536.92	-2.87845e-07
2545.6	2.20214e-08
2554.28	-4.01282e-07
2562.96	7.72196e-08
2571.63	-4.07072e-07
2580.31	9.89518e-08
2588.99	-3.6629e-07
2597.67	1.74591e-07
2606.35	-2.67946e-07
2615.02	2.45168e-07
2623.7	-1.6283e-07
2632.38	3.75732e-07
2641.06	-1.25506e-07
2649.74	3.82504e-07
2658.42	-1.72812e-07
2667.09	3.07343e-07
2675.77	-2.07613e-07
2684.45	2.40144e-07
2693.13	4.31261e-08
2701.81	6.00326e-07
2710.48	2.41146e-07
2719.16	3.03916e-07
2727.84	-2.06251e-07
2736.52	7.95423e-08
2745.2	-2.58866e-07
2753.88	1.8985e-07
2762.55	-2.10107e-07
2771.23	2.23212e-07
2779.91	-3.3986e-07
2788.59	1.98142e-07
2797.27	-4.5626e-07
2805.94	1.57177e-07
2814.62	-3.57203e-07
2823.3	1.80311e-07
2831.98	-2.34916e-07
2840.66	1.61318e-07
2849.34	-2.05918e-07
2858.01	1.72333e-07
2866.69	-2.6736e-07
2875.37	4.18432e-07
2884.05	-1.51556e-07
2892.73	2.42194e-07
2901.4	-1.8617e-07
2910.08	2.35362e-07
2918.76	4.32353e-09
2927.44	4.13183e-07
2936.12	4.96742e-08
2944.8	6.60299e-07
2953.47	1.30584e-07
2962.15	6.11254e-07
2970.83	2.8524e-08
2979.51	3.38326e-07
2988.19	2.73188e-07
2996.86	7.79899e-07
3005.54	7.13749e-07
3014.22	6.25136e-07
3022.9	-5.24298e-08
3031.58	7.27876e-07
3040.26	6.78357e-07
3048.93	1.07855e-06
3057.61	2.13883e-07
3066.29	3.54136e-07
3074.97	-2.76595e-07
3083.65	1.35288e-07
3092.32	-1.86483e-07
3101	2.23739e-07
3109.68	-3.56888e-07
3118.36	2.98209e-08
3127.04	-6.88363e-07
3135.72	-5.88578e-08
3144.39	-3.77442e-07
3153.07	7.71577e-09
3161.75	-1.52158e-07
3170.43	1.23387e-06
3179.11	1.93344e-06
3187.78	3.23452e-06
3196.46	2.84779e-06
3205.14	1.7987e-06
3213.82	-1.44039e-08
3222.5	-9.84352e-08
3231.18	-2.1427e-07
3239.85	7.84279e-07
3248.53	2.76187e-07
3257.21	1.81821e-07
3265.89	-8.30446e-07
3274.57	-3.46213e-07
3283.24	-6.22495e-07
3291.92	1.04876e-07
3300.6	-1.2603e-07
3309.28	4.49856e-07
3317.96	-4.62364e-08
3326.64	4.21408e-07
3335.31	-2.99462e-07
3343.99	4.61615e-07
3352.67	-1.82716e-07
3361.35	4.88904e-07
3370.03	-2.71354e-07
3378.7	8.09229e-09
3387.38	-3.81041e-07
3396.06	2.11574e-07
3404.74	-2.60326e-07
3413.42	1.74676e-07
3422.1	-1.79071e-07
3430.77	2.82337e-07
3439.45	-1.80962e-07
3448.13	8.07592e-08
3456.81	-4.90323e-07
3465.49	4.52833e-08
3474.16	-5.16364e-07
3482.84	1.03428e-07
3491.52	-2.94987e-07
3500.2	3.54105e-07
3508.88	-2.18159e-07
3517.56	5.29667e-07
3526.23	-3.78446e-07
3534.91	1.69374e-07
3543.59	-2.75616e-07
3552.27	1.23911e-07
3560.95	-4.0631e-07
3569.62	1.64927e-07
3578.3	-3.67927e-07
3586.98	1.70675e-07
3595.66	-3.57019e-07
3604.34	2.1959e-07
3613.02	-3.7276e-07
3621.69	2.64936e-07
3630.37	-1.83054e-07
3639.05	3.90691e-07
3647.73	-2.13372e-07
3656.41	5.1309e-07
3665.08	-2.57836e-07
3673.76	3.09662e-07
3682.44	-4.39297e-07
3691.12	7.31925e-08
3699.8	-3.32653e-07
3708.48	2.59504e-07
3717.15	-3.86218e-07
3725.83	3.86422e-07
3734.51	-1.10376e-07
3743.19	6.73695e-07
3751.87	-1.71388e-07
3760.54	2.29474e-07
3769.22	-3.56297e-07
3777.9	2.69628e-07
3786.58	-3.97293e-07
3795.26	1.58235e-07
3803.94	-4.29222e-07
3812.61	1.84893e-07
3821.29	-4.60387e-07
3829.97	1.79153e-07
3838.65	-3.80652e-07
3847.33	2.83006e-07
3856	-3.54505e-07
3864.68	7.18247e-08
3873.36	-4.09969e-07
3882.04	2.91415e-07
3890.72	-3.24002e-07
3899.4	2.66822e-07
3908.07	-2.72226e-07
3916.75	3.62616e-07
3925.43	-1.74429e-07
3934.11	4.12508e-07
3942.79	-1.35206e-07
3951.46	2.99913e-07
3960.14	-4.14562e-07
3968.82	2.18703e-07
