Infrared Spectrum: 1,1-Dichloroethene
Formula: C H2 C Cl2
CAS: 75-35-4
State: gas
Melting point: -122.1 C
Boiling point: 37 C
Class: IUPAC A
Instrument: IFS66V (Bruker)
Instrument parameters: KBr Beam Splitter; MCT Detector; Multipass cell
Sampling: 1 L/min Flow
Resolution: 0.1250
Temperature: 23 C
Pressure: 101.3 Pa
Origin: NIST, Analytical Chemistry Division, 301-975-3108
cm-1	(micromol/mol)-1m-1 (base 10)
575.05	4.06761e-06
583.608	1.99108e-05
592.165	5.813e-05
600.723	5.90253e-05
609.281	8.55759e-05
617.838	3.60572e-05
626.396	1.04896e-05
634.954	8.7147e-07
643.511	4.60864e-07
652.069	-2.65487e-07
660.626	-3.91231e-07
669.184	-4.06826e-07
677.742	5.95019e-07
686.299	4.23492e-07
694.857	4.80021e-08
703.415	1.32689e-07
711.972	1.50136e-08
720.53	-5.42811e-08
729.088	4.31833e-07
737.645	-6.22372e-08
746.203	4.6994e-07
754.761	3.03453e-06
763.318	1.82595e-05
771.876	6.62172e-05
780.434	0.000279026
788.991	0.000391316
797.549	0.00028647
806.106	0.000306449
814.664	1.81714e-05
823.222	6.37652e-06
831.779	6.46886e-06
840.337	2.13316e-05
848.895	6.82873e-05
857.452	0.000114976
866.01	9.79848e-05
874.568	0.0001601
883.125	0.000126899
891.683	5.57712e-05
900.241	1.42084e-05
908.798	8.05315e-06
917.356	7.25783e-06
925.914	4.14431e-06
934.471	2.54057e-06
943.029	1.29036e-06
951.586	9.51042e-07
960.144	6.85984e-07
968.702	7.672e-07
977.259	9.66084e-07
985.817	3.97521e-07
994.375	8.41519e-08
1002.93	4.28268e-07
1011.49	1.13075e-06
1020.05	8.59105e-07
1028.61	7.71966e-07
1037.16	2.96271e-07
1045.72	7.8165e-07
1054.28	4.14908e-06
1062.84	2.79705e-05
1071.39	0.000134831
1079.95	0.000249981
1088.51	0.000409756
1097.07	0.000643348
1105.62	0.000270884
1114.18	2.34787e-05
1122.74	1.62258e-05
1131.3	6.37342e-05
1139.85	3.08959e-05
1148.41	6.24311e-05
1156.97	8.38737e-06
1165.53	9.31994e-07
1174.09	9.68031e-07
1182.64	6.57354e-07
1191.2	1.6571e-07
1199.76	1.94879e-07
1208.32	1.81408e-07
1216.87	3.98787e-08
1225.43	1.2844e-07
1233.99	2.06451e-08
1242.55	1.90804e-07
1251.1	4.90393e-07
1259.66	3.66224e-07
1268.22	-9.30211e-08
1276.78	7.34092e-08
1285.33	1.30641e-07
1293.89	8.86025e-07
1302.45	2.48881e-06
1311.01	5.96422e-06
1319.57	3.50149e-06
1328.12	4.66616e-06
1336.68	1.91245e-06
1345.24	7.28842e-07
1353.8	1.49759e-06
1362.35	8.53579e-07
1370.91	2.55589e-06
1379.47	6.46331e-06
1388.03	9.6041e-06
1396.58	1.00716e-05
1405.14	9.19499e-06
1413.7	7.35089e-07
1422.26	-1.34311e-07
1430.81	5.91159e-09
1439.37	-4.27817e-09
1447.93	-6.69374e-10
1456.49	-1.58085e-07
1465.05	1.75976e-07
1473.6	1.12535e-07
1482.16	2.00085e-08
1490.72	6.42453e-08
1499.28	3.45601e-10
1507.83	2.31181e-07
1516.39	5.86113e-07
1524.95	1.72303e-06
1533.51	6.67069e-06
1542.06	1.64418e-05
1550.62	3.33839e-05
1559.18	6.17667e-05
1567.74	6.17497e-05
1576.29	8.67052e-05
1584.85	3.86206e-05
1593.41	3.58211e-05
1601.97	8.11739e-05
1610.53	0.000211837
1619.08	0.00022637
1627.64	0.000338149
1636.2	0.000130965
1644.76	3.66026e-05
1653.31	4.20762e-06
1661.87	4.90582e-07
1670.43	2.88882e-07
1678.99	5.73082e-07
1687.54	7.24179e-07
1696.1	7.48476e-07
1704.66	4.50805e-07
1713.22	6.48896e-07
1721.77	1.6791e-06
1730.33	4.44923e-06
1738.89	8.47941e-06
1747.45	9.15655e-06
1756.01	5.68355e-06
1764.56	2.12172e-06
1773.12	8.74744e-07
1781.68	3.68006e-07
1790.24	4.17325e-07
1798.79	1.32769e-07
1807.35	1.70268e-07
1815.91	4.48189e-09
1824.47	-1.4903e-07
1833.02	-7.81421e-08
1841.58	4.83986e-08
1850.14	2.9491e-07
1858.7	4.60987e-07
1867.25	9.01679e-07
1875.81	1.06676e-06
1884.37	8.04933e-07
1892.93	8.98911e-07
1901.49	4.35046e-07
1910.04	3.38565e-07
1918.6	3.75406e-07
1927.16	4.75575e-07
1935.72	4.52588e-07
1944.27	2.09943e-07
1952.83	1.25795e-07
1961.39	7.23942e-09
1969.95	-9.83324e-09
1978.5	1.21713e-07
1987.06	2.81144e-07
1995.62	3.66351e-07
2004.18	1.23565e-07
2012.73	1.1514e-08
2021.29	-6.97204e-08
2029.85	-1.026e-07
2038.41	-1.74463e-07
2046.97	-1.34988e-07
2055.52	7.03097e-08
2064.08	5.20583e-09
2072.64	1.64626e-07
2081.2	-4.35784e-08
2089.75	9.85507e-09
2098.31	-2.32018e-07
2106.87	-1.80491e-07
2115.43	-1.3653e-08
2123.98	-2.35165e-07
2132.54	-3.06962e-07
2141.1	-1.77551e-07
2149.66	-1.73917e-07
2158.21	-1.89618e-07
2166.77	-2.78194e-07
2175.33	-3.2413e-07
2183.89	-3.41883e-07
2192.45	-1.60522e-07
2201	-8.36499e-08
2209.56	5.4375e-07
2218.12	4.83186e-07
2226.68	5.79237e-07
2235.23	3.95658e-07
2243.79	2.70769e-08
2252.35	-1.05626e-07
2260.91	-1.87024e-07
2269.46	-1.93151e-07
2278.02	-2.98504e-07
2286.58	-9.5604e-08
2295.14	-2.15637e-07
2303.69	-6.10294e-08
2312.25	-1.99466e-08
2320.81	-6.21026e-08
2329.37	1.36327e-07
2337.93	1.66452e-07
2346.48	1.71745e-07
2355.04	-3.82089e-08
2363.6	-9.6699e-08
2372.16	-1.06689e-07
2380.71	-1.24067e-07
2389.27	-2.15618e-08
2397.83	2.69921e-07
2406.39	5.33473e-07
2414.94	1.04834e-06
2423.5	1.46551e-06
2432.06	1.13162e-06
2440.62	6.65648e-07
2449.17	5.49687e-08
2457.73	3.50574e-07
2466.29	-1.30666e-07
2474.85	-1.35803e-08
2483.41	2.00881e-07
2491.96	-4.84386e-08
2500.52	-6.01854e-08
2509.08	-3.89292e-08
2517.64	-1.18679e-07
2526.19	-5.31243e-08
2534.75	-5.02685e-08
2543.31	2.66112e-08
2551.87	-1.49518e-07
2560.42	-2.03606e-07
2568.98	-1.33929e-07
2577.54	-1.20014e-07
2586.1	-2.89559e-07
2594.65	-4.27817e-09
2603.21	-2.49283e-07
2611.77	5.22548e-08
2620.33	-7.4617e-08
2628.89	1.71323e-07
2637.44	1.26748e-07
2646	1.21353e-07
2654.56	1.02538e-07
2663.12	8.25949e-08
2671.67	-5.9476e-08
2680.23	3.57533e-08
2688.79	3.98896e-08
2697.35	4.28013e-07
2705.9	2.6987e-07
2714.46	2.48378e-07
2723.02	1.54687e-07
2731.58	5.84319e-08
2740.13	-3.69392e-08
2748.69	1.14179e-07
2757.25	-1.89858e-07
2765.81	-9.38324e-08
2774.37	-1.70163e-07
2782.92	-1.42642e-07
2791.48	3.10349e-08
2800.04	-1.44075e-07
2808.6	-1.95552e-07
2817.15	7.90116e-08
2825.71	-7.97428e-09
2834.27	-9.11367e-08
2842.83	-6.62534e-08
2851.38	-5.35426e-08
2859.94	-2.38002e-07
2868.5	1.96607e-07
2877.06	2.2054e-07
2885.61	4.00318e-07
2894.17	-8.42465e-08
2902.73	-1.00166e-07
2911.29	2.97544e-07
2919.85	2.65097e-07
2928.4	2.58993e-07
2936.96	2.28518e-07
2945.52	5.38627e-07
2954.08	3.53869e-07
2962.63	4.49342e-07
2971.19	3.20379e-07
2979.75	2.0803e-07
2988.31	4.72127e-07
2996.86	6.34835e-07
3005.42	1.06563e-06
3013.98	4.01028e-07
3022.54	1.85242e-07
3031.09	2.18874e-07
3039.65	9.81764e-07
3048.21	7.28373e-07
3056.77	5.87452e-07
3065.33	-4.81476e-08
3073.88	-1.24227e-07
3082.44	1.07718e-08
3091	9.59824e-08
3099.56	-2.17688e-07
3108.11	-5.71514e-09
3116.67	-1.24678e-07
3125.23	-3.39522e-07
3133.79	-5.68156e-07
3142.34	-4.25449e-07
3150.9	-4.82127e-07
3159.46	1.62567e-07
3168.02	5.66374e-07
3176.57	2.04842e-06
3185.13	2.7004e-06
3193.69	2.43724e-06
3202.25	2.99089e-06
3210.81	1.28374e-07
3219.36	-2.96645e-07
3227.92	-4.84932e-08
3236.48	4.10653e-07
3245.04	6.63346e-07
3253.59	4.3175e-07
3262.15	-4.5751e-07
3270.71	-3.61014e-07
3279.27	-6.23212e-07
3287.82	-1.0161e-07
3296.38	2.49705e-07
3304.94	-1.89797e-07
3313.5	2.99788e-07
3322.05	-8.03612e-09
3330.61	-8.65456e-09
3339.17	1.11312e-07
3347.73	1.67034e-07
3356.29	8.98452e-08
3364.84	2.14381e-08
3373.4	-1.33191e-07
3381.96	1.1272e-07
3390.52	-8.08742e-08
3399.07	1.44286e-07
3407.63	-9.60042e-09
3416.19	-4.74018e-08
3424.75	6.48929e-08
3433.3	8.82882e-08
3441.86	3.95549e-08
3450.42	5.76971e-08
3458.98	5.82137e-08
3467.53	6.09567e-08
3476.09	-7.80948e-08
3484.65	-1.75849e-07
3493.21	-4.1523e-08
3501.77	3.64736e-07
3510.32	2.3992e-08
3518.88	9.33085e-08
3527.44	-1.48463e-08
3536	7.07681e-08
3544.55	2.37155e-08
3553.11	-5.39719e-08
3561.67	-1.65997e-08
3570.23	-3.91915e-07
3578.78	-1.94391e-07
3587.34	-1.96676e-07
3595.9	-9.78195e-08
3604.46	-1.11855e-07
3613.01	-1.63018e-07
3621.57	1.06249e-07
3630.13	-1.13975e-08
3638.69	4.83732e-08
3647.25	1.36057e-09
3655.8	2.06305e-08
3664.36	1.42366e-07
3672.92	4.15485e-08
3681.48	-3.18498e-07
3690.03	-4.80967e-08
3698.59	-8.32352e-08
3707.15	1.01596e-07
3715.71	-2.35889e-07
3724.26	6.72539e-08
3732.82	2.88162e-07
3741.38	1.78384e-07
3749.94	3.11321e-07
3758.49	-9.71901e-08
3767.05	1.64797e-09
3775.61	-1.69246e-07
3784.17	1.44206e-08
3792.73	1.58845e-07
3801.28	1.16315e-07
3809.84	-1.13251e-07
3818.4	2.78609e-07
3826.96	-2.3837e-07
3835.51	-3.16897e-08
3844.07	-6.89346e-08
3852.63	-3.06348e-07
3861.19	-5.48086e-08
3869.74	2.61892e-08
3878.3	-2.08153e-07
3886.86	-1.22139e-07
3895.42	2.4092e-07
3903.97	5.82395e-07
3912.53	6.57369e-09
3921.09	1.7941e-07
3929.65	1.54429e-08
3938.21	4.50645e-07
3946.76	2.34463e-08
3955.32	-2.68939e-07
3963.88	3.28866e-08
3972.44	-1.40947e-07
