Infrared Spectrum: 1,1-Dichloroethene
Formula: C H2 C Cl2
CAS: 75-35-4
State: gas
Melting point: -122.1 C
Boiling point: 37 C
Class: IUPAC A
Instrument: IFS66V (Bruker)
Instrument parameters: KBr Beam Splitter; MCT Detector; Multipass cell
Sampling: 1 L/min Flow
Resolution: 0.4820
Temperature: 23 C
Pressure: 101.3 Pa
Origin: NIST, Analytical Chemistry Division, 301-975-3108
cm-1	(micromol/mol)-1m-1 (base 10)
575.17	6.35435e-06
583.848	2.12761e-05
592.526	6.03663e-05
601.205	5.51034e-05
609.883	8.41008e-05
618.561	3.16179e-05
627.239	8.52789e-06
635.917	1.17667e-06
644.595	-1.25051e-07
653.274	-3.55171e-07
661.952	-4.09975e-07
670.63	-5.3081e-08
679.308	1.08191e-06
687.986	3.53103e-08
696.665	-3.85865e-07
705.343	-2.01909e-07
714.021	-2.59721e-08
722.699	-1.64483e-07
731.377	1.2792e-07
740.055	1.22457e-07
748.734	9.00637e-07
757.412	5.09114e-06
766.09	2.8645e-05
774.768	0.000116124
783.446	0.000392048
792.124	0.000406182
800.803	0.000451647
809.481	0.000121966
818.159	8.29149e-06
826.837	5.76202e-06
835.515	1.14526e-05
844.194	3.76662e-05
852.872	9.51036e-05
861.55	0.000285208
870.228	0.000152847
878.906	0.000136837
887.584	9.72519e-05
896.263	2.64859e-05
904.941	1.03133e-05
913.619	3.92546e-06
922.297	5.65632e-06
930.975	2.55716e-06
939.654	1.67876e-06
948.332	1.02742e-06
957.01	5.85053e-07
965.688	6.22571e-07
974.366	3.24743e-07
983.044	4.37475e-07
991.723	2.6614e-07
1000.4	2.15383e-07
1009.08	9.03393e-07
1017.76	1.76707e-06
1026.44	1.02434e-06
1035.11	2.45002e-07
1043.79	4.06795e-07
1052.47	3.46116e-06
1061.15	1.89454e-05
1069.83	0.000107171
1078.5	0.000293087
1087.18	0.000379062
1095.86	0.000325593
1104.54	0.000293076
1113.22	3.33751e-05
1121.9	1.53279e-05
1130.57	6.27742e-05
1139.25	0.000152261
1147.93	6.40871e-05
1156.61	9.38858e-06
1165.29	8.96621e-07
1173.96	9.00035e-07
1182.64	5.2454e-07
1191.32	8.16577e-08
1200	1.30859e-07
1208.68	6.24956e-08
1217.36	-1.4897e-07
1226.03	1.16846e-08
1234.71	6.04639e-08
1243.39	2.87774e-07
1252.07	4.69003e-07
1260.75	3.66326e-07
1269.42	-1.34113e-07
1278.1	-5.23043e-08
1286.78	9.63617e-08
1295.46	1.04186e-06
1304.14	3.25461e-06
1312.82	6.03119e-06
1321.49	5.58785e-06
1330.17	3.84796e-06
1338.85	1.72137e-06
1347.53	9.4083e-07
1356.21	1.28387e-06
1364.88	1.32157e-06
1373.56	3.74582e-06
1382.24	8.63133e-06
1390.92	1.32271e-05
1399.6	9.40707e-06
1408.28	6.18333e-06
1416.95	1.27687e-08
1425.63	8.3342e-09
1434.31	1.61482e-08
1442.99	5.13475e-09
1451.67	-1.11626e-08
1460.34	2.56683e-08
1469.02	1.30557e-07
1477.7	1.21775e-07
1486.38	1.26268e-08
1495.06	8.49717e-08
1503.74	1.42122e-07
1512.41	2.85005e-07
1521.09	8.10718e-07
1529.77	3.77647e-06
1538.45	9.69977e-06
1547.13	2.21143e-05
1555.8	5.03282e-05
1564.48	6.93229e-05
1573.16	6.60835e-05
1581.84	5.37937e-05
1590.52	3.30046e-05
1599.2	6.02093e-05
1607.87	0.000162452
1616.55	0.000266368
1625.23	0.000252837
1633.91	0.00018554
1642.59	5.21022e-05
1651.26	7.93899e-06
1659.94	7.76688e-07
1668.62	3.40229e-07
1677.3	4.5188e-07
1685.98	5.98031e-07
1694.66	1.18153e-06
1703.33	4.38122e-07
1712.01	4.63898e-07
1720.69	1.529e-06
1729.37	3.86755e-06
1738.05	8.57734e-06
1746.72	8.28122e-06
1755.4	5.81466e-06
1764.08	2.10449e-06
1772.76	6.90349e-07
1781.44	3.39769e-07
1790.12	3.79008e-07
1798.79	9.42718e-08
1807.47	3.82276e-07
1816.15	1.03326e-07
1824.83	1.07715e-08
1833.51	-2.49189e-09
1842.18	1.41101e-07
1850.86	2.8679e-07
1859.54	5.05181e-07
1868.22	9.75191e-07
1876.9	1.0401e-06
1885.58	8.42094e-07
1894.25	8.61589e-07
1902.93	3.17795e-07
1911.61	2.87072e-07
1920.29	4.00675e-07
1928.97	5.02013e-07
1937.64	3.2222e-07
1946.32	1.49284e-07
1955	-4.0556e-08
1963.68	-7.62719e-08
1972.36	6.88563e-08
1981.04	2.50677e-07
1989.71	3.50291e-07
1998.39	2.80835e-07
2007.07	-6.80669e-08
2015.75	-6.63971e-08
2024.43	-8.17777e-08
2033.1	-6.50839e-08
2041.78	-8.88696e-08
2050.46	-2.18632e-09
2059.14	-6.57605e-08
2067.82	-5.01962e-08
2076.5	-2.80674e-08
2085.17	1.20229e-09
2093.85	-1.85037e-08
2102.53	-3.66763e-08
2111.21	-3.1507e-08
2119.89	-4.00667e-08
2128.56	-1.01553e-07
2137.24	-2.72737e-07
2145.92	-3.09506e-07
2154.6	-2.39655e-07
2163.28	-3.22731e-07
2171.96	-4.04376e-07
2180.63	-3.0259e-07
2189.31	-3.15419e-07
2197.99	-8.38149e-08
2206.67	1.02422e-07
2215.35	4.2583e-07
2224.02	6.59402e-07
2232.7	5.75458e-07
2241.38	1.63079e-07
2250.06	-5.80084e-08
2258.74	-1.68537e-07
2267.42	-2.72288e-07
2276.09	-3.10199e-07
2284.77	-2.41679e-07
2293.45	-2.06591e-07
2302.13	-1.86901e-07
2310.81	-1.07601e-07
2319.48	3.53048e-08
2328.16	1.05151e-07
2336.84	2.84358e-07
2345.52	1.14511e-07
2354.2	1.00371e-07
2362.88	-2.3078e-07
2371.55	-1.07728e-07
2380.23	-8.78911e-08
2388.91	1.63847e-08
2397.59	2.08564e-07
2406.27	4.92704e-07
2414.94	1.02026e-06
2423.62	1.50707e-06
2432.3	1.10635e-06
2440.98	5.49199e-07
2449.66	-2.83676e-08
2458.34	2.29258e-07
2467.01	-5.85431e-08
2475.69	-7.63683e-08
2484.37	-5.03581e-08
2493.05	-1.10947e-07
2501.73	-1.44128e-07
2510.4	-1.05578e-07
2519.08	-2.34329e-08
2527.76	-1.26645e-07
2536.44	3.96957e-08
2545.12	-1.26508e-07
2553.8	-1.25801e-07
2562.47	-8.07355e-08
2571.15	-1.49394e-07
2579.83	-1.69703e-07
2588.51	-9.48156e-08
2597.19	-7.30652e-08
2605.86	2.14667e-08
2614.54	3.13797e-08
2623.22	4.10417e-08
2631.9	9.34405e-08
2640.58	4.79553e-08
2649.26	2.00023e-07
2657.93	1.20917e-07
2666.61	1.67892e-07
2675.29	9.0905e-08
2683.97	7.22085e-08
2692.65	2.92987e-07
2701.32	4.01826e-07
2710	5.19629e-07
2718.68	1.48839e-07
2727.36	-2.23725e-09
2736.04	-1.73039e-07
2744.71	9.21819e-09
2753.39	7.40511e-08
2762.07	-7.39983e-08
2770.75	-1.90537e-07
2779.43	-9.75094e-08
2788.11	-1.03675e-07
2796.78	-1.90137e-07
2805.46	-1.03294e-07
2814.14	-1.08605e-07
2822.82	-4.69767e-08
2831.5	-2.14648e-08
2840.17	1.92167e-08
2848.85	7.12681e-08
2857.53	4.86283e-08
2866.21	-2.37767e-08
2874.89	1.67948e-07
2883.57	1.20169e-07
2892.24	1.14227e-09
2900.92	7.18102e-08
2909.6	1.52915e-08
2918.28	2.91253e-07
2926.96	9.56923e-08
2935.63	4.24315e-07
2944.31	6.15408e-07
2952.99	4.42247e-07
2961.67	3.51173e-07
2970.35	3.26513e-07
2979.03	2.20405e-07
2987.7	5.25213e-07
2996.38	5.92299e-07
3005.06	9.44975e-07
3013.74	3.54809e-07
3022.42	2.21558e-07
3031.09	4.15222e-07
3039.77	9.23414e-07
3048.45	6.58462e-07
3057.13	5.36867e-07
3065.81	9.42481e-08
3074.49	9.09977e-08
3083.16	-5.70443e-08
3091.84	-6.04202e-08
3100.52	-1.56038e-07
3109.2	-1.81253e-07
3117.88	-1.66329e-07
3126.55	-4.50252e-07
3135.23	-3.88699e-07
3143.91	-8.77474e-08
3152.59	-3.52599e-07
3161.27	9.90227e-08
3169.95	9.17062e-07
3178.62	2.15756e-06
3187.3	3.07113e-06
3195.98	2.88658e-06
3204.66	1.80791e-06
3213.34	2.55381e-07
3222.01	-4.09593e-07
3230.69	5.29882e-08
3239.37	5.32225e-07
3248.05	4.57903e-07
3256.73	-6.98094e-09
3265.41	-5.66244e-07
3274.08	-6.09346e-07
3282.76	-2.2982e-07
3291.44	-1.12392e-07
3300.12	2.47434e-07
3308.8	1.53304e-07
3317.47	1.06678e-07
3326.15	1.34451e-07
3334.83	8.60303e-08
3343.51	2.96503e-07
3352.19	2.39986e-08
3360.87	2.16813e-07
3369.54	-6.31831e-08
3378.22	-1.47837e-07
3386.9	6.56623e-09
3395.58	-6.67664e-08
3404.26	2.29818e-08
3412.93	3.20836e-08
3421.61	1.17288e-07
3430.29	-1.00294e-08
3438.97	2.25071e-08
3447.65	-4.81154e-08
3456.33	-2.64881e-07
3465	-1.53328e-07
3473.68	-1.67935e-07
3482.36	-1.77854e-07
3491.04	1.9826e-09
3499.72	2.07986e-07
3508.39	3.28675e-08
3517.07	3.00759e-07
3525.75	-9.4008e-08
3534.43	1.18221e-07
3543.11	-7.02878e-08
3551.79	-2.47179e-07
3560.46	-1.45121e-07
3569.14	3.19017e-08
3577.82	-1.01511e-07
3586.5	-1.30777e-07
3595.18	-1.08607e-07
3603.85	-8.85622e-09
3612.53	-4.2002e-08
3621.21	-5.79938e-08
3629.89	1.02004e-08
3638.57	1.22803e-07
3647.25	3.25874e-08
3655.92	1.26734e-07
3664.6	1.26546e-07
3673.28	-1.00409e-07
3681.96	-9.45428e-08
3690.64	-2.32848e-07
3699.31	-2.19268e-08
3707.99	-6.98658e-08
3716.67	-1.09545e-07
3725.35	4.06051e-08
3734.03	3.36138e-07
3742.71	3.4403e-07
3751.38	2.01118e-07
3760.06	-3.72456e-08
3768.74	-7.79017e-08
3777.42	-1.40365e-07
3786.1	-1.36328e-07
3794.77	-9.60325e-08
3803.45	-1.93153e-07
3812.13	-5.52436e-08
3820.81	-1.4169e-07
3829.49	-6.25047e-08
3838.17	-1.27685e-07
3846.84	-9.0945e-08
3855.52	-7.39365e-08
3864.2	-2.21906e-07
3872.88	-1.62482e-08
3881.56	-1.87419e-08
3890.23	-7.5819e-08
3898.91	-1.50114e-08
3907.59	6.54131e-08
3916.27	1.19378e-07
3924.95	1.18569e-07
3933.63	1.35412e-07
3942.3	1.91408e-07
3950.98	1.28596e-08
3959.66	-5.79556e-08
3968.34	-1.13108e-07
