Infrared Spectrum: 1,1-Dichloroethene
Formula: C H2 C Cl2
CAS: 75-35-4
State: gas
Melting point: -122.1 C
Boiling point: 37 C
Class: IUPAC A
Instrument: IFS66V (Bruker)
Instrument parameters: KBr Beam Splitter; MCT Detector; Multipass cell
Sampling: 1 L/min Flow
Resolution: 0.4820
Temperature: 23 C
Pressure: 101.3 Pa
Origin: NIST, Analytical Chemistry Division, 301-975-3108
cm-1	(micromol/mol)-1m-1 (base 10)
575.17	6.38199e-06
583.848	2.14192e-05
592.526	6.00278e-05
601.205	5.51442e-05
609.883	8.33268e-05
618.561	3.175e-05
627.239	8.69895e-06
635.917	1.29966e-06
644.595	-2.94371e-08
653.274	-2.86344e-07
661.952	-3.45165e-07
670.63	-2.0208e-09
679.308	1.07059e-06
687.986	8.64123e-08
696.665	-3.01161e-07
705.343	-1.25069e-07
714.021	4.83009e-08
722.699	-6.83397e-08
731.377	2.47545e-07
740.055	2.86413e-07
748.734	1.14058e-06
757.412	5.50776e-06
766.09	2.92894e-05
774.768	0.00011709
783.446	0.000389192
792.124	0.000409645
800.803	0.000448817
809.481	0.000123569
818.159	9.21796e-06
826.837	6.36953e-06
835.515	1.18628e-05
844.194	3.79978e-05
852.872	9.50483e-05
861.55	0.000274373
870.228	0.000170834
878.906	0.000136823
887.584	9.78469e-05
896.263	2.69254e-05
904.941	1.05622e-05
913.619	4.15353e-06
922.297	5.76774e-06
930.975	2.72544e-06
939.654	1.75891e-06
948.332	1.11391e-06
957.01	6.59235e-07
965.688	6.90083e-07
974.366	4.05666e-07
983.044	5.10802e-07
991.723	3.25872e-07
1000.4	2.98478e-07
1009.08	9.91866e-07
1017.76	1.8096e-06
1026.44	1.12929e-06
1035.11	4.02788e-07
1043.79	6.29816e-07
1052.47	3.78908e-06
1061.15	1.96246e-05
1069.83	0.000107708
1078.5	0.000288078
1087.18	0.000383156
1095.86	0.000335744
1104.54	0.000290453
1113.22	3.49358e-05
1121.9	1.59313e-05
1130.57	6.24271e-05
1139.25	0.000144218
1147.93	6.34916e-05
1156.61	9.71843e-06
1165.29	1.06101e-06
1173.96	9.94282e-07
1182.64	5.85329e-07
1191.32	1.39379e-07
1200	1.7416e-07
1208.68	8.93444e-08
1217.36	-1.15838e-07
1226.03	3.39261e-08
1234.71	8.95608e-08
1243.39	3.12696e-07
1252.07	4.81848e-07
1260.75	3.79357e-07
1269.42	-1.11251e-07
1278.1	-2.93952e-08
1286.78	1.30306e-07
1295.46	1.0642e-06
1304.14	3.26121e-06
1312.82	5.99155e-06
1321.49	5.53842e-06
1330.17	3.85843e-06
1338.85	1.74282e-06
1347.53	9.79067e-07
1356.21	1.31562e-06
1364.88	1.36016e-06
1373.56	3.75098e-06
1382.24	8.60936e-06
1390.92	1.30668e-05
1399.6	9.70479e-06
1408.28	6.16868e-06
1416.95	6.65481e-08
1425.63	3.05284e-08
1434.31	3.35187e-08
1442.99	2.3502e-08
1451.67	7.73942e-09
1460.34	4.96287e-08
1469.02	1.48671e-07
1477.7	1.47202e-07
1486.38	4.52833e-08
1495.06	1.16886e-07
1503.74	1.76375e-07
1512.41	3.3654e-07
1521.09	8.97356e-07
1529.77	3.87171e-06
1538.45	9.80638e-06
1547.13	2.22538e-05
1555.8	5.0259e-05
1564.48	6.90533e-05
1573.16	6.61649e-05
1581.84	5.38909e-05
1590.52	3.33761e-05
1599.2	6.06355e-05
1607.87	0.00016223
1616.55	0.000264492
1625.23	0.00025159
1633.91	0.000185254
1642.59	5.25411e-05
1651.26	8.3566e-06
1659.94	1.00038e-06
1668.62	4.65351e-07
1677.3	5.49179e-07
1685.98	6.63971e-07
1694.66	1.19195e-06
1703.33	4.91143e-07
1712.01	5.11924e-07
1720.69	1.5697e-06
1729.37	3.89694e-06
1738.05	8.51294e-06
1746.72	8.21178e-06
1755.4	5.82017e-06
1764.08	2.13491e-06
1772.76	7.31898e-07
1781.44	3.52812e-07
1790.12	3.87388e-07
1798.79	1.095e-07
1807.47	3.94334e-07
1816.15	1.10767e-07
1824.83	2.31328e-08
1833.51	5.88596e-09
1842.18	1.45623e-07
1850.86	2.95502e-07
1859.54	5.09327e-07
1868.22	9.77959e-07
1876.9	1.04901e-06
1885.58	8.52393e-07
1894.25	8.59081e-07
1902.93	3.24566e-07
1911.61	2.92303e-07
1920.29	4.02597e-07
1928.97	5.00112e-07
1937.64	3.26045e-07
1946.32	1.53972e-07
1955	-3.72129e-08
1963.68	-6.96548e-08
1972.36	6.22537e-08
1981.04	2.52554e-07
1989.71	3.46268e-07
1998.39	2.8176e-07
2007.07	-5.93853e-08
2015.75	-6.57114e-08
2024.43	-7.91149e-08
2033.1	-6.25683e-08
2041.78	-8.78529e-08
2050.46	-4.49268e-10
2059.14	-6.10077e-08
2067.82	-4.61128e-08
2076.5	-1.82581e-08
2085.17	-1.19138e-09
2093.85	-1.50696e-08
2102.53	-3.80259e-08
2111.21	-3.4992e-08
2119.89	-4.12636e-08
2128.56	-1.0078e-07
2137.24	-2.66216e-07
2145.92	-3.00484e-07
2154.6	-2.40255e-07
2163.28	-3.23922e-07
2171.96	-3.92795e-07
2180.63	-2.97345e-07
2189.31	-3.039e-07
2197.99	-8.14503e-08
2206.67	1.04863e-07
2215.35	4.3039e-07
2224.02	6.57605e-07
2232.7	5.8034e-07
2241.38	1.59656e-07
2250.06	-6.37688e-08
2258.74	-1.6454e-07
2267.42	-2.64857e-07
2276.09	-3.02399e-07
2284.77	-2.34585e-07
2293.45	-2.04775e-07
2302.13	-1.83185e-07
2310.81	-1.03821e-07
2319.48	3.42644e-08
2328.16	1.02313e-07
2336.84	2.7234e-07
2345.52	1.22305e-07
2354.2	9.39553e-08
2362.88	-2.26957e-07
2371.55	-1.03377e-07
2380.23	-8.20033e-08
2388.91	2.04717e-08
2397.59	2.06582e-07
2406.27	4.88944e-07
2414.94	1.01943e-06
2423.62	1.49048e-06
2432.3	1.11544e-06
2440.98	5.52102e-07
2449.66	-1.78416e-08
2458.34	2.06211e-07
2467.01	-5.01125e-08
2475.69	-7.09698e-08
2484.37	-5.04345e-08
2493.05	-1.09896e-07
2501.73	-1.34269e-07
2510.4	-1.02942e-07
2519.08	-2.66924e-08
2527.76	-1.22545e-07
2536.44	2.34765e-08
2545.12	-1.24878e-07
2553.8	-1.25595e-07
2562.47	-8.59576e-08
2571.15	-1.41392e-07
2579.83	-1.64701e-07
2588.51	-9.36879e-08
2597.19	-7.41602e-08
2605.86	1.06242e-08
2614.54	3.93464e-08
2623.22	4.31516e-08
2631.9	9.71329e-08
2640.58	6.08568e-08
2649.26	1.97991e-07
2657.93	1.23192e-07
2666.61	1.65407e-07
2675.29	8.23489e-08
2683.97	7.36782e-08
2692.65	2.91142e-07
2701.32	3.94428e-07
2710	5.11884e-07
2718.68	1.46336e-07
2727.36	1.2896e-09
2736.04	-1.65867e-07
2744.71	4.00522e-09
2753.39	6.77813e-08
2762.07	-6.57023e-08
2770.75	-1.87232e-07
2779.43	-9.1869e-08
2788.11	-1.10142e-07
2796.78	-1.81779e-07
2805.46	-1.0399e-07
2814.14	-1.0835e-07
2822.82	-4.51196e-08
2831.5	-2.01425e-08
2840.17	2.48662e-08
2848.85	6.10787e-08
2857.53	4.02723e-08
2866.21	-2.79092e-08
2874.89	1.53433e-07
2883.57	1.16311e-07
2892.24	3.13942e-09
2900.92	7.38837e-08
2909.6	2.12957e-08
2918.28	2.80312e-07
2926.96	9.92865e-08
2935.63	4.16064e-07
2944.31	5.99982e-07
2952.99	4.38864e-07
2961.67	3.63835e-07
2970.35	3.28051e-07
2979.03	2.19465e-07
2987.7	5.23883e-07
2996.38	5.90113e-07
3005.06	9.28605e-07
3013.74	3.48498e-07
3022.42	2.26004e-07
3031.09	4.13047e-07
3039.77	9.18748e-07
3048.45	6.57416e-07
3057.13	5.39489e-07
3065.81	9.59706e-08
3074.49	7.87602e-08
3083.16	-5.8052e-08
3091.84	-5.44615e-08
3100.52	-1.45885e-07
3109.2	-1.77372e-07
3117.88	-1.76963e-07
3126.55	-4.47138e-07
3135.23	-3.84244e-07
3143.91	-9.47956e-08
3152.59	-3.40966e-07
3161.27	1.15466e-07
3169.95	9.19478e-07
3178.62	2.15626e-06
3187.3	3.05454e-06
3195.98	2.88779e-06
3204.66	1.80015e-06
3213.34	2.483e-07
3222.01	-3.94508e-07
3230.69	5.69625e-08
3239.37	5.25264e-07
3248.05	4.61873e-07
3256.73	-1.00149e-08
3265.41	-5.70931e-07
3274.08	-5.98233e-07
3282.76	-2.33678e-07
3291.44	-1.1395e-07
3300.12	2.26802e-07
3308.8	1.44701e-07
3317.47	1.08852e-07
3326.15	1.31936e-07
3334.83	8.76892e-08
3343.51	2.77726e-07
3352.19	3.38206e-08
3360.87	2.16613e-07
3369.54	-5.70171e-08
3378.22	-1.44088e-07
3386.9	2.04808e-09
3395.58	-6.51785e-08
3404.26	1.57644e-08
3412.93	3.97921e-08
3421.61	1.22981e-07
3430.29	-1.02331e-08
3438.97	1.26541e-08
3447.65	-5.33865e-08
3456.33	-2.4894e-07
3465	-1.52189e-07
3473.68	-1.65191e-07
3482.36	-1.78027e-07
3491.04	3.98339e-09
3499.72	2.13379e-07
3508.39	3.46137e-08
3517.07	2.96115e-07
3525.75	-8.8766e-08
3534.43	1.08259e-07
3543.11	-6.92564e-08
3551.79	-2.34862e-07
3560.46	-1.42802e-07
3569.14	3.33077e-08
3577.82	-1.06202e-07
3586.5	-1.2548e-07
3595.18	-1.0825e-07
3603.85	-9.14543e-09
3612.53	-4.42538e-08
3621.21	-5.81393e-08
3629.89	1.6934e-08
3638.57	1.29608e-07
3647.25	3.8859e-08
3655.92	1.31068e-07
3664.6	1.24662e-07
3673.28	-8.90315e-08
3681.96	-9.53249e-08
3690.64	-2.19967e-07
3699.31	-2.29673e-08
3707.99	-7.02514e-08
3716.67	-1.00012e-07
3725.35	4.53561e-08
3734.03	3.2736e-07
3742.71	3.34556e-07
3751.38	1.9179e-07
3760.06	-3.09522e-08
3768.74	-7.23758e-08
3777.42	-1.29957e-07
3786.1	-1.31801e-07
3794.77	-9.87153e-08
3803.45	-1.72563e-07
3812.13	-5.91434e-08
3820.81	-1.36458e-07
3829.49	-5.70571e-08
3838.17	-1.18916e-07
3846.84	-7.9264e-08
3855.52	-8.06973e-08
3864.2	-2.16867e-07
3872.88	-2.1343e-08
3881.56	-1.25231e-08
3890.23	-7.39237e-08
3898.91	-1.72232e-08
3907.59	6.37524e-08
3916.27	1.15362e-07
3924.95	1.20317e-07
3933.63	1.39402e-07
3942.3	1.87718e-07
3950.98	1.20939e-08
3959.66	-6.05439e-08
3968.34	-1.08543e-07
