Infrared Spectrum: 1,1-Dichloroethene
Formula: C H2 C Cl2
CAS: 75-35-4
State: gas
Melting point: -122.1 C
Boiling point: 37 C
Class: IUPAC A
Instrument: IFS66V (Bruker)
Instrument parameters: KBr Beam Splitter; MCT Detector; Multipass cell
Sampling: 1 L/min Flow
Resolution: 0.2410
Temperature: 23 C
Pressure: 101.3 Pa
Origin: NIST, Analytical Chemistry Division, 301-975-3108
cm-1	(micromol/mol)-1m-1 (base 10)
575.05	3.81917e-06
583.608	1.89463e-05
592.165	5.8391e-05
600.723	5.93418e-05
609.281	8.58946e-05
617.838	3.58244e-05
626.396	1.03996e-05
634.954	7.44169e-07
643.511	4.39127e-07
652.069	-2.48196e-07
660.626	-2.11162e-07
669.184	-6.5699e-07
677.742	6.27181e-07
686.299	2.35325e-07
694.857	1.83416e-07
703.415	-2.53336e-07
711.972	4.87835e-07
720.53	-4.4454e-07
729.088	6.32282e-07
737.645	-3.91675e-07
746.203	6.81055e-07
754.761	2.61555e-06
763.318	1.83996e-05
771.876	6.54562e-05
780.434	0.000279566
788.991	0.00039089
797.549	0.00028467
806.106	0.000306981
814.664	1.78309e-05
823.222	5.75553e-06
831.779	6.48771e-06
840.337	2.10522e-05
848.895	6.85437e-05
857.452	0.000115078
866.01	0.000101935
874.568	0.000156645
883.125	0.000126845
891.683	5.56347e-05
900.241	1.39552e-05
908.798	8.00017e-06
917.356	7.29923e-06
925.914	3.94143e-06
934.471	2.57978e-06
943.029	1.30309e-06
951.586	1.02975e-06
960.144	6.37557e-07
968.702	8.93807e-07
977.259	8.44822e-07
985.817	6.22663e-07
994.375	-1.1319e-07
1002.93	5.30431e-07
1011.49	1.02743e-06
1020.05	9.46025e-07
1028.61	5.74919e-07
1037.16	3.68949e-07
1045.72	4.73593e-07
1054.28	4.13497e-06
1062.84	2.75882e-05
1071.39	0.000135052
1079.95	0.000249567
1088.51	0.000409065
1097.07	0.000657637
1105.62	0.000271421
1114.18	2.30951e-05
1122.74	1.60256e-05
1131.3	6.38075e-05
1139.85	2.78871e-05
1148.41	6.24515e-05
1156.97	8.35338e-06
1165.53	9.04142e-07
1174.09	1.03944e-06
1182.64	5.8604e-07
1191.2	1.56564e-07
1199.76	1.10134e-07
1208.32	2.32204e-07
1216.87	-1.21855e-07
1225.43	3.17847e-07
1233.99	-6.239e-08
1242.55	3.25687e-07
1251.1	3.39351e-07
1259.66	4.88304e-07
1268.22	-1.53086e-07
1276.78	2.15757e-07
1285.33	6.21099e-08
1293.89	9.67547e-07
1302.45	2.24602e-06
1311.01	6.03059e-06
1319.57	3.40737e-06
1328.12	4.6921e-06
1336.68	1.74405e-06
1345.24	7.57058e-07
1353.8	1.77716e-06
1362.35	9.79959e-07
1370.91	2.41329e-06
1379.47	6.44777e-06
1388.03	9.47689e-06
1396.58	9.91533e-06
1405.14	9.19916e-06
1413.7	8.80466e-07
1422.26	-2.19147e-07
1430.81	7.88187e-08
1439.37	-1.23641e-07
1447.93	5.19856e-09
1456.49	-3.32228e-07
1465.05	3.01051e-07
1473.6	9.8689e-08
1482.16	1.10716e-07
1490.72	1.92372e-08
1499.28	4.30327e-08
1507.83	1.6006e-07
1516.39	5.17171e-07
1524.95	1.64003e-06
1533.51	6.69109e-06
1542.06	1.63431e-05
1550.62	3.34223e-05
1559.18	6.18382e-05
1567.74	6.19887e-05
1576.29	8.69968e-05
1584.85	3.86339e-05
1593.41	3.56424e-05
1601.97	8.09457e-05
1610.53	0.000212401
1619.08	0.000227347
1627.64	0.000339479
1636.2	0.00013076
1644.76	3.65017e-05
1653.31	4.08074e-06
1661.87	4.00274e-07
1670.43	1.87108e-07
1678.99	5.01816e-07
1687.54	7.50259e-07
1696.1	8.00262e-07
1704.66	3.72277e-07
1713.22	6.47583e-07
1721.77	1.69282e-06
1730.33	4.45155e-06
1738.89	8.52205e-06
1747.45	9.21261e-06
1756.01	5.6901e-06
1764.56	2.09691e-06
1773.12	8.23806e-07
1781.68	3.70611e-07
1790.24	3.80746e-07
1798.79	1.81513e-07
1807.35	1.0718e-07
1815.91	-1.94628e-09
1824.47	-1.33129e-07
1833.02	-1.19421e-07
1841.58	3.08894e-08
1850.14	3.35702e-07
1858.7	4.53119e-07
1867.25	9.19141e-07
1875.81	1.03586e-06
1884.37	8.89263e-07
1892.93	8.96182e-07
1901.49	4.1324e-07
1910.04	2.91956e-07
1918.6	4.02545e-07
1927.16	4.24368e-07
1935.72	5.08666e-07
1944.27	1.78796e-07
1952.83	1.99663e-07
1961.39	-5.12835e-08
1969.95	3.41562e-08
1978.5	1.24114e-07
1987.06	4.10082e-07
1995.62	3.41115e-07
2004.18	1.29535e-07
2012.73	-2.37446e-08
2021.29	-8.88666e-08
2029.85	-1.17515e-07
2038.41	-1.40656e-07
2046.97	-1.7316e-07
2055.52	2.00536e-07
2064.08	-3.73649e-08
2072.64	2.30516e-07
2081.2	-5.26986e-08
2089.75	1.02643e-07
2098.31	-3.26942e-07
2106.87	-1.20418e-07
2115.43	-4.57066e-08
2123.98	-1.79523e-07
2132.54	-3.81918e-07
2141.1	-1.49816e-07
2149.66	-1.43421e-07
2158.21	-1.88974e-07
2166.77	-3.56896e-07
2175.33	-3.20383e-07
2183.89	-3.68177e-07
2192.45	-1.60126e-07
2201	-1.00388e-07
2209.56	5.63904e-07
2218.12	4.56124e-07
2226.68	5.76411e-07
2235.23	3.21248e-07
2243.79	4.16903e-08
2252.35	-1.33002e-07
2260.91	-1.9147e-07
2269.46	-2.42859e-07
2278.02	-2.27642e-07
2286.58	-1.34933e-07
2295.14	-1.79872e-07
2303.69	-8.86483e-08
2312.25	-6.56277e-09
2320.81	-1.03877e-07
2329.37	1.4739e-07
2337.93	1.62068e-07
2346.48	1.87588e-07
2355.04	-1.07223e-07
2363.6	-7.56865e-08
2372.16	-1.15703e-07
2380.71	-4.80094e-08
2389.27	-4.8857e-08
2397.83	2.32302e-07
2406.39	4.99305e-07
2414.94	1.05778e-06
2423.5	1.4632e-06
2432.06	1.1668e-06
2440.62	6.71462e-07
2449.17	1.9943e-08
2457.73	3.05205e-07
2466.29	-1.40219e-07
2474.85	-1.09974e-08
2483.41	3.01516e-07
2491.96	-1.1948e-07
2500.52	-6.9975e-08
2509.08	5.6824e-09
2517.64	-1.3661e-07
2526.19	-4.82931e-08
2534.75	-3.38179e-08
2543.31	5.8301e-08
2551.87	-1.14914e-07
2560.42	-2.37642e-07
2568.98	-6.55149e-08
2577.54	-1.77962e-07
2586.1	-2.58826e-07
2594.65	-5.88976e-09
2603.21	-2.38865e-07
2611.77	9.50329e-08
2620.33	-3.26429e-08
2628.89	1.93442e-07
2637.44	9.05037e-08
2646	2.1198e-08
2654.56	2.02958e-08
2663.12	9.28174e-08
2671.67	-4.32583e-08
2680.23	1.7371e-08
2688.79	-4.19159e-08
2697.35	5.91544e-07
2705.9	2.57054e-07
2714.46	2.14927e-07
2723.02	2.49582e-07
2731.58	7.36347e-08
2740.13	-1.35443e-07
2748.69	1.81146e-07
2757.25	-2.61208e-07
2765.81	-3.89073e-08
2774.37	-1.53348e-07
2782.92	-7.55701e-08
2791.48	1.65597e-08
2800.04	-1.24547e-07
2808.6	-2.08052e-07
2817.15	1.63884e-07
2825.71	-8.72914e-08
2834.27	-2.12126e-08
2842.83	-1.5615e-07
2851.38	3.52658e-08
2859.94	-3.15413e-07
2868.5	2.78849e-07
2877.06	1.93893e-07
2885.61	4.13033e-07
2894.17	-1.52246e-07
2902.73	-7.90879e-09
2911.29	3.1944e-07
2919.85	2.54104e-07
2928.4	3.21172e-07
2936.96	1.64731e-07
2945.52	5.06079e-07
2954.08	4.54217e-07
2962.63	4.28279e-07
2971.19	2.83803e-07
2979.75	1.46382e-07
2988.31	5.35386e-07
2996.86	6.72961e-07
3005.42	1.10056e-06
3013.98	3.71848e-07
3022.54	2.65716e-07
3031.09	1.00857e-07
3039.65	9.74182e-07
3048.21	8.33618e-07
3056.77	6.7921e-07
3065.33	-1.72946e-07
3073.88	-1.71123e-07
3082.44	8.397e-08
3091	1.671e-07
3099.56	-2.91258e-07
3108.11	6.60461e-08
3116.67	-1.03378e-07
3125.23	-3.38925e-07
3133.79	-5.56613e-07
3142.34	-4.49292e-07
3150.9	-5.94855e-07
3159.46	1.41693e-07
3168.02	5.4355e-07
3176.57	1.88661e-06
3185.13	2.65509e-06
3193.69	2.48242e-06
3202.25	3.14912e-06
3210.81	1.83914e-07
3219.36	-3.96575e-07
3227.92	-1.1423e-09
3236.48	3.93599e-07
3245.04	6.49489e-07
3253.59	4.97679e-07
3262.15	-4.52744e-07
3270.71	-3.7016e-07
3279.27	-5.97052e-07
3287.82	-1.51777e-07
3296.38	3.06901e-07
3304.94	-2.70496e-07
3313.5	2.95168e-07
3322.05	1.25871e-08
3330.61	-2.32389e-08
3339.17	5.10106e-08
3347.73	1.14328e-07
3356.29	-6.19207e-08
3364.84	-2.07106e-08
3373.4	-1.44188e-07
3381.96	4.42223e-08
3390.52	-1.11614e-07
3399.07	6.23682e-08
3407.63	-3.95076e-08
3416.19	-1.42671e-07
3424.75	8.91504e-08
3433.3	1.36218e-07
3441.86	8.51996e-08
3450.42	4.53282e-08
3458.98	-8.56289e-08
3467.53	-1.64495e-07
3476.09	-3.33741e-08
3484.65	-3.48318e-07
3493.21	1.08097e-07
3501.77	3.4396e-07
3510.32	1.1953e-07
3518.88	2.51823e-07
3527.44	8.48795e-08
3536	4.11337e-08
3544.55	1.26039e-07
3553.11	-7.94081e-08
3561.67	3.60334e-08
3570.23	-3.3262e-07
3578.78	-1.55571e-07
3587.34	-2.94768e-07
3595.9	-1.00406e-07
3604.46	-2.23345e-07
3613.01	-6.49183e-08
3621.57	8.66693e-08
3630.13	-6.03382e-08
3638.69	3.89292e-08
3647.25	1.87265e-07
3655.8	6.74794e-08
3664.36	1.80884e-07
3672.92	-4.73545e-08
3681.48	-3.31529e-07
3690.03	-5.12325e-08
3698.59	5.22111e-08
3707.15	6.27392e-08
3715.71	-1.54083e-07
3724.26	3.99187e-08
3732.82	2.84447e-07
3741.38	1.14052e-07
3749.94	4.14768e-07
3758.49	-1.80473e-07
3767.05	2.79209e-08
3775.61	-9.42289e-08
3784.17	6.26446e-08
3792.73	2.01511e-07
3801.28	2.45988e-07
3809.84	-1.09144e-07
3818.4	3.67675e-07
3826.96	-2.27987e-07
3835.51	7.15393e-08
3844.07	-2.67822e-08
3852.63	-3.22329e-07
3861.19	-1.40772e-07
3869.74	1.25551e-07
3878.3	-4.82386e-08
3886.86	-1.41911e-07
3895.42	2.41266e-07
3903.97	5.90744e-07
3912.53	-3.64372e-08
3921.09	2.54107e-07
3929.65	-2.77353e-08
3938.21	6.14198e-07
3946.76	4.75692e-08
3955.32	-2.46802e-07
3963.88	1.6038e-07
3972.44	-1.62811e-07
