Infrared Spectrum: 1,1-Dichloroethene
Formula: C H2 C Cl2
CAS: 75-35-4
State: gas
Melting point: -122.1 C
Boiling point: 37 C
Class: IUPAC A
Instrument: IFS66V (Bruker)
Instrument parameters: KBr Beam Splitter; MCT Detector; Multipass cell
Sampling: 1 L/min Flow
Resolution: 0.4820
Temperature: 23 C
Pressure: 101.3 Pa
Origin: NIST, Analytical Chemistry Division, 301-975-3108
cm-1	(micromol/mol)-1m-1 (base 10)
575.17	6.26194e-06
583.848	2.15628e-05
592.526	6.08204e-05
601.205	5.48129e-05
609.883	8.42332e-05
618.561	3.13139e-05
627.239	8.17316e-06
635.917	1.01952e-06
644.595	-1.93791e-07
653.274	-4.11068e-07
661.952	-5.87503e-07
670.63	-1.67598e-07
679.308	1.20963e-06
687.986	2.85539e-08
696.665	-7.00074e-07
705.343	-1.37756e-07
714.021	9.1435e-08
722.699	-3.06533e-07
731.377	2.86885e-08
740.055	1.01767e-07
748.734	9.032e-07
757.412	5.01036e-06
766.09	2.85406e-05
774.768	0.000115069
783.446	0.000391403
792.124	0.000394564
800.803	0.000452356
809.481	0.000122899
818.159	8.79487e-06
826.837	6.10843e-06
835.515	1.19125e-05
844.194	3.84453e-05
852.872	9.6166e-05
861.55	0.000349967
870.228	0.000132234
878.906	0.000136077
887.584	9.55178e-05
896.263	2.61389e-05
904.941	1.01613e-05
913.619	3.78369e-06
922.297	5.44185e-06
930.975	2.441e-06
939.654	1.58834e-06
948.332	1.04785e-06
957.01	4.07561e-07
965.688	6.0188e-07
974.366	2.46562e-07
983.044	4.64083e-07
991.723	2.26532e-07
1000.4	6.6268e-08
1009.08	8.11535e-07
1017.76	1.91512e-06
1026.44	9.0133e-07
1035.11	1.93445e-07
1043.79	2.56054e-07
1052.47	3.36688e-06
1061.15	1.85859e-05
1069.83	0.000106993
1078.5	0.000291747
1087.18	0.000386995
1095.86	0.0003163
1104.54	0.000293164
1113.22	3.3431e-05
1121.9	1.54141e-05
1130.57	6.36132e-05
1139.25	0.000159446
1147.93	6.41088e-05
1156.61	9.44771e-06
1165.29	8.99151e-07
1173.96	9.74179e-07
1182.64	5.97354e-07
1191.32	1.23358e-07
1200	1.01446e-07
1208.68	2.64403e-08
1217.36	-2.24615e-07
1226.03	4.98574e-08
1234.71	-1.9892e-08
1243.39	2.48992e-07
1252.07	4.69202e-07
1260.75	4.13473e-07
1269.42	-1.00737e-07
1278.1	-2.22094e-08
1286.78	5.11016e-08
1295.46	1.03219e-06
1304.14	3.27983e-06
1312.82	6.03754e-06
1321.49	5.63407e-06
1330.17	3.80138e-06
1338.85	1.68634e-06
1347.53	9.82011e-07
1356.21	1.36577e-06
1364.88	1.41545e-06
1373.56	3.65319e-06
1382.24	8.56839e-06
1390.92	1.40534e-05
1399.6	9.43326e-06
1408.28	6.25289e-06
1416.95	2.62656e-08
1425.63	-4.62377e-09
1434.31	4.14902e-08
1442.99	2.1882e-08
1451.67	-1.76365e-08
1460.34	-3.52876e-09
1469.02	1.73797e-07
1477.7	1.37407e-07
1486.38	4.66088e-08
1495.06	1.15281e-07
1503.74	6.78978e-08
1512.41	2.71322e-07
1521.09	7.51892e-07
1529.77	3.80097e-06
1538.45	9.76899e-06
1547.13	2.21047e-05
1555.8	5.0222e-05
1564.48	6.9215e-05
1573.16	6.62562e-05
1581.84	5.38563e-05
1590.52	3.3023e-05
1599.2	6.01551e-05
1607.87	0.000162516
1616.55	0.000265914
1625.23	0.000253264
1633.91	0.000185593
1642.59	5.20195e-05
1651.26	7.91008e-06
1659.94	6.82466e-07
1668.62	3.96604e-07
1677.3	4.20596e-07
1685.98	6.55513e-07
1694.66	1.25541e-06
1703.33	4.29585e-07
1712.01	4.53159e-07
1720.69	1.56793e-06
1729.37	3.85991e-06
1738.05	8.50463e-06
1746.72	8.28364e-06
1755.4	5.77447e-06
1764.08	2.08041e-06
1772.76	5.27463e-07
1781.44	3.45942e-07
1790.12	4.05015e-07
1798.79	1.44308e-07
1807.47	4.44464e-07
1816.15	1.30852e-07
1824.83	4.90462e-08
1833.51	-6.98477e-10
1842.18	1.02287e-07
1850.86	2.78878e-07
1859.54	5.35124e-07
1868.22	9.54392e-07
1876.9	1.05139e-06
1885.58	8.61389e-07
1894.25	9.05961e-07
1902.93	3.27095e-07
1911.61	2.69376e-07
1920.29	4.1543e-07
1928.97	5.44877e-07
1937.64	3.24242e-07
1946.32	1.6237e-07
1955	-8.90922e-08
1963.68	-4.17231e-08
1972.36	8.71714e-08
1981.04	2.45569e-07
1989.71	3.91387e-07
1998.39	2.52605e-07
2007.07	-1.52788e-07
2015.75	-6.46528e-08
2024.43	-9.12676e-08
2033.1	-5.24476e-08
2041.78	-7.65378e-08
2050.46	3.24646e-08
2059.14	-1.0324e-07
2067.82	-8.46321e-08
2076.5	-5.04831e-08
2085.17	-2.20602e-08
2093.85	6.33358e-09
2102.53	3.73612e-09
2111.21	-1.18006e-07
2119.89	-4.4899e-08
2128.56	-7.25106e-08
2137.24	-3.03805e-07
2145.92	-3.21067e-07
2154.6	-2.22239e-07
2163.28	-2.94204e-07
2171.96	-4.35569e-07
2180.63	-3.11386e-07
2189.31	-2.81344e-07
2197.99	-9.09293e-08
2206.67	5.9989e-09
2215.35	4.35278e-07
2224.02	6.49805e-07
2232.7	5.83774e-07
2241.38	1.38797e-07
2250.06	-4.67616e-08
2258.74	-1.09624e-07
2267.42	-3.31162e-07
2276.09	-3.08683e-07
2284.77	-2.87911e-07
2293.45	-2.24331e-07
2302.13	-1.27541e-07
2310.81	-8.18091e-08
2319.48	9.02163e-08
2328.16	8.31551e-08
2336.84	3.07952e-07
2345.52	8.21292e-08
2354.2	1.67514e-07
2362.88	-3.85872e-07
2371.55	-1.47466e-07
2380.23	-9.32103e-08
2388.91	3.02928e-08
2397.59	2.18554e-07
2406.27	5.12766e-07
2414.94	1.04122e-06
2423.62	1.4979e-06
2432.3	1.06543e-06
2440.98	5.48803e-07
2449.66	-1.12135e-07
2458.34	4.40804e-08
2467.01	4.71108e-09
2475.69	-7.15939e-09
2484.37	-4.87369e-08
2493.05	-2.0405e-07
2501.73	-1.91892e-07
2510.4	-1.09755e-07
2519.08	-1.12775e-08
2527.76	-1.85395e-07
2536.44	5.95124e-08
2545.12	-2.00219e-07
2553.8	-7.12228e-08
2562.47	-4.97737e-08
2571.15	-1.44617e-07
2579.83	-1.87832e-07
2588.51	-6.85744e-09
2597.19	-7.92626e-08
2605.86	2.14745e-08
2614.54	5.39755e-08
2623.22	-1.28054e-08
2631.9	7.18412e-08
2640.58	3.39525e-08
2649.26	2.72115e-07
2657.93	9.41489e-08
2666.61	1.8016e-07
2675.29	1.37505e-07
2683.97	1.3163e-07
2692.65	3.22347e-07
2701.32	3.47187e-07
2710	5.47777e-07
2718.68	1.20338e-07
2727.36	5.69113e-08
2736.04	-2.01863e-07
2744.71	-6.21863e-08
2753.39	1.3752e-07
2762.07	-1.12528e-07
2770.75	-2.82436e-07
2779.43	-9.23917e-08
2788.11	-7.98192e-08
2796.78	-1.60671e-07
2805.46	-1.26457e-07
2814.14	-9.00162e-08
2822.82	4.84423e-08
2831.5	2.9547e-08
2840.17	9.34649e-08
2848.85	2.89104e-08
2857.53	7.89279e-08
2866.21	1.91063e-08
2874.89	2.51874e-07
2883.57	1.78497e-07
2892.24	-3.78815e-08
2900.92	1.46575e-07
2909.6	-4.90498e-08
2918.28	2.93247e-07
2926.96	1.01352e-07
2935.63	4.73411e-07
2944.31	7.18114e-07
2952.99	3.84988e-07
2961.67	4.10763e-07
2970.35	3.90623e-07
2979.03	3.04387e-07
2987.7	5.32949e-07
2996.38	5.71667e-07
3005.06	1.05526e-06
3013.74	2.32298e-07
3022.42	2.975e-07
3031.09	3.9285e-07
3039.77	9.04764e-07
3048.45	6.6411e-07
3057.13	5.6701e-07
3065.81	-1.82041e-08
3074.49	7.1874e-08
3083.16	-6.90255e-08
3091.84	-1.29167e-07
3100.52	-1.93474e-07
3109.2	-1.82073e-07
3117.88	-1.74437e-08
3126.55	-5.83505e-07
3135.23	-4.44249e-07
3143.91	-5.24949e-09
3152.59	-4.19956e-07
3161.27	1.44516e-07
3169.95	8.88986e-07
3178.62	2.19131e-06
3187.3	3.14288e-06
3195.98	2.91771e-06
3204.66	1.74172e-06
3213.34	2.81315e-07
3222.01	-5.32239e-07
3230.69	9.13004e-08
3239.37	4.51631e-07
3248.05	4.96861e-07
3256.73	-6.4791e-08
3265.41	-6.1753e-07
3274.08	-6.15391e-07
3282.76	-9.24354e-08
3291.44	-9.6328e-08
3300.12	2.55552e-07
3308.8	1.35388e-07
3317.47	-5.01303e-09
3326.15	1.27232e-07
3334.83	2.24906e-07
3343.51	2.0632e-07
3352.19	-3.12496e-09
3360.87	2.61965e-07
3369.54	-1.79923e-07
3378.22	-4.02534e-08
3386.9	-2.67604e-08
3395.58	-1.2769e-09
3404.26	4.84095e-08
3412.93	1.33798e-07
3421.61	5.19383e-08
3430.29	-5.02612e-08
3438.97	5.16946e-08
3447.65	-7.62613e-08
3456.33	-2.09387e-07
3465	-1.25337e-07
3473.68	-1.49601e-07
3482.36	-2.45154e-07
3491.04	5.38446e-08
3499.72	3.63837e-07
3508.39	-6.94839e-08
3517.07	3.92027e-07
3525.75	-1.04437e-07
3534.43	9.89145e-08
3543.11	-1.42358e-07
3551.79	-3.13332e-07
3560.46	-2.22952e-07
3569.14	1.33002e-07
3577.82	-1.69126e-07
3586.5	-1.65699e-07
3595.18	-6.0451e-08
3603.85	2.84775e-08
3612.53	-1.58569e-07
3621.21	-1.30681e-07
3629.89	9.265e-08
3638.57	1.39881e-07
3647.25	7.22014e-08
3655.92	1.91026e-07
3664.6	3.51054e-07
3673.28	-9.81651e-08
3681.96	-9.24718e-08
3690.64	-2.50902e-07
3699.31	-6.9935e-08
3707.99	-1.15998e-07
3716.67	-1.16729e-07
3725.35	5.87885e-09
3734.03	3.67559e-07
3742.71	4.18966e-07
3751.38	1.13306e-07
3760.06	6.61625e-08
3768.74	-2.75098e-08
3777.42	-1.61857e-07
3786.1	-1.93904e-07
3794.77	-4.12138e-08
3803.45	-1.96388e-07
3812.13	-1.78665e-07
3820.81	-1.16355e-07
3829.49	-2.82156e-08
3838.17	-4.62232e-08
3846.84	-6.92474e-08
3855.52	-1.78839e-08
3864.2	-3.18782e-07
3872.88	-2.06633e-08
3881.56	1.96192e-08
3890.23	-1.46687e-07
3898.91	-2.57745e-08
3907.59	-2.7357e-09
3916.27	1.32263e-07
3924.95	1.59522e-08
3933.63	1.37622e-07
3942.3	3.45575e-07
3950.98	2.25877e-08
3959.66	-4.35056e-08
3968.34	-8.59272e-08
