Infrared Spectrum: 1,1-Dichloroethene
Formula: C H2 C Cl2
CAS: 75-35-4
State: gas
Melting point: -122.1 C
Boiling point: 37 C
Class: IUPAC A
Instrument: IFS66V (Bruker)
Instrument parameters: KBr Beam Splitter; MCT Detector; Multipass cell
Sampling: 1 L/min Flow
Resolution: 0.1250
Temperature: 23 C
Pressure: 101.3 Pa
Origin: NIST, Analytical Chemistry Division, 301-975-3108
cm-1	(micromol/mol)-1m-1 (base 10)
575.05	3.83941e-06
583.608	1.97465e-05
592.165	5.81685e-05
600.723	5.92334e-05
609.281	8.58815e-05
617.838	3.59909e-05
626.396	1.04838e-05
634.954	7.95707e-07
643.511	4.50277e-07
652.069	-2.67848e-07
660.626	-3.9274e-07
669.184	-4.30069e-07
677.742	5.86007e-07
686.299	4.30367e-07
694.857	2.65057e-08
703.415	8.71786e-08
711.972	1.76438e-08
720.53	-8.74005e-08
729.088	4.4135e-07
737.645	-1.21146e-07
746.203	4.02581e-07
754.761	2.95732e-06
763.318	1.80915e-05
771.876	6.59418e-05
780.434	0.00027945
788.991	0.000390976
797.549	0.00028466
806.106	0.000306827
814.664	1.7744e-05
823.222	6.21847e-06
831.779	6.33092e-06
840.337	2.11812e-05
848.895	6.82995e-05
857.452	0.000114884
866.01	9.71775e-05
874.568	0.000159447
883.125	0.00012692
891.683	5.57066e-05
900.241	1.40768e-05
908.798	8.01945e-06
917.356	7.2528e-06
925.914	4.09825e-06
934.471	2.48433e-06
943.029	1.26825e-06
951.586	9.44275e-07
960.144	6.67835e-07
968.702	7.79598e-07
977.259	9.74484e-07
985.817	3.99005e-07
994.375	5.07596e-08
1002.93	4.0484e-07
1011.49	1.12485e-06
1020.05	8.41068e-07
1028.61	7.40749e-07
1037.16	2.58535e-07
1045.72	7.31702e-07
1054.28	4.01553e-06
1062.84	2.7778e-05
1071.39	0.000134667
1079.95	0.000249676
1088.51	0.000409888
1097.07	0.000659025
1105.62	0.000271496
1114.18	2.31023e-05
1122.74	1.60162e-05
1131.3	6.38318e-05
1139.85	2.80973e-05
1148.41	6.25744e-05
1156.97	8.29818e-06
1165.53	9.03676e-07
1174.09	9.53628e-07
1182.64	6.54818e-07
1191.2	1.64178e-07
1199.76	1.8594e-07
1208.32	1.79538e-07
1216.87	2.42502e-08
1225.43	1.43988e-07
1233.99	1.00733e-08
1242.55	1.83085e-07
1251.1	4.76994e-07
1259.66	3.59686e-07
1268.22	-1.05706e-07
1276.78	7.22742e-08
1285.33	1.19065e-07
1293.89	8.91205e-07
1302.45	2.45962e-06
1311.01	5.96821e-06
1319.57	3.50965e-06
1328.12	4.66042e-06
1336.68	1.88515e-06
1345.24	7.10744e-07
1353.8	1.55429e-06
1362.35	8.3452e-07
1370.91	2.5431e-06
1379.47	6.43583e-06
1388.03	9.56698e-06
1396.58	9.92367e-06
1405.14	9.23096e-06
1413.7	7.45329e-07
1422.26	-1.50176e-07
1430.81	4.40186e-10
1439.37	-1.53156e-08
1447.93	-4.60558e-09
1456.49	-1.93289e-07
1465.05	1.83729e-07
1473.6	1.03949e-07
1482.16	9.1384e-09
1490.72	5.85556e-08
1499.28	-1.42351e-08
1507.83	2.29042e-07
1516.39	5.62288e-07
1524.95	1.70271e-06
1533.51	6.66353e-06
1542.06	1.64266e-05
1550.62	3.33683e-05
1559.18	6.18422e-05
1567.74	6.17917e-05
1576.29	8.69739e-05
1584.85	3.85564e-05
1593.41	3.56898e-05
1601.97	8.10334e-05
1610.53	0.00021221
1619.08	0.000226751
1627.64	0.000339286
1636.2	0.000130892
1644.76	3.64988e-05
1653.31	4.08827e-06
1661.87	4.2602e-07
1670.43	2.42433e-07
1678.99	5.40563e-07
1687.54	7.0723e-07
1696.1	7.52358e-07
1704.66	4.3359e-07
1713.22	6.47437e-07
1721.77	1.67059e-06
1730.33	4.43938e-06
1738.89	8.49788e-06
1747.45	9.18575e-06
1756.01	5.69132e-06
1764.56	2.12635e-06
1773.12	8.46932e-07
1781.68	3.69902e-07
1790.24	4.17555e-07
1798.79	1.38426e-07
1807.35	1.46997e-07
1815.91	-6.35905e-09
1824.47	-1.59948e-07
1833.02	-9.0038e-08
1841.58	4.72163e-08
1850.14	2.91439e-07
1858.7	4.67597e-07
1867.25	8.95498e-07
1875.81	1.06447e-06
1884.37	8.13445e-07
1892.93	8.95626e-07
1901.49	4.30309e-07
1910.04	3.39143e-07
1918.6	3.80492e-07
1927.16	4.75372e-07
1935.72	4.57917e-07
1944.27	2.07673e-07
1952.83	1.33311e-07
1961.39	7.64323e-09
1969.95	-9.21116e-09
1978.5	1.21153e-07
1987.06	2.91203e-07
1995.62	3.80804e-07
2004.18	1.2343e-07
2012.73	1.79276e-08
2021.29	-7.34237e-08
2029.85	-1.01632e-07
2038.41	-1.85842e-07
2046.97	-1.39823e-07
2055.52	8.16308e-08
2064.08	6.81379e-09
2072.64	1.72287e-07
2081.2	-3.81907e-08
2089.75	2.158e-08
2098.31	-2.44682e-07
2106.87	-1.90782e-07
2115.43	-1.11829e-08
2123.98	-2.46075e-07
2132.54	-3.16636e-07
2141.1	-1.75376e-07
2149.66	-1.5834e-07
2158.21	-1.83165e-07
2166.77	-2.83745e-07
2175.33	-3.29412e-07
2183.89	-3.51799e-07
2192.45	-1.5914e-07
2201	-9.13695e-08
2209.56	5.40748e-07
2218.12	4.78755e-07
2226.68	5.67265e-07
2235.23	3.80863e-07
2243.79	2.72224e-08
2252.35	-1.08617e-07
2260.91	-1.93303e-07
2269.46	-1.95195e-07
2278.02	-3.06082e-07
2286.58	-9.38324e-08
2295.14	-2.17947e-07
2303.69	-5.08287e-08
2312.25	-2.15764e-08
2320.81	-6.78177e-08
2329.37	1.31677e-07
2337.93	1.70385e-07
2346.48	1.70297e-07
2355.04	-4.77693e-08
2363.6	-9.36541e-08
2372.16	-1.03567e-07
2380.71	-1.20662e-07
2389.27	-3.10859e-08
2397.83	2.78288e-07
2406.39	5.37249e-07
2414.94	1.05539e-06
2423.5	1.4623e-06
2432.06	1.13565e-06
2440.62	6.72084e-07
2449.17	4.85369e-08
2457.73	3.41028e-07
2466.29	-1.42249e-07
2474.85	-2.08634e-08
2483.41	2.22861e-07
2491.96	-5.27132e-08
2500.52	-5.86611e-08
2509.08	-2.7699e-08
2517.64	-1.2275e-07
2526.19	-4.20432e-08
2534.75	-5.33971e-08
2543.31	4.33638e-08
2551.87	-1.52228e-07
2560.42	-2.11646e-07
2568.98	-1.21288e-07
2577.54	-1.28894e-07
2586.1	-2.94739e-07
2594.65	3.80161e-09
2603.21	-2.55643e-07
2611.77	5.86138e-08
2620.33	-8.04303e-08
2628.89	1.75798e-07
2637.44	1.27934e-07
2646	1.09257e-07
2654.56	9.61642e-08
2663.12	7.38748e-08
2671.67	-5.99162e-08
2680.23	3.50439e-08
2688.79	2.5036e-08
2697.35	4.46676e-07
2705.9	2.70474e-07
2714.46	2.40276e-07
2723.02	1.75805e-07
2731.58	7.15393e-08
2740.13	-4.86278e-08
2748.69	1.28673e-07
2757.25	-2.05032e-07
2765.81	-8.59163e-08
2774.37	-1.75634e-07
2782.92	-1.34519e-07
2791.48	4.46698e-08
2800.04	-1.37251e-07
2808.6	-2.0111e-07
2817.15	9.59423e-08
2825.71	3.51785e-09
2834.27	-1.01959e-07
2842.83	-8.11397e-08
2851.38	-4.71908e-08
2859.94	-2.57614e-07
2868.5	2.09317e-07
2877.06	2.49662e-07
2885.61	4.16878e-07
2894.17	-9.83615e-08
2902.73	-1.08602e-07
2911.29	3.19968e-07
2919.85	2.66178e-07
2928.4	2.76564e-07
2936.96	2.16721e-07
2945.52	5.46278e-07
2954.08	3.61931e-07
2962.63	4.47695e-07
2971.19	3.16232e-07
2979.75	2.05534e-07
2988.31	4.79548e-07
2996.86	6.42413e-07
3005.42	1.08033e-06
3013.98	4.08056e-07
3022.54	1.83008e-07
3031.09	1.97949e-07
3039.65	9.88563e-07
3048.21	7.46915e-07
3056.77	5.97623e-07
3065.33	-7.44787e-08
3073.88	-1.36945e-07
3082.44	3.23555e-08
3091	1.02625e-07
3099.56	-2.27449e-07
3108.11	-2.68841e-09
3116.67	-1.17541e-07
3125.23	-3.45662e-07
3133.79	-5.75268e-07
3142.34	-4.38643e-07
3150.9	-4.94922e-07
3159.46	1.67867e-07
3168.02	5.54129e-07
3176.57	2.04486e-06
3185.13	2.68098e-06
3193.69	2.43019e-06
3202.25	3.02939e-06
3210.81	1.22037e-07
3219.36	-3.03495e-07
3227.92	-3.02673e-08
3236.48	4.11265e-07
3245.04	6.71502e-07
3253.59	4.38207e-07
3262.15	-4.61057e-07
3270.71	-3.4492e-07
3279.27	-6.24136e-07
3287.82	-1.10021e-07
3296.38	2.74636e-07
3304.94	-2.0871e-07
3313.5	3.06944e-07
3322.05	-1.77238e-08
3330.61	-2.09361e-08
3339.17	9.83906e-08
3347.73	1.52097e-07
3356.29	8.09251e-08
3364.84	3.86309e-08
3373.4	-1.41089e-07
3381.96	1.24562e-07
3390.52	-8.53742e-08
3399.07	1.47328e-07
3407.63	-2.41738e-08
3416.19	-5.32006e-08
3424.75	5.17309e-08
3433.3	1.06259e-07
3441.86	5.26113e-08
3450.42	6.21462e-08
3458.98	5.23894e-08
3467.53	5.75989e-08
3476.09	-8.37044e-08
3484.65	-1.93795e-07
3493.21	-2.7739e-08
3501.77	3.85323e-07
3510.32	1.31692e-08
3518.88	1.13157e-07
3527.44	-1.57557e-08
3536	7.89824e-08
3544.55	3.32322e-08
3553.11	-6.10112e-08
3561.67	-8.70186e-09
3570.23	-4.00038e-07
3578.78	-1.98946e-07
3587.34	-2.08768e-07
3595.9	-9.96639e-08
3604.46	-1.1085e-07
3613.01	-1.64426e-07
3621.57	1.10316e-07
3630.13	-2.22057e-08
3638.69	4.55865e-08
3647.25	1.33256e-08
3655.8	2.30243e-08
3664.36	1.44548e-07
3672.92	4.5521e-08
3681.48	-3.4536e-07
3690.03	-3.87982e-08
3698.59	-8.17181e-08
3707.15	1.16151e-07
3715.71	-2.4538e-07
3724.26	6.49038e-08
3732.82	2.86084e-07
3741.38	1.67052e-07
3749.94	3.23326e-07
3758.49	-1.06932e-07
3767.05	3.27411e-10
3775.61	-1.64197e-07
3784.17	1.90299e-08
3792.73	1.84329e-07
3801.28	1.37709e-07
3809.84	-1.20229e-07
3818.4	3.08327e-07
3826.96	-2.43463e-07
3835.51	-2.63384e-08
3844.07	-6.71193e-08
3852.63	-3.28382e-07
3861.19	-5.57072e-08
3869.74	4.6245e-08
3878.3	-1.84205e-07
3886.86	-1.24471e-07
3895.42	2.66134e-07
3903.97	6.10349e-07
3912.53	-3.35778e-09
3921.09	1.88789e-07
3929.65	1.60249e-08
3938.21	4.79282e-07
3946.76	3.89619e-08
3955.32	-2.81795e-07
3963.88	5.04322e-08
3972.44	-1.52759e-07
