Infrared Spectrum: 1,1-Dichloroethene
Formula: C H2 C Cl2
CAS: 75-35-4
State: gas
Melting point: -122.1 C
Boiling point: 37 C
Class: IUPAC A
Instrument: IFS66V (Bruker)
Instrument parameters: KBr Beam Splitter; MCT Detector; Multipass cell
Sampling: 1 L/min Flow
Resolution: 0.9640
Temperature: 23 C
Pressure: 101.3 Pa
Origin: NIST, Analytical Chemistry Division, 301-975-3108
cm-1	(micromol/mol)-1m-1 (base 10)
575.17	6.27087e-06
583.848	2.11208e-05
592.526	6.02485e-05
601.205	5.53157e-05
609.883	8.39661e-05
618.561	3.19726e-05
627.239	8.8131e-06
635.917	1.32379e-06
644.595	-5.56474e-08
653.274	-2.02867e-07
661.952	-1.68074e-07
670.63	4.7526e-08
679.308	1.01752e-06
687.986	6.74957e-08
696.665	-2.3936e-07
705.343	-2.27466e-07
714.021	-2.7911e-08
722.699	-4.00449e-08
731.377	1.21293e-07
740.055	2.20134e-07
748.734	8.42809e-07
757.412	5.09288e-06
766.09	2.86955e-05
774.768	0.000117185
783.446	0.000391787
792.125	0.000419063
800.803	0.000455032
809.481	0.000122445
818.159	8.55233e-06
826.837	6.44872e-06
835.515	1.19002e-05
844.194	3.80236e-05
852.872	9.58444e-05
861.55	0.000237833
870.228	0.000165831
878.906	0.000135486
887.584	9.96781e-05
896.263	2.64253e-05
904.941	1.00055e-05
913.619	3.71789e-06
922.297	5.51909e-06
930.975	2.46303e-06
939.654	1.48052e-06
948.332	8.60491e-07
957.01	4.85279e-07
965.688	5.00059e-07
974.366	2.13741e-07
983.044	3.16154e-07
991.723	1.57024e-07
1000.4	1.63223e-07
1009.08	8.68474e-07
1017.76	1.50056e-06
1026.44	9.85978e-07
1035.11	1.39641e-07
1043.79	3.19732e-07
1052.47	3.27768e-06
1061.15	1.89631e-05
1069.83	0.000107456
1078.5	0.000286796
1087.18	0.000378895
1095.86	0.000334315
1104.54	0.000292321
1113.22	3.35175e-05
1121.9	1.51226e-05
1130.57	6.2296e-05
1139.25	0.000133924
1147.93	6.39346e-05
1156.61	9.41329e-06
1165.29	8.79385e-07
1173.96	8.31328e-07
1182.64	4.53177e-07
1191.32	5.89396e-08
1200	1.10827e-07
1208.68	3.85934e-08
1217.36	-1.4869e-07
1226.03	-3.95265e-08
1234.71	5.84449e-08
1243.39	2.97114e-07
1252.07	4.52679e-07
1260.75	3.11179e-07
1269.42	-1.46221e-07
1278.1	-9.11142e-08
1286.78	9.19909e-08
1295.46	1.02677e-06
1304.14	3.20201e-06
1312.82	6.02351e-06
1321.49	5.49254e-06
1330.17	3.80726e-06
1338.85	1.76331e-06
1347.53	9.88629e-07
1356.21	1.22489e-06
1364.88	1.31008e-06
1373.56	3.71893e-06
1382.24	8.64416e-06
1390.92	1.2405e-05
1399.6	9.85212e-06
1408.28	6.13016e-06
1416.95	3.47228e-09
1425.63	-2.04626e-08
1434.31	-3.41044e-09
1442.99	-1.26414e-08
1451.67	-1.66229e-08
1460.34	3.82169e-08
1469.02	8.37967e-08
1477.7	9.43627e-08
1486.38	-2.36275e-09
1495.06	5.35539e-08
1503.74	1.46723e-07
1512.41	2.81273e-07
1521.09	8.5612e-07
1529.77	3.77871e-06
1538.45	9.58142e-06
1547.13	2.21425e-05
1555.8	5.03446e-05
1564.48	6.93588e-05
1573.16	6.5912e-05
1581.84	5.37405e-05
1590.52	3.29845e-05
1599.2	6.02416e-05
1607.87	0.000162466
1616.55	0.000266862
1625.23	0.000252383
1633.91	0.00018551
1642.59	5.21232e-05
1651.26	7.95399e-06
1659.94	7.98341e-07
1668.62	2.90216e-07
1677.3	4.86292e-07
1685.98	5.87919e-07
1694.66	1.08778e-06
1703.33	4.65162e-07
1712.01	4.62061e-07
1720.69	1.50933e-06
1729.37	3.84634e-06
1738.05	8.62308e-06
1746.72	8.25704e-06
1755.4	5.82653e-06
1764.08	2.11815e-06
1772.76	7.94466e-07
1781.44	3.17405e-07
1790.12	3.46704e-07
1798.79	8.47407e-08
1807.47	3.93353e-07
1816.15	7.17101e-08
1824.83	-1.56098e-08
1833.51	-1.50387e-08
1842.18	1.33866e-07
1850.86	2.74003e-07
1859.54	4.82112e-07
1868.22	9.92881e-07
1876.9	1.06672e-06
1885.58	8.28845e-07
1894.25	8.14172e-07
1902.93	3.13204e-07
1911.61	2.99644e-07
1920.29	3.82033e-07
1928.97	4.74173e-07
1937.64	3.16132e-07
1946.32	1.345e-07
1955	-3.05757e-08
1963.68	-8.15085e-08
1972.36	3.18471e-08
1981.04	2.42214e-07
1989.71	2.94191e-07
1998.39	2.90993e-07
2007.07	-3.6951e-08
2015.75	-8.50154e-08
2024.43	-7.15864e-08
2033.1	-7.36782e-08
2041.78	-9.95084e-08
2050.46	-4.10508e-08
2059.14	-6.11041e-08
2067.82	-3.97957e-08
2076.5	-1.02513e-08
2085.17	-1.7536e-08
2093.85	-3.83788e-08
2102.53	-5.32137e-08
2111.21	-2.39549e-08
2119.89	-5.41141e-08
2128.56	-1.20742e-07
2137.24	-2.59042e-07
2145.92	-3.07354e-07
2154.6	-2.74925e-07
2163.28	-3.5956e-07
2171.96	-3.92484e-07
2180.63	-3.0619e-07
2189.31	-3.21283e-07
2197.99	-1.00258e-07
2206.67	1.31965e-07
2215.35	4.31294e-07
2224.02	6.80896e-07
2232.7	5.65383e-07
2241.38	1.31203e-07
2250.06	-6.99349e-08
2258.74	-2.02334e-07
2267.42	-2.39453e-07
2276.09	-3.26627e-07
2284.77	-2.31801e-07
2293.45	-2.3112e-07
2302.13	-2.1556e-07
2310.81	-1.00256e-07
2319.48	-8.20324e-10
2328.16	8.24617e-08
2336.84	2.45493e-07
2345.52	1.46383e-07
2354.2	9.40008e-08
2362.88	-1.46361e-07
2371.55	-9.49648e-08
2380.23	-9.78823e-08
2388.91	8.85259e-09
2397.59	1.70302e-07
2406.27	4.62035e-07
2414.94	1.00961e-06
2423.62	1.49217e-06
2432.3	1.11637e-06
2440.98	5.47334e-07
2449.66	1.48113e-08
2458.34	3.17353e-07
2467.01	-6.13497e-08
2475.69	-7.74069e-08
2484.37	-4.97487e-08
2493.05	-8.25962e-08
2501.73	-1.12761e-07
2510.4	-6.95293e-08
2519.08	-4.9234e-08
2527.76	-9.96448e-08
2536.44	5.6586e-09
2545.12	-1.33713e-07
2553.8	-1.49515e-07
2562.47	-8.81712e-08
2571.15	-1.31503e-07
2579.83	-1.55149e-07
2588.51	-1.28216e-07
2597.19	-7.54916e-08
2605.86	8.36694e-10
2614.54	2.86386e-08
2623.22	2.40622e-08
2631.9	1.23651e-07
2640.58	7.66703e-08
2649.26	1.73852e-07
2657.93	1.51833e-07
2666.61	1.28784e-07
2675.29	3.65817e-08
2683.97	4.97833e-08
2692.65	2.83215e-07
2701.32	3.91884e-07
2710	4.89484e-07
2718.68	1.16122e-07
2727.36	-1.43529e-08
2736.04	-1.47094e-07
2744.72	-8.08501e-09
2753.39	3.1698e-08
2762.07	-3.93901e-08
2770.75	-1.41809e-07
2779.43	-1.06458e-07
2788.11	-1.13403e-07
2796.78	-2.13988e-07
2805.46	-1.22603e-07
2814.14	-1.23556e-07
2822.82	-8.79766e-08
2831.5	-1.05296e-08
2840.18	-2.58193e-08
2848.85	7.69722e-08
2857.53	1.42383e-08
2866.21	-1.80071e-08
2874.89	1.62577e-07
2883.57	7.48295e-08
2892.24	5.55547e-08
2900.92	2.33583e-08
2909.6	4.63656e-08
2918.28	2.65005e-07
2926.96	1.25722e-07
2935.63	4.03056e-07
2944.31	4.99608e-07
2952.99	4.34948e-07
2961.67	3.5625e-07
2970.35	2.90613e-07
2979.03	1.86097e-07
2987.7	5.00989e-07
2996.38	5.87277e-07
3005.06	9.27752e-07
3013.74	4.19693e-07
3022.42	2.29181e-07
3031.09	4.36831e-07
3039.77	9.17604e-07
3048.45	6.90538e-07
3057.13	5.17002e-07
3065.81	1.16562e-07
3074.49	5.34684e-08
3083.16	-6.52167e-08
3091.84	-3.54067e-08
3100.52	-9.26766e-08
3109.2	-1.72164e-07
3117.88	-2.2936e-07
3126.55	-3.77085e-07
3135.23	-3.51168e-07
3143.91	-1.56582e-07
3152.59	-3.00551e-07
3161.27	7.75033e-08
3169.95	9.16556e-07
3178.62	2.12148e-06
3187.3	3.03278e-06
3195.98	2.88657e-06
3204.66	1.78894e-06
3213.34	2.55208e-07
3222.01	-3.54467e-07
3230.69	4.03778e-08
3239.37	5.48586e-07
3248.05	4.82843e-07
3256.73	-2.80911e-08
3265.41	-5.31233e-07
3274.08	-5.8548e-07
3282.76	-2.9657e-07
3291.44	-1.36303e-07
3300.12	2.12491e-07
3308.8	1.665e-07
3317.47	1.54325e-07
3326.15	1.10849e-07
3334.83	8.91679e-08
3343.51	2.79252e-07
3352.19	7.50587e-08
3360.87	2.03462e-07
3369.54	-1.96696e-08
3378.22	-1.79334e-07
3386.9	-3.73256e-08
3395.58	-5.93689e-08
3404.26	7.97042e-09
3412.93	5.17295e-09
3421.61	1.34291e-07
3430.29	1.09607e-08
3438.97	2.2518e-08
3447.65	-7.51951e-08
3456.33	-2.60918e-07
3465	-1.96889e-07
3473.68	-1.99799e-07
3482.36	-1.47094e-07
3491.04	-2.41714e-08
3499.72	1.58177e-07
3508.39	8.33347e-08
3517.07	2.73777e-07
3525.75	-5.98418e-08
3534.43	6.54768e-08
3543.11	-2.96299e-08
3551.79	-1.57031e-07
3560.46	-1.18007e-07
3569.14	-2.82748e-08
3577.82	-6.29758e-08
3586.5	-9.04939e-08
3595.18	-6.59951e-08
3603.85	-4.7657e-08
3612.53	-3.69982e-08
3621.21	-3.99121e-08
3629.89	-1.77215e-08
3638.57	1.16999e-07
3647.25	6.4349e-08
3655.92	1.52377e-07
3664.6	5.41432e-08
3673.28	-3.43045e-08
3681.96	-1.12484e-07
3690.64	-2.1566e-07
3699.31	-3.55941e-08
3707.99	-3.97193e-08
3716.67	-1.13052e-07
3725.35	8.25853e-08
3734.03	2.75505e-07
3742.71	3.19795e-07
3751.38	2.53156e-07
3760.06	-5.55019e-08
3768.74	-8.58739e-08
3777.42	-9.36333e-08
3786.1	-7.65611e-08
3794.77	-9.57105e-08
3803.45	-1.72177e-07
3812.13	-4.54252e-08
3820.81	-1.46067e-07
3829.49	-7.84382e-08
3838.17	-1.38722e-07
3846.84	-3.67181e-08
3855.52	-7.14137e-08
3864.2	-1.50139e-07
3872.88	-5.14985e-08
3881.56	-2.71471e-08
3890.23	-4.74005e-08
3898.91	-1.4915e-08
3907.59	9.18981e-08
3916.27	1.11364e-07
3924.95	1.78112e-07
3933.63	1.42298e-07
3942.3	1.59516e-07
3950.98	-1.28342e-08
3959.66	-5.92252e-08
3968.34	-1.2448e-07
