Infrared Spectrum: 1,1-Dichloroethene
Formula: C H2 C Cl2
CAS: 75-35-4
State: gas
Melting point: -122.1 C
Boiling point: 37 C
Class: IUPAC A
Instrument: IFS66V (Bruker)
Instrument parameters: KBr Beam Splitter; MCT Detector; Multipass cell
Sampling: 1 L/min Flow
Resolution: 1.9290
Temperature: 23 C
Pressure: 101.3 Pa
Origin: NIST, Analytical Chemistry Division, 301-975-3108
cm-1	(micromol/mol)-1m-1 (base 10)
575.652	6.43214e-06
584.33	2.28298e-05
593.008	6.21455e-05
601.687	5.35885e-05
610.365	8.21461e-05
619.043	2.98965e-05
627.721	8.30841e-06
636.399	1.24273e-06
645.077	-3.67916e-08
653.756	-8.37568e-08
662.434	-1.29444e-07
671.112	1.37631e-07
679.79	6.77669e-07
688.468	1.61501e-07
697.147	-2.31467e-07
705.825	-1.66428e-07
714.503	-1.47773e-07
723.181	3.70963e-08
731.859	1.27329e-10
740.537	2.35724e-07
749.216	7.0977e-07
757.894	5.72074e-06
766.572	3.09322e-05
775.25	0.000130551
783.928	0.000403615
792.607	0.000486082
801.285	0.000458375
809.963	0.000105064
818.641	7.65147e-06
827.319	8.46311e-06
835.997	1.20178e-05
844.676	4.04115e-05
853.354	9.74595e-05
862.032	0.00020578
870.71	0.000151159
879.388	0.000135452
888.066	0.000102589
896.745	2.43067e-05
905.423	1.03687e-05
914.101	4.35877e-06
922.779	5.65102e-06
931.457	3.01313e-06
940.136	1.60571e-06
948.814	9.61114e-07
957.492	7.06424e-07
966.17	5.876e-07
974.848	3.57373e-07
983.526	4.20805e-07
992.205	1.98929e-07
1000.88	3.15458e-07
1009.56	1.07113e-06
1018.24	1.30171e-06
1026.92	1.07254e-06
1035.6	2.30256e-07
1044.27	5.04604e-07
1052.95	3.53591e-06
1061.63	2.13483e-05
1070.31	0.000117024
1078.99	0.000275492
1087.66	0.00039963
1096.34	0.00040366
1105.02	0.000282933
1113.7	2.85935e-05
1122.38	1.58498e-05
1131.06	6.29566e-05
1139.73	8.08013e-05
1148.41	6.17173e-05
1157.09	8.24836e-06
1165.77	7.88689e-07
1174.45	9.18498e-07
1183.12	3.92601e-07
1191.8	1.39359e-07
1200.48	1.01985e-07
1209.16	3.98611e-08
1217.84	-1.32035e-07
1226.52	-2.76785e-08
1235.19	9.54273e-08
1243.87	3.22872e-07
1252.55	3.13963e-07
1261.23	2.96722e-07
1269.91	-1.07655e-07
1278.58	-4.07288e-08
1287.26	1.37874e-07
1295.94	1.15904e-06
1304.62	3.40012e-06
1313.3	5.9115e-06
1321.98	5.7032e-06
1330.65	3.65339e-06
1339.33	1.68705e-06
1348.01	1.19321e-06
1356.69	1.218e-06
1365.37	1.44258e-06
1374.04	3.75988e-06
1382.72	8.7106e-06
1391.4	1.20323e-05
1400.08	9.93928e-06
1408.76	5.57194e-06
1417.44	2.61233e-08
1426.11	2.29728e-08
1434.79	9.50235e-09
1443.47	-1.038e-08
1452.15	5.48059e-09
1460.83	8.78249e-08
1469.5	8.34948e-08
1478.18	9.33319e-08
1486.86	4.07497e-08
1495.54	2.91773e-08
1504.22	1.3551e-07
1512.9	3.06136e-07
1521.57	1.01235e-06
1530.25	4.07707e-06
1538.93	9.87609e-06
1547.61	2.36779e-05
1556.29	5.19928e-05
1564.96	6.83753e-05
1573.64	7.04739e-05
1582.32	5.09989e-05
1591	3.34102e-05
1599.68	6.34865e-05
1608.36	0.000171167
1617.03	0.000261781
1625.71	0.000278715
1634.39	0.000172871
1643.07	4.85074e-05
1651.75	6.95559e-06
1660.42	7.66594e-07
1669.1	2.76871e-07
1677.78	5.69525e-07
1686.46	5.9721e-07
1695.14	8.78286e-07
1703.82	4.84922e-07
1712.49	5.17453e-07
1721.17	1.61674e-06
1729.85	4.16227e-06
1738.53	8.46465e-06
1747.21	8.7588e-06
1755.88	5.59713e-06
1764.56	2.01136e-06
1773.24	9.87601e-07
1781.92	3.16432e-07
1790.6	3.22001e-07
1799.28	7.88773e-08
1807.95	5.76419e-07
1816.63	7.20398e-08
1825.31	-3.01332e-08
1833.99	1.07756e-08
1842.67	1.23804e-07
1851.34	3.18059e-07
1860.02	4.98579e-07
1868.7	1.01957e-06
1877.38	1.10811e-06
1886.06	9.45295e-07
1894.74	7.36045e-07
1903.41	3.28689e-07
1912.09	2.82252e-07
1920.77	4.05467e-07
1929.45	4.42273e-07
1938.13	2.9935e-07
1946.8	1.24908e-07
1955.48	-2.05081e-08
1964.16	-7.01844e-08
1972.84	2.5845e-08
1981.52	2.44316e-07
1990.2	2.94492e-07
1998.87	2.84709e-07
2007.55	-1.99242e-08
2016.23	-9.00004e-08
2024.91	-5.26167e-08
2033.59	-8.31492e-08
2042.26	-9.67343e-08
2050.94	-5.54716e-08
2059.62	-3.44524e-08
2068.3	-1.21735e-08
2076.98	-4.93398e-09
2085.66	-4.16328e-08
2094.33	6.62109e-10
2103.01	-7.32903e-08
2111.69	-4.47997e-08
2120.37	-7.78187e-08
2129.05	-1.23739e-07
2137.72	-2.43311e-07
2146.4	-2.60594e-07
2155.08	-3.16143e-07
2163.76	-3.60126e-07
2172.44	-3.18047e-07
2181.12	-2.71528e-07
2189.79	-2.79444e-07
2198.47	-8.20433e-08
2207.15	1.26984e-07
2215.83	4.88299e-07
2224.51	6.78164e-07
2233.18	5.7105e-07
2241.86	8.58167e-08
2250.54	-7.4781e-08
2259.22	-2.2422e-07
2267.9	-1.86152e-07
2276.58	-3.79289e-07
2285.25	-2.03592e-07
2293.93	-2.53566e-07
2302.61	-1.84502e-07
2311.29	-1.10362e-07
2319.97	1.78487e-08
2328.64	7.34631e-08
2337.32	1.93749e-07
2346	1.50739e-07
2354.68	6.67848e-08
2363.36	-1.47905e-07
2372.04	-6.09622e-08
2380.71	-1.18803e-07
2389.39	4.01349e-08
2398.07	1.55063e-07
2406.75	4.81437e-07
2415.43	1.02976e-06
2424.1	1.38273e-06
2432.78	1.17169e-06
2441.46	4.97471e-07
2450.14	2.52529e-08
2458.82	1.65216e-07
2467.5	-3.30427e-08
2476.17	-3.95674e-08
2484.85	-6.44701e-08
2493.53	-7.21917e-08
2502.21	-1.00346e-07
2510.89	-3.02987e-08
2519.56	-6.95942e-08
2528.24	-5.86248e-08
2536.92	-9.44296e-08
2545.6	-1.40072e-07
2554.28	-1.79986e-07
2562.96	-1.09368e-07
2571.63	-1.46517e-07
2580.31	-9.50126e-08
2588.99	-1.51375e-07
2597.67	-4.56227e-08
2606.35	-5.32352e-08
2615.02	6.59517e-08
2623.7	1.71621e-08
2632.38	1.66428e-07
2641.06	1.07037e-07
2649.74	1.58563e-07
2658.42	1.02058e-07
2667.09	1.09105e-07
2675.77	4.05633e-10
2684.45	6.14815e-08
2693.13	2.65999e-07
2701.81	3.70707e-07
2710.48	4.45246e-07
2719.16	9.43541e-08
2727.84	-3.31873e-09
2736.52	-1.06265e-07
2745.2	-2.58104e-08
2753.88	-2.07164e-08
2762.55	-1.91439e-08
2771.23	-8.48782e-08
2779.91	-1.10647e-07
2788.59	-5.50896e-08
2797.27	-1.93732e-07
2805.94	-9.68734e-08
2814.62	-1.38342e-07
2823.3	-3.82677e-08
2831.98	-2.54557e-08
2840.66	-3.30127e-08
2849.34	-2.36795e-08
2858.01	-1.74331e-08
2866.69	-3.1211e-08
2875.37	1.64301e-07
2884.05	4.4836e-08
2892.73	4.70852e-08
2901.4	1.41826e-08
2910.08	8.02479e-08
2918.76	2.2371e-07
2927.44	1.58672e-07
2936.12	3.06929e-07
2944.8	4.24605e-07
2953.47	3.72767e-07
2962.15	4.42298e-07
2970.83	2.39293e-07
2979.51	1.69962e-07
2988.19	4.95663e-07
2996.86	5.61576e-07
3005.54	8.76439e-07
3014.22	4.14122e-07
3022.9	1.98666e-07
3031.58	4.99597e-07
3040.26	8.98582e-07
3048.93	8.16573e-07
3057.61	4.66896e-07
3066.29	1.01727e-07
3074.97	-5.391e-08
3083.65	-6.67047e-08
3092.32	7.97623e-10
3101	-1.63408e-08
3109.68	-1.57373e-07
3118.36	-2.53181e-07
3127.04	-3.98066e-07
3135.72	-3.29402e-07
3144.39	-1.89014e-07
3153.07	-2.18924e-07
3161.75	1.09011e-07
3170.43	9.86671e-07
3179.11	2.23184e-06
3187.78	3.00143e-06
3196.46	3.08391e-06
3205.14	1.58965e-06
3213.82	1.77778e-07
3222.5	-3.13026e-07
3231.18	2.51592e-08
3239.85	5.78566e-07
3248.53	4.88362e-07
3257.21	-6.32678e-08
3265.89	-5.89288e-07
3274.57	-5.42638e-07
3283.24	-3.69189e-07
3291.92	-1.32117e-07
3300.6	1.31316e-07
3309.28	1.37919e-07
3317.96	1.55382e-07
3326.64	1.36279e-07
3335.31	6.96215e-09
3343.99	2.34044e-07
3352.67	6.7054e-08
3361.35	2.62291e-07
3370.03	8.64197e-09
3378.7	-1.53873e-07
3387.38	-1.23721e-07
3396.06	-4.89406e-08
3404.74	-2.85298e-08
3413.42	2.71365e-08
3422.1	1.03306e-07
3430.77	6.26411e-08
3439.45	-1.28629e-08
3448.13	-1.10225e-07
3456.81	-2.04723e-07
3465.49	-1.80273e-07
3474.16	-2.0958e-07
3482.84	-1.35493e-07
3491.52	-3.98948e-08
3500.2	1.53354e-07
3508.88	5.30415e-08
3517.56	2.52405e-07
3526.23	-9.80494e-08
3534.91	-2.11429e-08
3543.59	-5.65585e-08
3552.27	-8.65498e-08
3560.95	-1.25963e-07
3569.62	-7.49811e-08
3578.3	-9.98447e-08
3586.98	-6.3085e-08
3595.66	-7.90911e-08
3604.34	-6.37452e-08
3613.02	-9.94627e-08
3621.69	3.34438e-08
3630.37	2.98313e-09
3639.05	1.4943e-07
3647.73	7.32731e-08
3656.41	1.84453e-07
3665.08	3.7762e-08
3673.76	2.14794e-08
3682.44	-1.38287e-07
3691.12	-1.55864e-07
3699.8	-7.80734e-08
3708.48	-3.45606e-08
3717.15	-1.12776e-07
3725.83	1.21735e-07
3734.51	1.99006e-07
3743.19	3.33503e-07
3751.87	1.32644e-07
3760.54	-3.01087e-08
3769.22	-1.19884e-07
3777.9	-1.20517e-08
3786.58	-1.10463e-07
3795.26	-8.85734e-08
3803.94	-1.13654e-07
3812.61	-6.37807e-08
3821.29	-1.75494e-07
3829.97	-7.62589e-08
3838.65	-1.09172e-07
3847.33	-7.41234e-09
3856	-1.06837e-07
3864.68	-1.28409e-07
3873.36	-1.07376e-07
3882.04	-2.51019e-10
3890.72	-4.74645e-08
3899.4	-1.18343e-08
3908.07	9.17675e-10
3916.75	8.35257e-08
3925.43	1.48777e-07
3934.11	1.84325e-07
3942.79	1.21874e-07
3951.46	1.37788e-09
3960.14	-1.32888e-07
3968.82	-7.98741e-08
