Infrared Spectrum: 1,1-Dichloroethene
Formula: C H2 C Cl2
CAS: 75-35-4
State: gas
Melting point: -122.1 C
Boiling point: 37 C
Class: IUPAC A
Instrument: IFS66V (Bruker)
Instrument parameters: KBr Beam Splitter; MCT Detector; Multipass cell
Sampling: 1 L/min Flow
Resolution: 0.9640
Temperature: 23 C
Pressure: 101.3 Pa
Origin: NIST, Analytical Chemistry Division, 301-975-3108
cm-1	(micromol/mol)-1m-1 (base 10)
575.17	6.8976e-06
583.848	2.19709e-05
592.526	6.0766e-05
601.205	5.56006e-05
609.883	8.436e-05
618.561	3.2071e-05
627.239	8.96257e-06
635.917	1.64674e-06
644.595	3.91496e-07
653.274	1.64145e-07
661.952	9.25438e-08
670.63	4.6383e-07
679.308	1.62989e-06
687.986	5.83689e-07
696.665	2.66109e-07
705.343	3.53074e-07
714.021	5.05179e-07
722.699	4.17934e-07
731.377	7.91294e-07
740.055	7.34092e-07
748.734	1.43468e-06
757.412	5.52879e-06
766.09	2.88127e-05
774.768	0.000114347
783.446	0.000388935
792.125	0.00039533
800.803	0.000457347
809.481	0.000126914
818.159	1.30778e-05
826.837	1.03913e-05
835.515	1.76371e-05
844.194	4.55279e-05
852.872	0.000106855
861.55	0.000313194
870.228	6.34239e-05
878.906	0.000120634
887.584	8.48868e-05
896.263	2.07911e-05
904.941	5.9876e-06
913.619	4.84162e-07
922.297	2.74366e-06
930.975	-6.36088e-08
939.654	-3.91904e-07
948.332	-8.95235e-07
957.01	-1.11267e-06
965.688	-9.89362e-07
974.366	-1.18133e-06
983.044	-9.3394e-07
991.723	-1.02218e-06
1000.4	-1.02146e-06
1009.08	-3.15586e-07
1017.76	6.29045e-07
1026.44	-9.42299e-08
1035.11	-8.91783e-07
1043.79	-7.32868e-07
1052.47	2.26341e-06
1061.15	1.75311e-05
1069.83	0.000105126
1078.5	0.000295506
1087.18	0.000405294
1095.86	0.000335101
1104.54	0.00029113
1113.22	3.24224e-05
1121.9	1.48551e-05
1130.57	6.20881e-05
1139.25	0.000160163
1147.93	6.36356e-05
1156.61	8.91483e-06
1165.29	4.61817e-07
1173.96	5.14918e-07
1182.64	1.38649e-07
1191.32	-2.86066e-07
1200	-2.24805e-07
1208.68	-2.40028e-07
1217.36	-4.20553e-07
1226.03	-2.89231e-07
1234.71	-2.6063e-07
1243.39	2.00988e-09
1252.07	1.9238e-07
1260.75	5.45161e-08
1269.42	-4.26759e-07
1278.1	-3.4096e-07
1286.78	-1.80533e-07
1295.46	7.83957e-07
1304.14	3.02363e-06
1312.82	5.74e-06
1321.49	5.39171e-06
1330.17	3.63096e-06
1338.85	1.50372e-06
1347.53	5.99555e-07
1356.21	1.00462e-06
1364.88	1.07413e-06
1373.56	3.58161e-06
1382.24	8.44063e-06
1390.92	1.32654e-05
1399.6	8.50565e-06
1408.28	5.92643e-06
1416.95	-2.2508e-07
1425.63	-2.08748e-07
1434.31	-1.67352e-07
1442.99	-1.95384e-07
1451.67	-1.80238e-07
1460.34	-1.83545e-07
1469.02	-1.48331e-08
1477.7	-9.50739e-08
1486.38	-1.95945e-07
1495.06	-1.22976e-07
1503.74	7.34836e-09
1512.41	1.02975e-07
1521.09	6.50992e-07
1529.77	3.59036e-06
1538.45	9.6088e-06
1547.13	2.19312e-05
1555.8	5.02776e-05
1564.48	6.91955e-05
1573.16	6.6039e-05
1581.84	5.35435e-05
1590.52	3.28027e-05
1599.2	5.99976e-05
1607.87	0.00016218
1616.55	0.000266793
1625.23	0.000252859
1633.91	0.000185247
1642.59	5.19604e-05
1651.26	7.76672e-06
1659.94	6.73135e-07
1668.62	2.2068e-07
1677.3	2.94791e-07
1685.98	4.12272e-07
1694.66	1.04204e-06
1703.33	3.11656e-07
1712.01	3.31982e-07
1720.69	1.35557e-06
1729.37	3.75586e-06
1738.05	8.50947e-06
1746.72	8.16017e-06
1755.4	5.68219e-06
1764.08	2.00675e-06
1772.76	5.46434e-07
1781.44	2.51716e-07
1790.12	2.89189e-07
1798.79	5.34393e-09
1807.47	2.5866e-07
1816.15	-5.0529e-09
1824.83	-1.22787e-07
1833.51	-9.64763e-08
1842.18	5.47398e-08
1850.86	1.95839e-07
1859.54	3.95111e-07
1868.22	8.60065e-07
1876.9	9.32166e-07
1885.58	7.4608e-07
1894.25	7.56653e-07
1902.93	2.15678e-07
1911.61	1.93513e-07
1920.29	2.99522e-07
1928.97	3.96389e-07
1937.64	2.38652e-07
1946.32	4.64147e-08
1955	-1.07599e-07
1963.68	-1.54103e-07
1972.36	-7.11736e-09
1981.04	1.55041e-07
1989.71	2.93065e-07
1998.39	1.73347e-07
2007.07	-1.46289e-07
2015.75	-1.08878e-07
2024.43	-1.37483e-07
2033.1	-1.38644e-07
2041.78	-1.44597e-07
2050.46	-6.9964e-08
2059.14	-1.19404e-07
2067.82	-1.17659e-07
2076.5	-1.0998e-07
2085.17	-4.77316e-08
2093.85	-8.03917e-08
2102.53	-1.24218e-07
2111.21	-7.56299e-08
2119.89	-1.04072e-07
2128.56	-1.6542e-07
2137.24	-3.34709e-07
2145.92	-3.8077e-07
2154.6	-3.05184e-07
2163.28	-3.6167e-07
2171.96	-4.81521e-07
2180.63	-3.81594e-07
2189.31	-3.99525e-07
2197.99	-1.27574e-07
2206.67	5.96963e-08
2215.35	3.65121e-07
2224.02	5.83047e-07
2232.7	5.05762e-07
2241.38	1.10236e-07
2250.06	-8.49645e-08
2258.74	-2.33494e-07
2267.42	-3.19875e-07
2276.09	-3.59611e-07
2284.77	-2.82482e-07
2293.45	-2.67855e-07
2302.13	-2.45582e-07
2310.81	-1.73343e-07
2319.48	-2.27035e-08
2328.16	4.50323e-08
2336.84	2.89041e-07
2345.52	5.97108e-08
2354.2	4.76752e-08
2362.88	-2.66833e-07
2371.55	-1.72837e-07
2380.23	-1.47118e-07
2388.91	-1.59809e-08
2397.59	2.0127e-07
2406.27	4.60647e-07
2414.94	9.78885e-07
2423.62	1.45719e-06
2432.3	1.06413e-06
2440.98	5.13941e-07
2449.66	-1.02537e-07
2458.34	2.35849e-07
2467.01	-9.3988e-08
2475.69	-1.35604e-07
2484.37	-5.13057e-08
2493.05	-9.78077e-08
2501.73	-1.89129e-07
2510.4	-1.33527e-07
2519.08	-4.2093e-08
2527.76	-1.59934e-07
2536.44	3.8859e-08
2545.12	-1.41403e-07
2553.8	-1.45476e-07
2562.47	-7.65721e-08
2571.15	-2.05563e-07
2579.83	-1.96592e-07
2588.51	-1.53864e-07
2597.19	-7.46386e-08
2605.86	6.00837e-08
2614.54	2.13266e-08
2623.22	3.69728e-08
2631.9	5.96945e-08
2640.58	2.37967e-08
2649.26	1.69276e-07
2657.93	9.99031e-08
2666.61	1.51471e-07
2675.29	1.05673e-07
2683.97	5.27918e-08
2692.65	2.8207e-07
2701.32	4.245e-07
2710	5.1226e-07
2718.68	1.22454e-07
2727.36	-4.27623e-09
2736.04	-1.69771e-07
2744.72	7.07134e-08
2753.39	7.19721e-08
2762.07	-9.78514e-08
2770.75	-1.618e-07
2779.43	-1.39639e-07
2788.11	-8.61049e-08
2796.78	-1.98855e-07
2805.46	-1.18942e-07
2814.14	-1.08192e-07
2822.82	-7.16647e-08
2831.5	-4.68712e-08
2840.18	-3.17507e-08
2848.85	5.11875e-08
2857.53	8.64851e-08
2866.21	-9.25456e-09
2874.89	1.50934e-07
2883.57	1.2916e-07
2892.24	-1.73614e-08
2900.92	7.11135e-08
2909.6	2.0559e-08
2918.28	3.03594e-07
2926.96	7.42402e-08
2935.63	4.40157e-07
2944.31	6.28281e-07
2952.99	4.66511e-07
2961.67	3.4227e-07
2970.35	2.8662e-07
2979.03	2.79063e-07
2987.7	5.29747e-07
2996.38	6.14899e-07
3005.06	9.4051e-07
3013.74	4.29517e-07
3022.42	2.49479e-07
3031.09	4.33749e-07
3039.77	9.21102e-07
3048.45	6.65767e-07
3057.13	5.5005e-07
3065.81	1.22574e-07
3074.49	1.48759e-07
3083.16	-1.09098e-08
3091.84	-4.51742e-08
3100.52	-1.5503e-07
3109.2	-1.6066e-07
3117.88	-1.17808e-07
3126.55	-4.05553e-07
3135.23	-3.54185e-07
3143.91	-7.43857e-08
3152.59	-2.86271e-07
3161.27	6.03875e-08
3169.95	9.6559e-07
3178.62	2.20577e-06
3187.3	3.06995e-06
3195.98	2.85167e-06
3204.66	1.85701e-06
3213.34	3.52994e-07
3222.01	-3.3702e-07
3230.69	3.29839e-08
3239.37	5.87679e-07
3248.05	4.61442e-07
3256.73	5.78065e-08
3265.41	-5.07766e-07
3274.08	-5.50457e-07
3282.76	-2.15643e-07
3291.44	-3.67691e-08
3300.12	3.32517e-07
3308.8	1.72057e-07
3317.47	1.36081e-07
3326.15	1.788e-07
3334.83	8.18505e-08
3343.51	4.12632e-07
3352.19	2.06191e-08
3360.87	2.63382e-07
3369.54	-1.64811e-08
3378.22	-1.20553e-07
3386.9	2.5681e-08
3395.58	-6.43636e-08
3404.26	1.49946e-07
3412.93	8.12903e-08
3421.61	1.69678e-07
3430.29	5.86141e-08
3438.97	1.0477e-07
3447.65	3.38843e-08
3456.33	-2.02234e-07
3465	-1.2313e-07
3473.68	-1.11349e-07
3482.36	-7.07443e-08
3491.04	9.91664e-09
3499.72	2.44175e-07
3508.39	1.26253e-07
3517.07	3.42524e-07
3525.75	-1.24886e-08
3534.43	1.88422e-07
3543.11	-5.16568e-09
3551.79	-1.87469e-07
3560.46	-1.11087e-07
3569.14	1.55971e-08
3577.82	4.14709e-10
3586.5	-1.22778e-07
3595.18	-3.97393e-08
3603.85	5.29645e-08
3612.53	6.29212e-08
3621.21	3.17671e-08
3629.89	5.25698e-08
3638.57	1.72695e-07
3647.25	9.74967e-08
3655.92	1.66711e-07
3664.6	1.91103e-07
3673.28	-5.15149e-08
3681.96	7.33017e-09
3690.64	-1.44432e-07
3699.31	8.85441e-08
3707.99	-6.75358e-09
3716.67	-7.46477e-09
3725.35	1.42089e-07
3734.03	4.62828e-07
3742.71	4.27443e-07
3751.38	3.39372e-07
3760.06	-5.63495e-09
3768.74	-1.3247e-08
3777.42	-5.99e-08
3786.1	-6.82524e-08
3794.77	5.23407e-08
3803.45	-1.48661e-07
3812.13	6.41562e-08
3820.81	-5.3312e-08
3829.49	-2.07355e-10
3838.17	-3.1005e-08
3846.84	-6.55331e-08
3855.52	2.99573e-08
3864.2	-1.17246e-07
3872.88	1.23622e-07
3881.56	8.58248e-08
3890.23	9.50375e-08
3898.91	8.82003e-08
3907.59	1.78347e-07
3916.27	2.08188e-07
3924.95	2.48533e-07
3933.63	2.39371e-07
3942.3	2.71187e-07
3950.98	1.1235e-07
3959.66	9.08941e-08
3968.34	1.21812e-08
