Infrared Spectrum: 1,1-Dichloroethene
Formula: C H2 C Cl2
CAS: 75-35-4
State: gas
Melting point: -122.1 C
Boiling point: 37 C
Class: IUPAC A
Instrument: IFS66V (Bruker)
Instrument parameters: KBr Beam Splitter; MCT Detector; Multipass cell
Sampling: 1 L/min Flow
Resolution: 0.9640
Temperature: 23 C
Pressure: 101.3 Pa
Origin: NIST, Analytical Chemistry Division, 301-975-3108
cm-1	(micromol/mol)-1m-1 (base 10)
575.17	6.15749e-06
583.848	2.10494e-05
592.526	6.01265e-05
601.205	5.52953e-05
609.883	8.38476e-05
618.561	3.2053e-05
627.239	8.87075e-06
635.917	1.29498e-06
644.595	-6.14752e-08
653.274	-2.06574e-07
661.952	-1.69014e-07
670.63	3.61652e-08
679.308	9.29374e-07
687.986	3.18253e-08
696.665	-2.66847e-07
705.343	-2.62891e-07
714.021	-7.08862e-08
722.699	-7.0797e-08
731.377	6.56405e-08
740.055	1.87367e-07
748.734	7.70708e-07
757.412	5.05432e-06
766.09	2.87179e-05
774.768	0.000117768
783.446	0.000391092
792.125	0.000426203
800.803	0.000455163
809.481	0.000122439
818.159	8.20635e-06
826.837	6.43563e-06
835.515	1.14815e-05
844.194	3.74389e-05
852.872	9.49826e-05
861.55	0.000221967
870.228	0.000189457
878.906	0.000136546
887.584	0.000102076
896.263	2.69217e-05
904.941	1.03309e-05
913.619	3.98039e-06
922.297	5.74427e-06
930.975	2.72913e-06
939.654	1.60942e-06
948.332	1.00196e-06
957.01	6.17315e-07
965.688	6.18624e-07
974.366	3.2873e-07
983.044	4.20946e-07
991.723	2.32754e-07
1000.4	2.61474e-07
1009.08	9.75058e-07
1017.76	1.52819e-06
1026.44	1.07398e-06
1035.11	2.27717e-07
1043.79	4.09074e-07
1052.47	3.31901e-06
1061.15	1.91244e-05
1069.83	0.000107958
1078.5	0.00028101
1087.18	0.000391369
1095.86	0.000354066
1104.54	0.000291848
1113.22	3.3823e-05
1121.9	1.50742e-05
1130.57	6.21328e-05
1139.25	0.000123714
1147.93	6.38337e-05
1156.61	9.49973e-06
1165.29	9.14226e-07
1173.96	8.62419e-07
1182.64	4.65813e-07
1191.32	9.0945e-08
1200	1.36103e-07
1208.68	5.34138e-08
1217.36	-1.24062e-07
1226.03	-2.95608e-08
1234.71	8.83531e-08
1243.39	3.21196e-07
1252.07	4.67033e-07
1260.75	3.25372e-07
1269.42	-1.16037e-07
1278.1	-7.14082e-08
1286.78	1.20135e-07
1295.46	1.05075e-06
1304.14	3.21523e-06
1312.82	6.04235e-06
1321.49	5.47366e-06
1330.17	3.82071e-06
1338.85	1.78553e-06
1347.53	1.04863e-06
1356.21	1.25392e-06
1364.88	1.34107e-06
1373.56	3.71147e-06
1382.24	8.64968e-06
1390.92	1.21575e-05
1399.6	1.04325e-05
1408.28	6.14423e-06
1416.95	3.25983e-08
1425.63	-3.72693e-09
1434.31	1.58244e-09
1442.99	1.74433e-09
1451.67	-7.47568e-10
1460.34	6.11987e-08
1469.02	8.58139e-08
1477.7	1.06828e-07
1486.38	1.5799e-08
1495.06	6.47656e-08
1503.74	1.53446e-07
1512.41	2.95666e-07
1521.09	8.93922e-07
1529.77	3.79531e-06
1538.45	9.56578e-06
1547.13	2.21788e-05
1555.8	5.03478e-05
1564.48	6.93325e-05
1573.16	6.60113e-05
1581.84	5.37654e-05
1590.52	3.30023e-05
1599.2	6.02733e-05
1607.87	0.000162515
1616.55	0.000266672
1625.23	0.000252106
1633.91	0.000185614
1642.59	5.21595e-05
1651.26	7.97952e-06
1659.94	8.15922e-07
1668.62	2.90149e-07
1677.3	5.11944e-07
1685.98	5.94567e-07
1694.66	1.05361e-06
1703.33	4.86692e-07
1712.01	4.7832e-07
1720.69	1.52595e-06
1729.37	3.85291e-06
1738.05	8.62838e-06
1746.72	8.24029e-06
1755.4	5.84009e-06
1764.08	2.12855e-06
1772.76	8.47873e-07
1781.44	3.15645e-07
1790.12	3.47219e-07
1798.79	8.87641e-08
1807.47	4.26965e-07
1816.15	7.23231e-08
1824.83	-6.42617e-09
1833.51	-8.33602e-09
1842.18	1.35248e-07
1850.86	2.82401e-07
1859.54	4.86483e-07
1868.22	1.00541e-06
1876.9	1.08587e-06
1885.58	8.40326e-07
1894.25	8.13598e-07
1902.93	3.23677e-07
1911.61	3.07809e-07
1920.29	3.86347e-07
1928.97	4.76717e-07
1937.64	3.20687e-07
1946.32	1.43471e-07
1955	-2.71853e-08
1963.68	-7.42366e-08
1972.36	2.26726e-08
1981.04	2.48287e-07
1989.71	2.85294e-07
1998.39	3.02408e-07
2007.07	-2.0941e-08
2015.75	-8.30364e-08
2024.43	-6.88235e-08
2033.1	-6.61607e-08
2041.78	-9.81115e-08
2050.46	-4.12836e-08
2059.14	-5.37994e-08
2067.82	-3.10359e-08
2076.5	4.94923e-09
2085.17	-2.28945e-08
2093.85	-3.10814e-08
2102.53	-5.08619e-08
2111.21	-2.96644e-08
2119.89	-5.64423e-08
2128.56	-1.18832e-07
2137.24	-2.48276e-07
2145.92	-2.93823e-07
2154.6	-2.76749e-07
2163.28	-3.66457e-07
2171.96	-3.77316e-07
2180.63	-2.95491e-07
2189.31	-3.08305e-07
2197.99	-1.01438e-07
2206.67	1.3225e-07
2215.35	4.38e-07
2224.02	6.87866e-07
2232.7	5.78732e-07
2241.38	1.23922e-07
2250.06	-7.92458e-08
2258.74	-2.00159e-07
2267.42	-2.25254e-07
2276.09	-3.24754e-07
2284.77	-2.22841e-07
2293.45	-2.30426e-07
2302.13	-2.10816e-07
2310.81	-9.28967e-08
2319.48	1.50787e-09
2328.16	8.25326e-08
2336.84	2.24607e-07
2345.52	1.62106e-07
2354.2	9.48793e-08
2362.88	-1.3031e-07
2371.55	-8.86568e-08
2380.23	-9.60816e-08
2388.91	1.05714e-08
2397.59	1.61469e-07
2406.27	4.54088e-07
2414.94	1.01302e-06
2423.62	1.47735e-06
2432.3	1.12387e-06
2440.98	5.51109e-07
2449.66	2.99809e-08
2458.34	3.02208e-07
2467.01	-5.29937e-08
2475.69	-6.31158e-08
2484.37	-4.55835e-08
2493.05	-7.9224e-08
2501.73	-9.7584e-08
2510.4	-5.90706e-08
2519.08	-5.31755e-08
2527.76	-9.12342e-08
2536.44	-1.81799e-08
2545.12	-1.38291e-07
2553.8	-1.53175e-07
2562.47	-9.97285e-08
2571.15	-1.17414e-07
2579.83	-1.43757e-07
2588.51	-1.30557e-07
2597.19	-8.00825e-08
2605.86	-1.53115e-08
2614.54	3.60815e-08
2623.22	2.05463e-08
2631.9	1.29749e-07
2640.58	9.14998e-08
2649.26	1.71679e-07
2657.93	1.63317e-07
2666.61	1.22999e-07
2675.29	2.51499e-08
2683.97	5.0489e-08
2692.65	2.83623e-07
2701.32	3.73875e-07
2710	4.84355e-07
2718.68	1.10125e-07
2727.36	-1.04023e-08
2736.04	-1.37853e-07
2744.72	-1.79944e-08
2753.39	1.94568e-08
2762.07	-2.30073e-08
2770.75	-1.37405e-07
2779.43	-1.04054e-07
2788.11	-1.16404e-07
2796.78	-2.06856e-07
2805.46	-1.25575e-07
2814.14	-1.24034e-07
2822.82	-9.24892e-08
2831.5	-4.63638e-09
2840.18	-2.6816e-08
2848.85	6.42654e-08
2857.53	-4.78371e-09
2866.21	-2.46752e-08
2874.89	1.50014e-07
2883.57	6.63098e-08
2892.24	6.13388e-08
2900.92	1.67357e-08
2909.6	4.94832e-08
2918.28	2.54722e-07
2926.96	1.35222e-07
2935.63	3.87184e-07
2944.31	4.6448e-07
2952.99	4.26805e-07
2961.67	3.75425e-07
2970.35	2.87319e-07
2979.03	1.75522e-07
2987.7	4.99203e-07
2996.38	5.81712e-07
3005.06	9.22191e-07
3013.74	4.14862e-07
3022.42	2.30618e-07
3031.09	4.32898e-07
3039.77	9.19374e-07
3048.45	6.94534e-07
3057.13	5.13548e-07
3065.81	1.1709e-07
3074.49	2.59575e-08
3083.16	-7.25414e-08
3091.84	-2.32346e-08
3100.52	-7.24577e-08
3109.2	-1.65693e-07
3117.88	-2.50395e-07
3126.55	-3.74526e-07
3135.23	-3.48157e-07
3143.91	-1.7707e-07
3152.59	-2.9376e-07
3161.27	8.28527e-08
3169.95	9.14241e-07
3178.62	2.12807e-06
3187.3	3.03127e-06
3195.98	2.88851e-06
3204.66	1.77642e-06
3213.34	2.40235e-07
3222.01	-3.50691e-07
3230.69	4.02359e-08
3239.37	5.46987e-07
3248.05	4.88535e-07
3256.73	-3.59269e-08
3265.41	-5.39733e-07
3274.08	-5.79994e-07
3282.76	-3.13027e-07
3291.44	-1.47795e-07
3300.12	1.87998e-07
3308.8	1.54459e-07
3317.47	1.5927e-07
3326.15	1.01693e-07
3334.83	8.48099e-08
3343.51	2.51296e-07
3352.19	8.60158e-08
3360.87	1.96949e-07
3369.54	-7.53025e-09
3378.22	-1.79456e-07
3386.9	-4.91321e-08
3395.58	-6.11605e-08
3404.26	-6.24792e-09
3412.93	6.57532e-09
3421.61	1.31872e-07
3430.29	8.15777e-09
3438.97	6.85725e-09
3447.65	-9.27112e-08
3456.33	-2.39413e-07
3465	-2.08815e-07
3473.68	-2.01923e-07
3482.36	-1.60973e-07
3491.04	-3.37169e-08
3499.72	1.52888e-07
3508.39	7.94532e-08
3517.07	2.62493e-07
3525.75	-5.8414e-08
3534.43	3.61907e-08
3543.11	-3.21909e-08
3551.79	-1.38527e-07
3560.46	-1.12297e-07
3569.14	-4.0014e-08
3577.82	-7.67703e-08
3586.5	-8.70562e-08
3595.18	-6.05166e-08
3603.85	-6.0171e-08
3612.53	-4.9314e-08
3621.21	-3.55977e-08
3629.89	-1.71086e-08
3638.57	1.13974e-07
3647.25	7.46113e-08
3655.92	1.61578e-07
3664.6	4.34644e-08
3673.28	-1.55934e-08
3681.96	-1.20911e-07
3690.64	-2.11489e-07
3699.31	-4.8179e-08
3707.99	-4.54125e-08
3716.67	-1.18683e-07
3725.35	8.52064e-08
3734.03	2.45861e-07
3742.71	3.10808e-07
3751.38	2.32939e-07
3760.06	-5.1273e-08
3768.74	-9.0523e-08
3777.42	-8.27418e-08
3786.1	-7.58554e-08
3794.77	-1.08272e-07
3803.45	-1.52413e-07
3812.13	-6.18608e-08
3820.81	-1.5349e-07
3829.49	-8.31692e-08
3838.17	-1.40636e-07
3846.84	-2.1252e-08
3855.52	-8.78692e-08
3864.2	-1.50498e-07
3872.88	-7.06443e-08
3881.56	-3.40916e-08
3890.23	-5.53164e-08
3898.91	-2.30618e-08
3907.59	7.68594e-08
3916.27	9.33059e-08
3924.95	1.80304e-07
3933.63	1.41598e-07
3942.3	1.47e-07
3950.98	-2.83021e-08
3959.66	-7.27469e-08
3968.34	-1.33076e-07
