Infrared Spectrum: 1,1-Dichloroethene
Formula: C H2 C Cl2
CAS: 75-35-4
State: gas
Melting point: -122.1 C
Boiling point: 37 C
Class: IUPAC A
Instrument: IFS66V (Bruker)
Instrument parameters: KBr Beam Splitter; MCT Detector; Multipass cell
Sampling: 1 L/min Flow
Resolution: 0.2410
Temperature: 23 C
Pressure: 101.3 Pa
Origin: NIST, Analytical Chemistry Division, 301-975-3108
cm-1	(micromol/mol)-1m-1 (base 10)
575.05	4.98832e-06
583.608	2.01624e-05
592.165	5.7998e-05
600.723	5.85795e-05
609.281	8.5745e-05
617.838	3.59891e-05
626.396	1.05233e-05
634.954	1.21257e-06
643.511	4.71421e-07
652.069	-2.97537e-07
660.626	-3.27709e-07
669.184	-2.1695e-07
677.742	5.17437e-07
686.299	3.40766e-07
694.857	-1.48826e-08
703.415	-1.19469e-07
711.972	-5.73333e-08
720.53	-1.05681e-07
729.088	3.54011e-07
737.645	-6.38742e-08
746.203	4.1878e-07
754.761	2.86914e-06
763.318	1.80128e-05
771.876	6.58206e-05
780.434	0.000279567
788.991	0.000390604
797.549	0.000284679
806.106	0.000306512
814.664	1.78097e-05
823.222	6.28634e-06
831.779	6.52771e-06
840.337	2.11061e-05
848.895	6.81666e-05
857.452	0.000114974
866.01	9.73868e-05
874.568	0.00016557
883.125	0.000127036
891.683	5.56856e-05
900.241	1.40627e-05
908.798	7.97389e-06
917.356	7.19461e-06
925.914	4.1235e-06
934.471	2.5193e-06
943.029	1.288e-06
951.586	9.90076e-07
960.144	5.86229e-07
968.702	6.93416e-07
977.259	1.03918e-06
985.817	2.98712e-07
994.375	1.42056e-07
1002.93	4.40069e-07
1011.49	1.15539e-06
1020.05	7.73734e-07
1028.61	8.46838e-07
1037.16	2.672e-07
1045.72	8.23762e-07
1054.28	4.18047e-06
1062.84	2.78554e-05
1071.39	0.000134852
1079.95	0.000249129
1088.51	0.000410876
1097.07	0.000656385
1105.62	0.000271621
1114.18	2.31392e-05
1122.74	1.60398e-05
1131.3	6.36139e-05
1139.85	2.94408e-05
1148.41	6.25321e-05
1156.97	8.35836e-06
1165.53	9.41019e-07
1174.09	9.27814e-07
1182.64	5.75647e-07
1191.2	1.2924e-07
1199.76	1.55447e-07
1208.32	1.69381e-07
1216.87	-5.68677e-08
1225.43	7.27143e-08
1233.99	6.94148e-08
1242.55	3.13598e-07
1251.1	5.45041e-07
1259.66	3.53742e-07
1268.22	-3.88673e-08
1276.78	9.64407e-09
1285.33	1.10086e-07
1293.89	8.33523e-07
1302.45	2.44095e-06
1311.01	5.97232e-06
1319.57	3.45767e-06
1328.12	4.65444e-06
1336.68	1.96147e-06
1345.24	5.96357e-07
1353.8	1.10988e-06
1362.35	9.78897e-07
1370.91	2.64742e-06
1379.47	6.42451e-06
1388.03	9.55448e-06
1396.58	1.01662e-05
1405.14	9.13815e-06
1413.7	6.64226e-07
1422.26	-1.429e-07
1430.81	-3.52549e-08
1439.37	-7.5581e-08
1447.93	-6.03127e-08
1456.49	-1.71734e-07
1465.05	1.39179e-07
1473.6	8.54761e-08
1482.16	7.36929e-08
1490.72	1.61195e-08
1499.28	4.47971e-08
1507.83	2.20151e-07
1516.39	5.57119e-07
1524.95	1.71373e-06
1533.51	6.65203e-06
1542.06	1.6406e-05
1550.62	3.33731e-05
1559.18	6.18652e-05
1567.74	6.14601e-05
1576.29	8.6914e-05
1584.85	3.84708e-05
1593.41	3.57305e-05
1601.97	8.10929e-05
1610.53	0.000211954
1619.08	0.000226121
1627.64	0.000339209
1636.2	0.000130835
1644.76	3.64692e-05
1653.31	4.07189e-06
1661.87	4.77332e-07
1670.43	2.54806e-07
1678.99	5.82824e-07
1687.54	6.43901e-07
1696.1	6.19029e-07
1704.66	4.12127e-07
1713.22	6.31048e-07
1721.77	1.70009e-06
1730.33	4.43948e-06
1738.89	8.50466e-06
1747.45	9.15321e-06
1756.01	5.61303e-06
1764.56	2.09444e-06
1773.12	8.54157e-07
1781.68	3.51778e-07
1790.24	3.98692e-07
1798.79	1.35326e-07
1807.35	1.99422e-07
1815.91	3.13696e-08
1824.47	-4.13702e-08
1833.02	-5.05268e-08
1841.58	6.26119e-08
1850.14	2.805e-07
1858.7	4.51256e-07
1867.25	9.23688e-07
1875.81	1.0538e-06
1884.37	7.90447e-07
1892.93	9.05084e-07
1901.49	3.735e-07
1910.04	2.9957e-07
1918.6	4.15463e-07
1927.16	4.37203e-07
1935.72	4.58106e-07
1944.27	1.59002e-07
1952.83	7.38385e-08
1961.39	-1.64178e-08
1969.95	-5.93742e-08
1978.5	1.58056e-07
1987.06	2.97027e-07
1995.62	2.65425e-07
2004.18	9.50765e-08
2012.73	7.76692e-09
2021.29	-9.85543e-08
2029.85	-7.60649e-08
2038.41	-1.10599e-07
2046.97	-6.32485e-08
2055.52	5.53943e-08
2064.08	-4.27926e-08
2072.64	1.39841e-07
2081.2	-1.36712e-08
2089.75	-8.22529e-09
2098.31	-2.00245e-07
2106.87	-1.31215e-07
2115.43	-2.27296e-08
2123.98	-1.88429e-07
2132.54	-2.04344e-07
2141.1	-1.76827e-07
2149.66	-2.06116e-07
2158.21	-2.0198e-07
2166.77	-2.90927e-07
2175.33	-3.16454e-07
2183.89	-3.8139e-07
2192.45	-1.65965e-07
2201	-6.68573e-08
2209.56	5.53132e-07
2218.12	5.3241e-07
2226.68	5.45972e-07
2235.23	3.87658e-07
2243.79	-2.20784e-08
2252.35	-1.03014e-07
2260.91	-2.00219e-07
2269.46	-2.05068e-07
2278.02	-3.59112e-07
2286.58	-1.67354e-07
2295.14	-2.08906e-07
2303.69	-1.52366e-07
2312.25	-3.37051e-08
2320.81	-4.94936e-08
2329.37	1.21684e-07
2337.93	1.78261e-07
2346.48	1.73895e-07
2355.04	-4.14684e-08
2363.6	-8.20929e-08
2372.16	-7.40349e-08
2380.71	-1.16238e-07
2389.27	5.96616e-09
2397.83	2.76604e-07
2406.39	5.07851e-07
2414.94	1.05455e-06
2423.5	1.5171e-06
2432.06	1.12366e-06
2440.62	6.47735e-07
2449.17	5.11998e-08
2457.73	4.02032e-07
2466.29	-1.0587e-07
2474.85	-6.00981e-09
2483.41	1.54323e-07
2491.96	-4.4939e-08
2500.52	-4.16394e-08
2509.08	-3.4942e-08
2517.64	-9.13586e-08
2526.19	1.54829e-08
2534.75	-8.04485e-08
2543.31	-1.25871e-08
2551.87	-1.65954e-07
2560.42	-2.24549e-07
2568.98	-1.39775e-07
2577.54	-1.24278e-07
2586.1	-2.77394e-07
2594.65	-7.23578e-08
2603.21	-2.17226e-07
2611.77	7.68397e-08
2620.33	4.08172e-09
2628.89	1.33034e-07
2637.44	2.13032e-07
2646	1.32681e-07
2654.56	8.64911e-08
2663.12	1.88971e-07
2671.67	-2.55926e-08
2680.23	3.66082e-08
2688.79	8.81827e-08
2697.35	3.66708e-07
2705.9	2.19278e-07
2714.46	2.27427e-07
2723.02	1.53621e-07
2731.58	2.67058e-08
2740.13	2.34499e-08
2748.69	1.0511e-07
2757.25	-1.76667e-07
2765.81	-7.86005e-08
2774.37	-1.82965e-07
2782.92	-7.36275e-08
2791.48	-1.38677e-08
2800.04	-1.15783e-07
2808.6	-1.21801e-07
2817.15	4.96028e-08
2825.71	2.82119e-08
2834.27	-2.44358e-08
2842.83	-1.0077e-07
2851.38	-4.80712e-08
2859.94	-1.23758e-07
2868.5	2.36111e-07
2877.06	1.42686e-07
2885.61	2.64755e-07
2894.17	-5.49978e-08
2902.73	1.78439e-08
2911.29	3.58148e-07
2919.85	2.25906e-07
2928.4	1.4234e-07
2936.96	2.55355e-07
2945.52	4.6046e-07
2954.08	3.54219e-07
2962.63	5.07258e-07
2971.19	2.91792e-07
2979.75	8.51159e-08
2988.31	4.97003e-07
2996.86	5.63893e-07
3005.42	1.05635e-06
3013.98	4.46047e-07
3022.54	1.50056e-07
3031.09	3.44062e-07
3039.65	9.2813e-07
3048.21	7.07724e-07
3056.77	5.66461e-07
3065.33	-2.84848e-09
3073.88	-1.12757e-07
3082.44	-5.2946e-08
3091	1.26406e-07
3099.56	-6.39907e-08
3108.11	-1.31707e-07
3116.67	-2.42302e-07
3125.23	-3.38405e-07
3133.79	-5.22828e-07
3142.34	-3.88018e-07
3150.9	-4.83535e-07
3159.46	9.45927e-08
3168.02	5.67043e-07
3176.57	1.98953e-06
3185.13	2.80701e-06
3193.69	2.43472e-06
3202.25	2.89588e-06
3210.81	2.12995e-07
3219.36	-2.4873e-07
3227.92	-5.74643e-08
3236.48	3.532e-07
3245.04	6.77661e-07
3253.59	4.25009e-07
3262.15	-5.63936e-07
3270.71	-4.41557e-07
3279.27	-4.74793e-07
3287.82	-2.08524e-07
3296.38	2.19773e-07
3304.94	-1.75856e-08
3313.5	2.97762e-07
3322.05	-1.63022e-07
3330.61	-6.60679e-08
3339.17	7.99792e-08
3347.73	1.64939e-07
3356.29	1.63582e-07
3364.84	-5.43757e-08
3373.4	-1.75576e-07
3381.96	9.94238e-09
3390.52	-5.82537e-08
3399.07	9.60187e-08
3407.63	3.7605e-08
3416.19	6.60061e-08
3424.75	9.21371e-08
3433.3	1.61959e-07
3441.86	4.66488e-08
3450.42	1.30783e-08
3458.98	1.25744e-07
3467.53	-3.33232e-08
3476.09	-9.17769e-08
3484.65	-1.40783e-07
3493.21	-6.38051e-08
3501.77	3.43272e-07
3510.32	-9.79323e-09
3518.88	1.90208e-07
3527.44	-9.74084e-08
3536	1.83059e-08
3544.55	-3.35487e-08
3553.11	-4.08754e-08
3561.67	-5.61655e-08
3570.23	-3.20012e-07
3578.78	-1.4943e-07
3587.34	-1.6249e-07
3595.9	-8.68476e-08
3604.46	-8.67712e-08
3613.01	-1.15602e-07
3621.57	6.18552e-08
3630.13	5.28587e-08
3638.69	1.01486e-07
3647.25	7.0819e-08
3655.8	9.7714e-08
3664.36	9.58878e-08
3672.92	5.20402e-08
3681.48	-2.57196e-07
3690.03	-1.30448e-07
3698.59	-7.82549e-08
3707.15	8.58544e-09
3715.71	-1.77853e-07
3724.26	1.21608e-07
3732.82	3.21085e-07
3741.38	1.67525e-07
3749.94	3.91507e-07
3758.49	-9.80159e-08
3767.05	-3.10495e-08
3775.61	-8.14417e-08
3784.17	8.70477e-08
3792.73	1.18865e-07
3801.28	3.51858e-08
3809.84	-7.13028e-08
3818.4	1.16413e-07
3826.96	-2.61074e-07
3835.51	-2.9969e-08
3844.07	-2.80628e-08
3852.63	-1.82335e-07
3861.19	-7.16412e-08
3869.74	-2.63748e-09
3878.3	-1.30939e-07
3886.86	-1.09817e-07
3895.42	1.42809e-07
3903.97	4.52045e-07
3912.53	-2.45667e-08
3921.09	2.32971e-07
3929.65	1.27316e-07
3938.21	3.67854e-07
3946.76	7.3391e-08
3955.32	-1.6985e-07
3963.88	1.01425e-08
3972.44	-1.48401e-07
