Infrared Spectrum: 1,1-Dichloroethene
Formula: C H2 C Cl2
CAS: 75-35-4
State: gas
Melting point: -122.1 C
Boiling point: 37 C
Class: IUPAC A
Instrument: IFS66V (Bruker)
Instrument parameters: KBr Beam Splitter; MCT Detector; Multipass cell
Sampling: 1 L/min Flow
Resolution: 0.1250
Temperature: 23 C
Pressure: 101.3 Pa
Origin: NIST, Analytical Chemistry Division, 301-975-3108
cm-1	(micromol/mol)-1m-1 (base 10)
575.05	2.00204e-06
583.608	2.00339e-05
592.165	5.91375e-05
600.723	5.96255e-05
609.281	8.61421e-05
617.838	3.62232e-05
626.396	1.05854e-05
634.954	2.5502e-07
643.511	6.46798e-07
652.069	-7.35841e-07
660.626	-3.14857e-07
669.184	-7.01775e-07
677.742	5.71835e-07
686.299	3.65985e-07
694.857	2.80275e-07
703.415	5.61387e-07
711.972	3.23996e-08
720.53	4.29133e-08
729.088	3.34924e-07
737.645	-3.37529e-08
746.203	3.00313e-07
754.761	3.21612e-06
763.318	1.83415e-05
771.876	6.63459e-05
780.434	0.000279401
788.991	0.000390663
797.549	0.000284166
806.106	0.000306684
814.664	1.75492e-05
823.222	6.37619e-06
831.779	6.27692e-06
840.337	2.11173e-05
848.895	6.90384e-05
857.452	0.000113906
866.01	0.000100807
874.568	0.000156994
883.125	0.00012601
891.683	5.61723e-05
900.241	1.39966e-05
908.798	8.15569e-06
917.356	7.30092e-06
925.914	4.16964e-06
934.471	2.3957e-06
943.029	1.07742e-06
951.586	9.92709e-07
960.144	6.55311e-07
968.702	9.89079e-07
977.259	6.91858e-07
985.817	5.67353e-07
994.375	-1.99694e-07
1002.93	5.06672e-07
1011.49	9.25975e-07
1020.05	1.02296e-06
1028.61	6.02328e-07
1037.16	2.57276e-07
1045.72	6.50909e-07
1054.28	3.65252e-06
1062.84	2.75918e-05
1071.39	0.000134454
1079.95	0.000249988
1088.51	0.00040935
1097.07	0.000659611
1105.62	0.000271065
1114.18	2.30076e-05
1122.74	1.59484e-05
1131.3	6.41741e-05
1139.85	2.77167e-05
1148.41	6.26343e-05
1156.97	8.29948e-06
1165.53	7.11685e-07
1174.09	1.10046e-06
1182.64	7.65032e-07
1191.2	2.51448e-07
1199.76	2.24571e-07
1208.32	1.91058e-07
1216.87	1.7468e-07
1225.43	1.87529e-07
1233.99	-1.50109e-07
1242.55	8.25087e-09
1251.1	3.85208e-07
1259.66	3.44434e-07
1268.22	-3.08062e-07
1276.78	2.05675e-07
1285.33	1.2209e-07
1293.89	9.52794e-07
1302.45	2.62048e-06
1311.01	6.11536e-06
1319.57	3.62313e-06
1328.12	4.6714e-06
1336.68	1.82795e-06
1345.24	8.85317e-07
1353.8	2.17654e-06
1362.35	7.12165e-07
1370.91	2.40599e-06
1379.47	6.55369e-06
1388.03	9.57935e-06
1396.58	9.83414e-06
1405.14	9.26987e-06
1413.7	7.93277e-07
1422.26	-5.58425e-08
1430.81	2.89508e-08
1439.37	4.05995e-08
1447.93	1.1079e-07
1456.49	-1.99236e-07
1465.05	2.81083e-07
1473.6	6.13722e-08
1482.16	-1.15469e-07
1490.72	1.93968e-07
1499.28	-9.85157e-08
1507.83	2.70583e-07
1516.39	7.03951e-07
1524.95	1.7821e-06
1533.51	6.62677e-06
1542.06	1.64213e-05
1550.62	3.33771e-05
1559.18	6.17325e-05
1567.74	6.21081e-05
1576.29	8.69584e-05
1584.85	3.85999e-05
1593.41	3.56591e-05
1601.97	8.10566e-05
1610.53	0.00021229
1619.08	0.000227016
1627.64	0.000339281
1636.2	0.00013122
1644.76	3.65153e-05
1653.31	4.1491e-06
1661.87	3.41567e-07
1670.43	2.88475e-07
1678.99	4.82669e-07
1687.54	7.77619e-07
1696.1	9.22126e-07
1704.66	5.67076e-07
1713.22	6.57669e-07
1721.77	1.60518e-06
1730.33	4.44937e-06
1738.89	8.51459e-06
1747.45	9.19761e-06
1756.01	5.76064e-06
1764.56	2.20438e-06
1773.12	8.64355e-07
1781.68	3.95583e-07
1790.24	4.65963e-07
1798.79	1.21398e-07
1807.35	1.36983e-07
1815.91	-8.59066e-08
1824.47	-3.30821e-07
1833.02	-1.01353e-07
1841.58	-1.49884e-09
1850.14	2.61845e-07
1858.7	4.85484e-07
1867.25	8.87427e-07
1875.81	1.03593e-06
1884.37	8.45416e-07
1892.93	8.97781e-07
1901.49	5.29489e-07
1910.04	4.27532e-07
1918.6	3.06279e-07
1927.16	5.23967e-07
1935.72	3.89326e-07
1944.27	2.73698e-07
1952.83	2.16851e-07
1961.39	3.80166e-08
1969.95	6.80515e-08
1978.5	2.34211e-08
1987.06	2.09786e-07
1995.62	5.71747e-07
2004.18	1.94012e-07
2012.73	1.88373e-08
2021.29	-1.84808e-08
2029.85	-1.56679e-07
2038.41	-3.03791e-07
2046.97	-1.72708e-07
2055.52	4.26586e-08
2064.08	9.383e-08
2072.64	2.22708e-07
2081.2	-5.15861e-08
2089.75	-1.64799e-08
2098.31	-2.60717e-07
2106.87	-3.13046e-07
2115.43	-1.57887e-08
2123.98	-2.60477e-07
2132.54	-4.14675e-07
2141.1	-2.10026e-07
2149.66	-1.06345e-07
2158.21	-1.52925e-07
2166.77	-2.47693e-07
2175.33	-2.89115e-07
2183.89	-2.76812e-07
2192.45	-1.78652e-07
2201	-1.85026e-07
2209.56	4.27292e-07
2218.12	4.27263e-07
2226.68	5.9984e-07
2235.23	4.14886e-07
2243.79	1.23479e-07
2252.35	-3.64523e-08
2260.91	-2.19681e-07
2269.46	-1.72512e-07
2278.02	-2.62049e-07
2286.58	-3.98064e-08
2295.14	-1.73472e-07
2303.69	1.81606e-07
2312.25	-2.86743e-08
2320.81	-2.73501e-08
2329.37	1.68786e-07
2337.93	1.68357e-07
2346.48	1.87951e-07
2355.04	1.15541e-08
2363.6	-1.33273e-07
2372.16	-9.51251e-08
2380.71	-1.65709e-07
2389.27	-9.2986e-08
2397.83	2.87413e-07
2406.39	6.21486e-07
2414.94	1.01387e-06
2423.5	1.36422e-06
2432.06	1.09878e-06
2440.62	7.12958e-07
2449.17	8.50116e-08
2457.73	2.99854e-07
2466.29	-1.46144e-07
2474.85	-9.21565e-08
2483.41	1.47293e-07
2491.96	-2.35521e-08
2500.52	-3.7842e-08
2509.08	-2.10041e-07
2517.64	-1.86554e-07
2526.19	-1.29518e-07
2534.75	-6.1394e-08
2543.31	2.41633e-08
2551.87	-2.44667e-07
2560.42	-2.05755e-07
2568.98	-2.28587e-07
2577.54	1.98996e-08
2586.1	-4.43954e-07
2594.65	6.61525e-08
2603.21	-3.40709e-07
2611.77	-1.71129e-08
2620.33	-3.09844e-07
2628.89	2.01877e-07
2637.44	6.54685e-08
2646	1.55886e-07
2654.56	1.73341e-07
2663.12	-1.36038e-07
2671.67	-1.52459e-07
2680.23	1.66014e-07
2688.79	1.34604e-09
2697.35	3.71267e-07
2705.9	3.95336e-07
2714.46	2.65614e-07
2723.02	7.84779e-08
2731.58	-5.203e-08
2740.13	-1.98196e-08
2748.69	1.57858e-07
2757.25	-2.6453e-07
2765.81	-1.34349e-07
2774.37	-2.05842e-07
2782.92	-2.85426e-07
2791.48	9.73734e-08
2800.04	-1.58884e-07
2808.6	-3.69849e-07
2817.15	1.41356e-07
2825.71	2.51019e-08
2834.27	-3.4164e-07
2842.83	2.50436e-08
2851.38	-9.70678e-08
2859.94	-5.17411e-07
2868.5	1.31606e-07
2877.06	4.04242e-07
2885.61	5.70067e-07
2894.17	-1.86649e-07
2902.73	-4.18692e-07
2911.29	2.63446e-07
2919.85	2.96333e-07
2928.4	4.17142e-07
2936.96	2.92993e-07
2945.52	6.29016e-07
2954.08	2.53369e-07
2962.63	3.52204e-07
2971.19	5.68546e-07
2979.75	4.16996e-07
2988.31	5.52263e-07
2996.86	7.21304e-07
3005.42	1.04681e-06
3013.98	4.0334e-07
3022.54	2.33869e-07
3031.09	5.633e-08
3039.65	1.07864e-06
3048.21	6.42484e-07
3056.77	5.07574e-07
3065.33	-7.94674e-08
3073.88	-7.26353e-08
3082.44	8.33818e-08
3091	7.90163e-08
3099.56	-3.07727e-07
3108.11	1.91909e-07
3116.67	-7.70445e-08
3125.23	-2.07407e-07
3133.79	-6.56999e-07
3142.34	-5.06112e-07
3150.9	-5.90614e-07
3159.46	2.80442e-07
3168.02	6.42731e-07
3176.57	2.24052e-06
3185.13	2.56646e-06
3193.69	2.49801e-06
3202.25	2.89544e-06
3210.81	-1.14777e-07
3219.36	-2.66815e-07
3227.92	-1.13359e-08
3236.48	4.56235e-07
3245.04	7.91407e-07
3253.59	5.00662e-07
3262.15	-2.52401e-07
3270.71	-1.8264e-07
3279.27	-8.39755e-07
3287.82	1.83054e-07
3296.38	3.55515e-07
3304.94	-4.02474e-07
3313.5	4.36023e-07
3322.05	2.20292e-07
3330.61	-4.06432e-08
3339.17	1.40607e-07
3347.73	2.30166e-07
3356.29	-2.22643e-09
3364.84	7.37267e-08
3373.4	-1.56461e-07
3381.96	2.90825e-07
3390.52	-1.90767e-07
3399.07	2.81985e-07
3407.63	3.36292e-08
3416.19	-1.38722e-07
3424.75	3.22322e-09
3433.3	-1.72075e-07
3441.86	-3.08789e-08
3450.42	2.28056e-07
3458.98	1.13402e-07
3467.53	2.9188e-07
3476.09	4.28332e-08
3484.65	-1.3328e-07
3493.21	-7.16385e-08
3501.77	5.70794e-07
3510.32	4.12616e-08
3518.88	-2.6987e-07
3527.44	9.52415e-08
3536	1.23588e-07
3544.55	1.32283e-07
3553.11	4.20547e-09
3561.67	-9.68422e-09
3570.23	-6.7118e-07
3578.78	-2.40017e-07
3587.34	-2.18408e-07
3595.9	3.30326e-08
3604.46	-1.2823e-07
3613.01	-2.06468e-07
3621.57	7.92928e-08
3630.13	-1.68692e-07
3638.69	-1.05035e-07
3647.25	-2.43226e-07
3655.8	-1.61248e-07
3664.36	1.72133e-07
3672.92	1.33877e-09
3681.48	-3.92542e-07
3690.03	2.21551e-08
3698.59	-2.50655e-07
3707.15	2.6154e-07
3715.71	-2.43473e-07
3724.26	-6.53085e-08
3732.82	2.16902e-07
3741.38	2.26688e-07
3749.94	2.6592e-07
3758.49	-2.01615e-07
3767.05	-6.35914e-08
3775.61	-5.76026e-07
3784.17	-3.62413e-08
3792.73	2.14916e-07
3801.28	2.26244e-07
3809.84	-3.03019e-07
3818.4	5.4634e-07
3826.96	-1.4303e-07
3835.51	-1.20656e-07
3844.07	-3.08025e-07
3852.63	-5.25931e-07
3861.19	-5.99898e-08
3869.74	-9.27532e-08
3878.3	-1.94994e-07
3886.86	-1.61256e-07
3895.42	3.63489e-07
3903.97	8.42811e-07
3912.53	-7.70591e-08
3921.09	3.96537e-09
3929.65	-1.96136e-07
3938.21	3.82429e-07
3946.76	-7.81213e-08
3955.32	-4.24411e-07
3963.88	4.36554e-09
3972.44	-6.15105e-08
