Infrared Spectrum: 1,1-Dichloroethene
Formula: C H2 C Cl2
CAS: 75-35-4
State: gas
Melting point: -122.1 C
Boiling point: 37 C
Class: IUPAC A
Instrument: IFS66V (Bruker)
Instrument parameters: KBr Beam Splitter; MCT Detector; Multipass cell
Sampling: 1 L/min Flow
Resolution: 0.9640
Temperature: 23 C
Pressure: 101.3 Pa
Origin: NIST, Analytical Chemistry Division, 301-975-3108
cm-1	(micromol/mol)-1m-1 (base 10)
575.17	6.37353e-06
583.848	2.13512e-05
592.526	5.95914e-05
601.205	5.54123e-05
609.883	8.23558e-05
618.561	3.21411e-05
627.239	9.04329e-06
635.917	1.51426e-06
644.595	6.45146e-08
653.274	-1.34551e-07
661.952	-1.10522e-07
670.63	9.14197e-08
679.308	9.82997e-07
687.986	1.30559e-07
696.665	-1.41028e-07
705.343	-1.25868e-07
714.021	7.72905e-08
722.699	9.74585e-08
731.377	3.10206e-07
740.055	4.97395e-07
748.734	1.28794e-06
757.412	5.89243e-06
766.09	2.99102e-05
774.768	0.000118526
783.446	0.000386258
792.125	0.000422104
800.803	0.000447884
809.481	0.000125123
818.159	1.01267e-05
826.837	7.03377e-06
835.515	1.23135e-05
844.194	3.8188e-05
852.872	9.49463e-05
861.55	0.000227877
870.228	0.000193074
878.906	0.000136516
887.584	9.9284e-05
896.263	2.75628e-05
904.941	1.07769e-05
913.619	4.39812e-06
922.297	5.91949e-06
930.975	2.91367e-06
939.654	1.80661e-06
948.332	1.16311e-06
957.01	7.52102e-07
965.688	7.31614e-07
974.366	4.55793e-07
983.044	5.39253e-07
991.723	3.67965e-07
1000.4	4.02837e-07
1009.08	1.09715e-06
1017.76	1.70314e-06
1026.44	1.26275e-06
1035.11	5.17955e-07
1043.79	8.37522e-07
1052.47	4.04154e-06
1061.15	2.03724e-05
1069.83	0.000108381
1078.5	0.000282457
1087.18	0.000383581
1095.86	0.000339504
1104.54	0.000287659
1113.22	3.65549e-05
1121.9	1.64557e-05
1130.57	6.17388e-05
1139.25	0.00012638
1147.93	6.28532e-05
1156.61	1.00739e-05
1165.29	1.24348e-06
1173.96	1.03785e-06
1182.64	6.10723e-07
1191.32	2.01827e-07
1200	2.25447e-07
1208.68	1.39168e-07
1217.36	-5.04163e-08
1226.03	4.42138e-08
1234.71	1.32518e-07
1243.39	3.5988e-07
1252.07	5.03115e-07
1260.75	3.65921e-07
1269.42	-7.03514e-08
1278.1	-1.88311e-08
1286.78	1.65544e-07
1295.46	1.09262e-06
1304.14	3.24554e-06
1312.82	5.95965e-06
1321.49	5.44342e-06
1330.17	3.84861e-06
1338.85	1.82297e-06
1347.53	1.04879e-06
1356.21	1.2793e-06
1364.88	1.39346e-06
1373.56	3.7686e-06
1382.24	8.61302e-06
1390.92	1.23216e-05
1399.6	9.94353e-06
1408.28	6.13165e-06
1416.95	1.14845e-07
1425.63	4.45085e-08
1434.31	5.36685e-08
1442.99	3.88208e-08
1451.67	4.03068e-08
1460.34	9.45028e-08
1469.02	1.42525e-07
1477.7	1.56689e-07
1486.38	7.33144e-08
1495.06	1.30877e-07
1503.74	2.34565e-07
1512.41	3.96855e-07
1521.09	1.01908e-06
1529.77	3.97311e-06
1538.45	9.83776e-06
1547.13	2.24015e-05
1555.8	5.02217e-05
1564.48	6.88646e-05
1573.16	6.6116e-05
1581.84	5.39494e-05
1590.52	3.3741e-05
1599.2	6.11152e-05
1607.87	0.000162021
1616.55	0.000263247
1625.23	0.000250058
1633.91	0.000184901
1642.59	5.30038e-05
1651.26	8.78989e-06
1659.94	1.24474e-06
1668.62	5.61531e-07
1677.3	6.69573e-07
1685.98	7.29093e-07
1694.66	1.1625e-06
1703.33	5.62282e-07
1712.01	5.60092e-07
1720.69	1.58522e-06
1729.37	3.92084e-06
1738.05	8.50105e-06
1746.72	8.14512e-06
1755.4	5.84053e-06
1764.08	2.18419e-06
1772.76	8.44692e-07
1781.44	3.58847e-07
1790.12	3.77822e-07
1798.79	1.25577e-07
1807.47	4.0424e-07
1816.15	1.00938e-07
1824.83	1.11426e-08
1833.51	1.14245e-08
1842.18	1.56442e-07
1850.86	3.00495e-07
1859.54	5.04979e-07
1868.22	9.97623e-07
1876.9	1.07923e-06
1885.58	8.51573e-07
1894.25	8.27941e-07
1902.93	3.35787e-07
1911.61	3.13933e-07
1920.29	3.95449e-07
1928.97	4.81214e-07
1937.64	3.26456e-07
1946.32	1.47953e-07
1955	-1.52078e-08
1963.68	-6.23137e-08
1972.36	4.42629e-08
1981.04	2.48753e-07
1989.71	3.05986e-07
1998.39	2.9327e-07
2007.07	-2.04262e-08
2015.75	-7.36436e-08
2024.43	-5.84867e-08
2033.1	-6.33632e-08
2041.78	-8.44242e-08
2050.46	-2.88532e-08
2059.14	-5.00852e-08
2067.82	-2.5581e-08
2076.5	3.7433e-09
2085.17	-5.2639e-09
2093.85	-2.99791e-08
2102.53	-4.66839e-08
2111.21	-2.06281e-08
2119.89	-5.07218e-08
2128.56	-1.17121e-07
2137.24	-2.4701e-07
2145.92	-2.96466e-07
2154.6	-2.6819e-07
2163.28	-3.43417e-07
2171.96	-3.72545e-07
2180.63	-2.94245e-07
2189.31	-3.03982e-07
2197.99	-8.76564e-08
2206.67	1.42476e-07
2215.35	4.37887e-07
2224.02	6.75405e-07
2232.7	5.69563e-07
2241.38	1.39082e-07
2250.06	-6.19863e-08
2258.74	-1.92602e-07
2267.42	-2.30555e-07
2276.09	-3.10495e-07
2284.77	-2.20194e-07
2293.45	-2.21922e-07
2302.13	-2.02727e-07
2310.81	-9.38643e-08
2319.48	7.33017e-10
2328.16	9.11651e-08
2336.84	2.47789e-07
2345.52	1.54761e-07
2354.2	9.59615e-08
2362.88	-1.45055e-07
2371.55	-8.96809e-08
2380.23	-8.42605e-08
2388.91	1.71104e-08
2397.59	1.77788e-07
2406.27	4.65658e-07
2414.94	1.01166e-06
2423.62	1.47555e-06
2432.3	1.1359e-06
2440.98	5.6192e-07
2449.66	2.58884e-08
2458.34	2.9115e-07
2467.01	-5.04163e-08
2475.69	-6.63189e-08
2484.37	-4.28005e-08
2493.05	-7.54734e-08
2501.73	-1.06877e-07
2510.4	-6.73684e-08
2519.08	-4.51342e-08
2527.76	-9.08359e-08
2536.44	3.06303e-09
2545.12	-1.27316e-07
2553.8	-1.44826e-07
2562.47	-8.989e-08
2571.15	-1.31441e-07
2579.83	-1.47042e-07
2588.51	-1.24498e-07
2597.19	-7.03096e-08
2605.86	1.3278e-09
2614.54	3.3395e-08
2623.22	3.01137e-08
2631.9	1.25229e-07
2640.58	8.61686e-08
2649.26	1.7382e-07
2657.93	1.53231e-07
2666.61	1.32614e-07
2675.29	3.96447e-08
2683.97	5.87705e-08
2692.65	2.81553e-07
2701.32	3.88975e-07
2710	4.77212e-07
2718.68	1.18654e-07
2727.36	-1.04587e-08
2736.04	-1.35328e-07
2744.72	2.39367e-09
2753.39	2.6385e-08
2762.07	-3.86825e-08
2770.75	-1.37267e-07
2779.43	-1.06433e-07
2788.11	-1.09169e-07
2796.78	-2.05236e-07
2805.46	-1.1855e-07
2814.14	-1.18449e-07
2822.82	-8.21015e-08
2831.5	-1.38291e-08
2840.18	-2.81693e-08
2848.85	6.38379e-08
2857.53	1.62973e-08
2866.21	-1.09007e-08
2874.89	1.55407e-07
2883.57	7.52206e-08
2892.24	4.93668e-08
2900.92	2.83948e-08
2909.6	5.58166e-08
2918.28	2.60034e-07
2926.96	1.27645e-07
2935.63	4.00371e-07
2944.31	4.88586e-07
2952.99	4.29864e-07
2961.67	3.5978e-07
2970.35	2.88287e-07
2979.03	1.95537e-07
2987.7	4.96851e-07
2996.38	5.88059e-07
3005.06	9.00559e-07
3013.74	4.21546e-07
3022.42	2.36884e-07
3031.09	4.4457e-07
3039.77	9.03931e-07
3048.45	6.89392e-07
3057.13	5.23598e-07
3065.81	1.16928e-07
3074.49	4.8681e-08
3083.16	-6.2401e-08
3091.84	-3.1798e-08
3100.52	-9.00392e-08
3109.2	-1.70076e-07
3117.88	-2.27153e-07
3126.55	-3.6876e-07
3135.23	-3.53694e-07
3143.91	-1.57753e-07
3152.59	-2.89343e-07
3161.27	9.18381e-08
3169.95	9.18061e-07
3178.62	2.121e-06
3187.3	3.00128e-06
3195.98	2.87861e-06
3204.66	1.78645e-06
3213.34	2.58224e-07
3222.01	-3.39871e-07
3230.69	4.13891e-08
3239.37	5.40332e-07
3248.05	4.74738e-07
3256.73	-2.25453e-08
3265.41	-5.33398e-07
3274.08	-5.73183e-07
3282.76	-2.98669e-07
3291.44	-1.3671e-07
3300.12	2.07187e-07
3308.8	1.62148e-07
3317.47	1.51056e-07
3326.15	1.11258e-07
3334.83	8.84622e-08
3343.51	2.66371e-07
3352.19	7.51006e-08
3360.87	2.05368e-07
3369.54	-1.72504e-08
3378.22	-1.69049e-07
3386.9	-4.13854e-08
3395.58	-6.36324e-08
3404.26	1.04696e-08
3412.93	6.28248e-09
3421.61	1.22823e-07
3430.29	1.51151e-08
3438.97	1.56553e-08
3447.65	-7.18065e-08
3456.33	-2.49006e-07
3465	-1.87669e-07
3473.68	-1.98746e-07
3482.36	-1.42231e-07
3491.04	-2.30782e-08
3499.72	1.51383e-07
3508.39	9.0905e-08
3517.07	2.59743e-07
3525.75	-5.3352e-08
3534.43	5.92725e-08
3543.11	-3.44627e-08
3551.79	-1.46734e-07
3560.46	-1.10931e-07
3569.14	-3.60033e-08
3577.82	-6.36924e-08
3586.5	-8.88678e-08
3595.18	-6.85689e-08
3603.85	-5.42814e-08
3612.53	-4.10489e-08
3621.21	-4.09216e-08
3629.89	-1.98115e-08
3638.57	1.12908e-07
3647.25	6.14697e-08
3655.92	1.40852e-07
3664.6	5.63804e-08
3673.28	-4.22912e-08
3681.96	-1.09827e-07
3690.64	-2.04684e-07
3699.31	-3.95192e-08
3707.99	-4.85919e-08
3716.67	-1.09027e-07
3725.35	7.80599e-08
3734.03	2.73164e-07
3742.71	3.05924e-07
3751.38	2.44778e-07
3760.06	-6.02693e-08
3768.74	-8.99046e-08
3777.42	-9.91537e-08
3786.1	-8.18669e-08
3794.77	-9.84207e-08
3803.45	-1.64219e-07
3812.13	-4.55998e-08
3820.81	-1.39284e-07
3829.49	-8.11793e-08
3838.17	-1.33616e-07
3846.84	-4.29006e-08
3855.52	-8.10083e-08
3864.2	-1.46842e-07
3872.88	-5.27154e-08
3881.56	-3.06867e-08
3890.23	-4.40247e-08
3898.91	-1.72777e-08
3907.59	8.33729e-08
3916.27	1.03848e-07
3924.95	1.73359e-07
3933.63	1.37414e-07
3942.3	1.48189e-07
3950.98	-1.44366e-08
3959.66	-6.37834e-08
3968.34	-1.21113e-07
