Infrared Spectrum: 1,1-Dichloroethene
Formula: C H2 C Cl2
CAS: 75-35-4
State: gas
Melting point: -122.1 C
Boiling point: 37 C
Class: IUPAC A
Instrument: IFS66V (Bruker)
Instrument parameters: KBr Beam Splitter; MCT Detector; Multipass cell
Sampling: 1 L/min Flow
Resolution: 0.2410
Temperature: 23 C
Pressure: 101.3 Pa
Origin: NIST, Analytical Chemistry Division, 301-975-3108
cm-1	(micromol/mol)-1m-1 (base 10)
575.05	5.01848e-06
583.608	2.01611e-05
592.165	5.80052e-05
600.723	5.85554e-05
609.281	8.57368e-05
617.838	3.59959e-05
626.396	1.05174e-05
634.954	1.21495e-06
643.511	4.70268e-07
652.069	-2.96969e-07
660.626	-3.2585e-07
669.184	-2.23167e-07
677.742	5.15607e-07
686.299	3.35102e-07
694.857	-1.37585e-08
703.415	-1.19098e-07
711.972	-5.17746e-08
720.53	-1.08788e-07
729.088	3.51305e-07
737.645	-6.4027e-08
746.203	4.25769e-07
754.761	2.86529e-06
763.318	1.80209e-05
771.876	6.58158e-05
780.434	0.000279554
788.991	0.000390571
797.549	0.00028468
806.106	0.000306514
814.664	1.78098e-05
823.222	6.28026e-06
831.779	6.53123e-06
840.337	2.11036e-05
848.895	6.81703e-05
857.452	0.000114967
866.01	9.74125e-05
874.568	0.000165824
883.125	0.000127036
891.683	5.56876e-05
900.241	1.40617e-05
908.798	7.97312e-06
917.356	7.19406e-06
925.914	4.12302e-06
934.471	2.51849e-06
943.029	1.28825e-06
951.586	9.90957e-07
960.144	5.85105e-07
968.702	6.92718e-07
977.259	1.03354e-06
985.817	3.03514e-07
994.375	1.38953e-07
1002.93	4.43984e-07
1011.49	1.15095e-06
1020.05	7.72635e-07
1028.61	8.44251e-07
1037.16	2.68604e-07
1045.72	8.17774e-07
1054.28	4.18441e-06
1062.84	2.78545e-05
1071.39	0.000134873
1079.95	0.000249117
1088.51	0.000410916
1097.07	0.000655484
1105.62	0.000271612
1114.18	2.31385e-05
1122.74	1.60414e-05
1131.3	6.36144e-05
1139.85	2.96589e-05
1148.41	6.25301e-05
1156.97	8.35976e-06
1165.53	9.39455e-07
1174.09	9.29534e-07
1182.64	5.73686e-07
1191.2	1.28047e-07
1199.76	1.54465e-07
1208.32	1.69439e-07
1216.87	-5.76534e-08
1225.43	7.25652e-08
1233.99	6.90583e-08
1242.55	3.15086e-07
1251.1	5.4547e-07
1259.66	3.5491e-07
1268.22	-3.87837e-08
1276.78	1.24998e-08
1285.33	1.10734e-07
1293.89	8.32908e-07
1302.45	2.44125e-06
1311.01	5.9726e-06
1319.57	3.45477e-06
1328.12	4.65553e-06
1336.68	1.9607e-06
1345.24	5.9834e-07
1353.8	1.1123e-06
1362.35	9.8228e-07
1370.91	2.64464e-06
1379.47	6.42763e-06
1388.03	9.55478e-06
1396.58	1.01836e-05
1405.14	9.13608e-06
1413.7	6.63349e-07
1422.26	-1.43173e-07
1430.81	-3.35414e-08
1439.37	-7.63741e-08
1447.93	-5.96361e-08
1456.49	-1.71614e-07
1465.05	1.3935e-07
1473.6	8.66038e-08
1482.16	7.51263e-08
1490.72	1.66179e-08
1499.28	4.63978e-08
1507.83	2.17572e-07
1516.39	5.56948e-07
1524.95	1.71136e-06
1533.51	6.65031e-06
1542.06	1.64097e-05
1550.62	3.33751e-05
1559.18	6.18626e-05
1567.74	6.14579e-05
1576.29	8.69097e-05
1584.85	3.84674e-05
1593.41	3.57311e-05
1601.97	8.10947e-05
1610.53	0.000211935
1619.08	0.000226113
1627.64	0.000339206
1636.2	0.000130832
1644.76	3.64673e-05
1653.31	4.07522e-06
1661.87	4.78231e-07
1670.43	2.55668e-07
1678.99	5.83152e-07
1687.54	6.45083e-07
1696.1	6.18101e-07
1704.66	4.12094e-07
1713.22	6.29902e-07
1721.77	1.70049e-06
1730.33	4.44056e-06
1738.89	8.50512e-06
1747.45	9.15391e-06
1756.01	5.61308e-06
1764.56	2.09227e-06
1773.12	8.55703e-07
1781.68	3.51319e-07
1790.24	3.98183e-07
1798.79	1.33962e-07
1807.35	2.01682e-07
1815.91	3.26683e-08
1824.47	-4.03916e-08
1833.02	-5.0756e-08
1841.58	6.25282e-08
1850.14	2.81486e-07
1858.7	4.49786e-07
1867.25	9.24521e-07
1875.81	1.05438e-06
1884.37	7.89781e-07
1892.93	9.06139e-07
1901.49	3.73707e-07
1910.04	2.98883e-07
1918.6	4.13884e-07
1927.16	4.36515e-07
1935.72	4.58295e-07
1944.27	1.59416e-07
1952.83	7.43478e-08
1961.39	-1.75674e-08
1969.95	-5.83337e-08
1978.5	1.57477e-07
1987.06	2.9802e-07
1995.62	2.63893e-07
2004.18	9.50038e-08
2012.73	6.46819e-09
2021.29	-9.79323e-08
2029.85	-7.67852e-08
2038.41	-1.08573e-07
2046.97	-6.36705e-08
2055.52	5.49468e-08
2064.08	-4.31491e-08
2072.64	1.39066e-07
2081.2	-1.51519e-08
2089.75	-9.64407e-09
2098.31	-2.00437e-07
2106.87	-1.29946e-07
2115.43	-2.2846e-08
2123.98	-1.85733e-07
2132.54	-2.04261e-07
2141.1	-1.77668e-07
2149.66	-2.07138e-07
2158.21	-2.03049e-07
2166.77	-2.91145e-07
2175.33	-3.16552e-07
2183.89	-3.79189e-07
2192.45	-1.66328e-07
2201	-6.64535e-08
2209.56	5.55191e-07
2218.12	5.31137e-07
2226.68	5.47246e-07
2235.23	3.88728e-07
2243.79	-2.09179e-08
2252.35	-1.03404e-07
2260.91	-1.99444e-07
2269.46	-2.05731e-07
2278.02	-3.56969e-07
2286.58	-1.67667e-07
2295.14	-2.07539e-07
2303.69	-1.52384e-07
2312.25	-3.40871e-08
2320.81	-4.94973e-08
2329.37	1.23197e-07
2337.93	1.76776e-07
2346.48	1.74132e-07
2355.04	-4.01442e-08
2363.6	-8.23002e-08
2372.16	-7.44423e-08
2380.71	-1.15522e-07
2389.27	6.83198e-09
2397.83	2.75327e-07
2406.39	5.07702e-07
2414.94	1.05307e-06
2423.5	1.51762e-06
2432.06	1.12267e-06
2440.62	6.47332e-07
2449.17	5.34153e-08
2457.73	4.04782e-07
2466.29	-1.05343e-07
2474.85	-4.45643e-09
2483.41	1.53076e-07
2491.96	-4.54519e-08
2500.52	-4.21705e-08
2509.08	-3.49639e-08
2517.64	-9.16387e-08
2526.19	1.30746e-08
2534.75	-8.09942e-08
2543.31	-1.46826e-08
2551.87	-1.65055e-07
2560.42	-2.23989e-07
2568.98	-1.41631e-07
2577.54	-1.24627e-07
2586.1	-2.75942e-07
2594.65	-7.25616e-08
2603.21	-2.16619e-07
2611.77	7.59557e-08
2620.33	4.88206e-09
2628.89	1.33667e-07
2637.44	2.11136e-07
2646	1.3135e-07
2654.56	8.47376e-08
2663.12	1.88618e-07
2671.67	-2.60437e-08
2680.23	3.70338e-08
2688.79	8.91904e-08
2697.35	3.66642e-07
2705.9	2.19944e-07
2714.46	2.27376e-07
2723.02	1.53152e-07
2731.58	2.3821e-08
2740.13	2.24349e-08
2748.69	1.03495e-07
2757.25	-1.76656e-07
2765.81	-7.93535e-08
2774.37	-1.82695e-07
2782.92	-7.42423e-08
2791.48	-1.60722e-08
2800.04	-1.16777e-07
2808.6	-1.21957e-07
2817.15	4.79621e-08
2825.71	2.40974e-08
2834.27	-2.26059e-08
2842.83	-9.94565e-08
2851.38	-4.76965e-08
2859.94	-1.23914e-07
2868.5	2.36147e-07
2877.06	1.38142e-07
2885.61	2.6401e-07
2894.17	-5.33898e-08
2902.73	1.96447e-08
2911.29	3.55674e-07
2919.85	2.25328e-07
2928.4	1.42777e-07
2936.96	2.56887e-07
2945.52	4.58601e-07
2954.08	3.5455e-07
2962.63	5.06312e-07
2971.19	2.91814e-07
2979.75	8.5447e-08
2988.31	4.97159e-07
2996.86	5.64551e-07
3005.42	1.05437e-06
3013.98	4.44177e-07
3022.54	1.54025e-07
3031.09	3.43272e-07
3039.65	9.27679e-07
3048.21	7.06586e-07
3056.77	5.66385e-07
3065.33	-4.3291e-10
3073.88	-1.11334e-07
3082.44	-5.40737e-08
3091	1.24755e-07
3099.56	-6.67373e-08
3108.11	-1.29436e-07
3116.67	-2.41142e-07
3125.23	-3.37699e-07
3133.79	-5.2058e-07
3142.34	-3.85934e-07
3150.9	-4.83371e-07
3159.46	9.41161e-08
3168.02	5.68298e-07
3176.57	1.98664e-06
3185.13	2.8084e-06
3193.69	2.43541e-06
3202.25	2.89521e-06
3210.81	2.13698e-07
3219.36	-2.50309e-07
3227.92	-5.96434e-08
3236.48	3.53626e-07
3245.04	6.77173e-07
3253.59	4.26373e-07
3262.15	-5.61885e-07
3270.71	-4.42671e-07
3279.27	-4.75528e-07
3287.82	-2.064e-07
3296.38	2.1799e-07
3304.94	-1.78366e-08
3313.5	2.97413e-07
3322.05	-1.60042e-07
3330.61	-6.4449e-08
3339.17	7.9459e-08
3347.73	1.68453e-07
3356.29	1.61032e-07
3364.84	-5.69513e-08
3373.4	-1.71953e-07
3381.96	7.19213e-09
3390.52	-5.63474e-08
3399.07	9.54585e-08
3407.63	4.04025e-08
3416.19	6.21899e-08
3424.75	9.50438e-08
3433.3	1.57721e-07
3441.86	4.49135e-08
3450.42	1.23689e-08
3458.98	1.24023e-07
3467.53	-3.68847e-08
3476.09	-8.80044e-08
3484.65	-1.41511e-07
3493.21	-6.34959e-08
3501.77	3.38667e-07
3510.32	-6.31176e-09
3518.88	1.88832e-07
3527.44	-9.50911e-08
3536	1.94919e-08
3544.55	-3.27084e-08
3553.11	-3.8187e-08
3561.67	-5.60746e-08
3570.23	-3.18436e-07
3578.78	-1.48896e-07
3587.34	-1.63898e-07
3595.9	-8.56071e-08
3604.46	-8.94814e-08
3613.01	-1.15041e-07
3621.57	6.09239e-08
3630.13	5.25495e-08
3638.69	1.00679e-07
3647.25	7.07426e-08
3655.8	9.85362e-08
3664.36	9.75139e-08
3672.92	5.01412e-08
3681.48	-2.54198e-07
3690.03	-1.31099e-07
3698.59	-7.71635e-08
3707.15	7.28308e-09
3715.71	-1.73717e-07
3724.26	1.21109e-07
3732.82	3.22085e-07
3741.38	1.69715e-07
3749.94	3.91918e-07
3758.49	-9.91837e-08
3767.05	-3.02455e-08
3775.61	-8.3297e-08
3784.17	8.63892e-08
3792.73	1.15889e-07
3801.28	3.39925e-08
3809.84	-7.22705e-08
3818.4	1.15885e-07
3826.96	-2.59582e-07
3835.51	-3.07766e-08
3844.07	-2.60728e-08
3852.63	-1.81433e-07
3861.19	-7.29945e-08
3869.74	-2.20821e-09
3878.3	-1.32052e-07
3886.86	-1.1049e-07
3895.42	1.40834e-07
3903.97	4.4931e-07
3912.53	-2.42139e-08
3921.09	2.33073e-07
3929.65	1.26261e-07
3938.21	3.65718e-07
3946.76	7.11173e-08
3955.32	-1.68984e-07
3963.88	8.59636e-09
3972.44	-1.47502e-07
