Infrared Spectrum: 1,1-Dichloroethene
Formula: C H2 C Cl2
CAS: 75-35-4
State: gas
Melting point: -122.1 C
Boiling point: 37 C
Class: IUPAC A
Instrument: IFS66V (Bruker)
Instrument parameters: KBr Beam Splitter; MCT Detector; Multipass cell
Sampling: 1 L/min Flow
Resolution: 0.4820
Temperature: 23 C
Pressure: 101.3 Pa
Origin: NIST, Analytical Chemistry Division, 301-975-3108
cm-1	(micromol/mol)-1m-1 (base 10)
575.17	6.3432e-06
583.848	2.11913e-05
592.526	6.02889e-05
601.205	5.51942e-05
609.883	8.40334e-05
618.561	3.17299e-05
627.239	8.62065e-06
635.917	1.2192e-06
644.595	-1.16284e-07
653.274	-3.19879e-07
661.952	-3.39269e-07
670.63	-2.8413e-08
679.308	1.04511e-06
687.986	3.36751e-08
696.665	-3.32633e-07
705.343	-2.29385e-07
714.021	-4.97869e-08
722.699	-1.30941e-07
731.377	1.20457e-07
740.055	1.41276e-07
748.734	8.71717e-07
757.412	5.08997e-06
766.09	2.86577e-05
774.768	0.000116441
783.446	0.000392052
792.124	0.000410418
800.803	0.000452248
809.481	0.000121882
818.159	8.22576e-06
826.837	5.77944e-06
835.515	1.14134e-05
844.194	3.75388e-05
852.872	9.49818e-05
861.55	0.000267193
870.228	0.000158453
878.906	0.000136874
887.584	9.79569e-05
896.263	2.66056e-05
904.941	1.03276e-05
913.619	3.95187e-06
922.297	5.69485e-06
930.975	2.58443e-06
939.654	1.6769e-06
948.332	1.01908e-06
957.01	6.09601e-07
965.688	6.2044e-07
974.366	3.28664e-07
983.044	4.27105e-07
991.723	2.6624e-07
1000.4	2.38474e-07
1009.08	9.22697e-07
1017.76	1.7064e-06
1026.44	1.04708e-06
1035.11	2.41708e-07
1043.79	4.18711e-07
1052.47	3.44583e-06
1061.15	1.90076e-05
1069.83	0.000107277
1078.5	0.000292295
1087.18	0.000378198
1095.86	0.000326236
1104.54	0.000292952
1113.22	3.34101e-05
1121.9	1.52862e-05
1130.57	6.25922e-05
1139.25	0.000147481
1147.93	6.40639e-05
1156.61	9.39624e-06
1165.29	9.01885e-07
1173.96	8.79695e-07
1182.64	5.06842e-07
1191.32	7.95951e-08
1200	1.35279e-07
1208.68	6.96784e-08
1217.36	-1.33998e-07
1226.03	2.58284e-09
1234.71	7.21521e-08
1243.39	2.99538e-07
1252.07	4.7167e-07
1260.75	3.53278e-07
1269.42	-1.31968e-07
1278.1	-5.93161e-08
1286.78	1.02611e-07
1295.46	1.04473e-06
1304.14	3.24421e-06
1312.82	6.03327e-06
1321.49	5.5656e-06
1330.17	3.84546e-06
1338.85	1.74281e-06
1347.53	9.52223e-07
1356.21	1.2585e-06
1364.88	1.31358e-06
1373.56	3.75472e-06
1382.24	8.64445e-06
1390.92	1.29488e-05
1399.6	9.45816e-06
1408.28	6.16892e-06
1416.95	1.25722e-08
1425.63	6.71174e-09
1434.31	1.382e-08
1442.99	2.43551e-09
1451.67	-7.16647e-09
1460.34	3.51502e-08
1469.02	1.17981e-07
1477.7	1.1568e-07
1486.38	8.50154e-09
1495.06	7.62465e-08
1503.74	1.54625e-07
1512.41	2.89072e-07
1521.09	8.29602e-07
1529.77	3.77705e-06
1538.45	9.66632e-06
1547.13	2.21215e-05
1555.8	5.03452e-05
1564.48	6.93517e-05
1573.16	6.60261e-05
1581.84	5.37757e-05
1590.52	3.30008e-05
1599.2	6.02282e-05
1607.87	0.000162451
1616.55	0.000266583
1625.23	0.000252693
1633.91	0.000185522
1642.59	5.21188e-05
1651.26	7.94741e-06
1659.94	7.92206e-07
1668.62	3.25479e-07
1677.3	4.64533e-07
1685.98	5.9293e-07
1694.66	1.15744e-06
1703.33	4.47291e-07
1712.01	4.66079e-07
1720.69	1.52017e-06
1729.37	3.86583e-06
1738.05	8.60004e-06
1746.72	8.27952e-06
1755.4	5.82313e-06
1764.08	2.11314e-06
1772.76	7.31751e-07
1781.44	3.36018e-07
1790.12	3.70199e-07
1798.79	9.02938e-08
1807.47	3.80396e-07
1816.15	9.52376e-08
1824.83	1.02768e-09
1833.51	-3.51411e-09
1842.18	1.45594e-07
1850.86	2.8612e-07
1859.54	4.99203e-07
1868.22	9.8341e-07
1876.9	1.04717e-06
1885.58	8.37831e-07
1894.25	8.47209e-07
1902.93	3.17946e-07
1911.61	2.94034e-07
1920.29	3.96467e-07
1928.97	4.92733e-07
1937.64	3.21587e-07
1946.32	1.45274e-07
1955	-3.10395e-08
1963.68	-7.8913e-08
1972.36	6.12442e-08
1981.04	2.495e-07
1989.71	3.34197e-07
1998.39	2.87286e-07
2007.07	-5.09783e-08
2015.75	-6.9773e-08
2024.43	-7.54352e-08
2033.1	-6.71974e-08
2041.78	-8.99664e-08
2050.46	-1.43438e-08
2059.14	-6.01619e-08
2067.82	-4.26423e-08
2076.5	-2.05554e-08
2085.17	1.07497e-09
2093.85	-2.56538e-08
2102.53	-4.28551e-08
2111.21	-1.90075e-08
2119.89	-4.22112e-08
2128.56	-1.09296e-07
2137.24	-2.65367e-07
2145.92	-3.08544e-07
2154.6	-2.49935e-07
2163.28	-3.32566e-07
2171.96	-3.98457e-07
2180.63	-3.02603e-07
2189.31	-3.20665e-07
2197.99	-8.63305e-08
2206.67	1.20991e-07
2215.35	4.26961e-07
2224.02	6.66632e-07
2232.7	5.71362e-07
2241.38	1.58566e-07
2250.06	-5.89778e-08
2258.74	-1.82756e-07
2267.42	-2.57385e-07
2276.09	-3.14648e-07
2284.77	-2.34771e-07
2293.45	-2.11236e-07
2302.13	-1.99042e-07
2310.81	-1.07177e-07
2319.48	2.10483e-08
2328.16	1.03412e-07
2336.84	2.76154e-07
2345.52	1.25977e-07
2354.2	9.53995e-08
2362.88	-1.93113e-07
2371.55	-1.00667e-07
2380.23	-9.00101e-08
2388.91	1.38145e-08
2397.59	1.9868e-07
2406.27	4.83764e-07
2414.94	1.01613e-06
2423.62	1.50613e-06
2432.3	1.11307e-06
2440.98	5.50496e-07
2449.66	-9.56196e-09
2458.34	2.75214e-07
2467.01	-6.49602e-08
2475.69	-8.20997e-08
2484.37	-4.81881e-08
2493.05	-9.3697e-08
2501.73	-1.325e-07
2510.4	-9.47319e-08
2519.08	-3.00737e-08
2527.76	-1.14092e-07
2536.44	3.30785e-08
2545.12	-1.22556e-07
2553.8	-1.3681e-07
2562.47	-8.3382e-08
2571.15	-1.47247e-07
2579.83	-1.64045e-07
2588.51	-1.11551e-07
2597.19	-7.23067e-08
2605.86	1.92294e-08
2614.54	2.72726e-08
2623.22	4.10217e-08
2631.9	1.03457e-07
2640.58	5.518e-08
2649.26	1.86803e-07
2657.93	1.31961e-07
2666.61	1.56544e-07
2675.29	7.44112e-08
2683.97	6.12587e-08
2692.65	2.88332e-07
2701.32	4.05433e-07
2710	5.08312e-07
2718.68	1.42633e-07
2727.36	-1.1008e-08
2736.04	-1.62777e-07
2744.71	1.38764e-08
2753.39	5.68079e-08
2762.07	-6.2461e-08
2770.75	-1.68294e-07
2779.43	-1.02702e-07
2788.11	-1.06004e-07
2796.78	-2.01527e-07
2805.46	-1.06653e-07
2814.14	-1.14143e-07
2822.82	-6.71229e-08
2831.5	-2.36093e-08
2840.17	-3.1376e-09
2848.85	7.76816e-08
2857.53	3.88644e-08
2866.21	-2.27872e-08
2874.89	1.62981e-07
2883.57	1.03093e-07
2892.24	1.86037e-08
2900.92	5.1062e-08
2909.6	2.94498e-08
2918.28	2.85802e-07
2926.96	1.03426e-07
2935.63	4.15799e-07
2944.31	5.74916e-07
2952.99	4.44455e-07
2961.67	3.44223e-07
2970.35	3.09722e-07
2979.03	2.04379e-07
2987.7	5.17048e-07
2996.38	5.93092e-07
3005.06	9.31812e-07
3013.74	3.87211e-07
3022.42	2.16917e-07
3031.09	4.25288e-07
3039.77	9.2255e-07
3048.45	6.67615e-07
3057.13	5.28441e-07
3065.81	1.08716e-07
3074.49	8.44133e-08
3083.16	-5.72753e-08
3091.84	-4.82227e-08
3100.52	-1.36889e-07
3109.2	-1.79193e-07
3117.88	-1.94044e-07
3126.55	-4.16121e-07
3135.23	-3.74286e-07
3143.91	-1.13061e-07
3152.59	-3.33863e-07
3161.27	8.51282e-08
3169.95	9.19217e-07
3178.62	2.14362e-06
3187.3	3.05311e-06
3195.98	2.88126e-06
3204.66	1.80994e-06
3213.34	2.56132e-07
3222.01	-3.84939e-07
3230.69	4.50596e-08
3239.37	5.44897e-07
3248.05	4.5911e-07
3256.73	-7.72851e-09
3265.41	-5.50959e-07
3274.08	-6.03358e-07
3282.76	-2.61105e-07
3291.44	-1.2018e-07
3300.12	2.41821e-07
3308.8	1.61224e-07
3317.47	1.28369e-07
3326.15	1.28391e-07
3334.83	7.43275e-08
3343.51	3.02105e-07
3352.19	3.84279e-08
3360.87	2.08715e-07
3369.54	-4.24986e-08
3378.22	-1.65413e-07
3386.9	-4.08889e-09
3395.58	-7.17483e-08
3404.26	1.9635e-08
3412.93	1.30524e-08
3421.61	1.22805e-07
3430.29	3.12851e-10
3438.97	2.21415e-08
3447.65	-5.18659e-08
3456.33	-2.71534e-07
3465	-1.68648e-07
3473.68	-1.80539e-07
3482.36	-1.6232e-07
3491.04	-1.07424e-08
3499.72	1.76628e-07
3508.39	5.71808e-08
3517.07	2.83514e-07
3525.75	-8.27981e-08
3534.43	1.05538e-07
3543.11	-5.44833e-08
3551.79	-2.16598e-07
3560.46	-1.30259e-07
3569.14	2.92115e-09
3577.82	-8.29291e-08
3586.5	-1.16941e-07
3595.18	-1.00602e-07
3603.85	-2.57538e-08
3612.53	-3.11614e-08
3621.21	-4.72168e-08
3629.89	-8.59794e-09
3638.57	1.1627e-07
3647.25	3.66727e-08
3655.92	1.25548e-07
3664.6	8.63395e-08
3673.28	-8.67197e-08
3681.96	-1.00289e-07
3690.64	-2.28969e-07
3699.31	-2.33783e-08
3707.99	-5.91215e-08
3716.67	-1.1311e-07
3725.35	5.31446e-08
3734.03	3.16425e-07
3742.71	3.30903e-07
3751.38	2.25322e-07
3760.06	-5.55365e-08
3768.74	-8.73418e-08
3777.42	-1.29406e-07
3786.1	-1.16506e-07
3794.77	-1.00994e-07
3803.45	-1.93105e-07
3812.13	-4.12636e-08
3820.81	-1.45934e-07
3829.49	-7.23049e-08
3838.17	-1.40479e-07
3846.84	-8.18723e-08
3855.52	-7.78307e-08
3864.2	-1.94415e-07
3872.88	-2.63868e-08
3881.56	-2.81802e-08
3890.23	-6.28448e-08
3898.91	-1.51351e-08
3907.59	7.67394e-08
3916.27	1.14543e-07
3924.95	1.42338e-07
3933.63	1.33856e-07
3942.3	1.67177e-07
3950.98	2.66469e-09
3959.66	-6.0051e-08
3968.34	-1.21102e-07
