Infrared Spectrum: 1,1-Dichloroethene
Formula: C H2 C Cl2
CAS: 75-35-4
State: gas
Melting point: -122.1 C
Boiling point: 37 C
Class: IUPAC A
Instrument: IFS66V (Bruker)
Instrument parameters: KBr Beam Splitter; MCT Detector; Multipass cell
Sampling: 1 L/min Flow
Resolution: 0.1250
Temperature: 23 C
Pressure: 101.3 Pa
Origin: NIST, Analytical Chemistry Division, 301-975-3108
cm-1	(micromol/mol)-1m-1 (base 10)
575.05	4.28098e-06
583.608	1.98109e-05
592.165	5.80182e-05
600.723	5.90437e-05
609.281	8.582e-05
617.838	3.59637e-05
626.396	1.04928e-05
634.954	9.67612e-07
643.511	4.3215e-07
652.069	-2.28293e-07
660.626	-3.78531e-07
669.184	-3.30492e-07
677.742	5.61055e-07
686.299	4.11443e-07
694.857	-1.47699e-08
703.415	-1.65961e-08
711.972	-1.92809e-10
720.53	-1.0201e-07
729.088	4.24474e-07
737.645	-1.13084e-07
746.203	4.10053e-07
754.761	2.91425e-06
763.318	1.8035e-05
771.876	6.58799e-05
780.434	0.000279489
788.991	0.00039094
797.549	0.00028472
806.106	0.000306752
814.664	1.77695e-05
823.222	6.22406e-06
831.779	6.38867e-06
840.337	2.1168e-05
848.895	6.82022e-05
857.452	0.000114986
866.01	9.69499e-05
874.568	0.000161084
883.125	0.000127026
891.683	5.5662e-05
900.241	1.40717e-05
908.798	7.99636e-06
917.356	7.2337e-06
925.914	4.09569e-06
934.471	2.50171e-06
943.029	1.291e-06
951.586	9.5461e-07
960.144	6.47772e-07
968.702	7.36271e-07
977.259	1.02111e-06
985.817	3.55969e-07
994.375	9.74884e-08
1002.93	4.04105e-07
1011.49	1.15652e-06
1020.05	8.02375e-07
1028.61	7.89333e-07
1037.16	2.57541e-07
1045.72	7.71846e-07
1054.28	4.08461e-06
1062.84	2.78199e-05
1071.39	0.000134727
1079.95	0.000249509
1088.51	0.00041017
1097.07	0.000658431
1105.62	0.000271573
1114.18	2.3126e-05
1122.74	1.6024e-05
1131.3	6.37408e-05
1139.85	2.84163e-05
1148.41	6.25536e-05
1156.97	8.31286e-06
1165.53	9.36988e-07
1174.09	9.31986e-07
1182.64	6.26319e-07
1191.2	1.47837e-07
1199.76	1.77006e-07
1208.32	1.74648e-07
1216.87	-1.41405e-08
1225.43	1.22532e-07
1233.99	4.26362e-08
1242.55	2.35256e-07
1251.1	5.0422e-07
1259.66	3.55648e-07
1268.22	-6.84689e-08
1276.78	4.18795e-08
1285.33	1.16838e-07
1293.89	8.69786e-07
1302.45	2.43673e-06
1311.01	5.95532e-06
1319.57	3.4895e-06
1328.12	4.65503e-06
1336.68	1.91037e-06
1345.24	6.5986e-07
1353.8	1.39335e-06
1362.35	8.85981e-07
1370.91	2.58713e-06
1379.47	6.41766e-06
1388.03	9.56175e-06
1396.58	9.98637e-06
1405.14	9.20816e-06
1413.7	7.22298e-07
1422.26	-1.52657e-07
1430.81	-1.46171e-08
1439.37	-3.81252e-08
1447.93	-3.20826e-08
1456.49	-1.92696e-07
1465.05	1.62836e-07
1473.6	1.05255e-07
1482.16	3.70702e-08
1490.72	3.72157e-08
1499.28	8.01429e-09
1507.83	2.25404e-07
1516.39	5.43753e-07
1524.95	1.70225e-06
1533.51	6.66333e-06
1542.06	1.64148e-05
1550.62	3.33695e-05
1559.18	6.18638e-05
1567.74	6.16763e-05
1576.29	8.69634e-05
1584.85	3.8532e-05
1593.41	3.57031e-05
1601.97	8.10435e-05
1610.53	0.000212145
1619.08	0.000226583
1627.64	0.000339269
1636.2	0.000130845
1644.76	3.64912e-05
1653.31	4.0757e-06
1661.87	4.4656e-07
1670.43	2.38028e-07
1678.99	5.55194e-07
1687.54	6.83107e-07
1696.1	7.03934e-07
1704.66	4.15008e-07
1713.22	6.43264e-07
1721.77	1.68571e-06
1730.33	4.43714e-06
1738.89	8.49657e-06
1747.45	9.17567e-06
1756.01	5.66334e-06
1764.56	2.11131e-06
1773.12	8.43058e-07
1781.68	3.6347e-07
1790.24	4.07576e-07
1798.79	1.41449e-07
1807.35	1.60712e-07
1815.91	1.00079e-08
1824.47	-1.10508e-07
1833.02	-7.96264e-08
1841.58	5.78353e-08
1850.14	2.90177e-07
1858.7	4.63643e-07
1867.25	9.02559e-07
1875.81	1.06405e-06
1884.37	8.04554e-07
1892.93	8.9719e-07
1901.49	4.0221e-07
1910.04	3.20466e-07
1918.6	3.97222e-07
1927.16	4.60649e-07
1935.72	4.62246e-07
1944.27	1.87727e-07
1952.83	1.08973e-07
1961.39	-1.76438e-09
1969.95	-3.05802e-08
1978.5	1.40496e-07
1987.06	3.01786e-07
1995.62	3.33836e-07
2004.18	1.08297e-07
2012.73	1.5381e-08
2021.29	-8.6251e-08
2029.85	-8.67821e-08
2038.41	-1.54643e-07
2046.97	-1.12378e-07
2055.52	7.8113e-08
2064.08	-1.3864e-08
2072.64	1.58692e-07
2081.2	-2.65021e-08
2089.75	1.84805e-08
2098.31	-2.30086e-07
2106.87	-1.64815e-07
2115.43	-1.3402e-08
2123.98	-2.29533e-07
2132.54	-2.75051e-07
2141.1	-1.74954e-07
2149.66	-1.73237e-07
2158.21	-1.90819e-07
2166.77	-2.89722e-07
2175.33	-3.30183e-07
2183.89	-3.66759e-07
2192.45	-1.61126e-07
2201	-7.71962e-08
2209.56	5.51564e-07
2218.12	4.98407e-07
2226.68	5.5458e-07
2235.23	3.7689e-07
2243.79	4.35457e-09
2252.35	-1.13255e-07
2260.91	-1.97167e-07
2269.46	-1.98829e-07
2278.02	-3.28626e-07
2286.58	-1.2064e-07
2295.14	-2.20322e-07
2303.69	-9.74775e-08
2312.25	-2.70805e-08
2320.81	-6.74503e-08
2329.37	1.24755e-07
2337.93	1.74132e-07
2346.48	1.70025e-07
2355.04	-5.2564e-08
2363.6	-8.64583e-08
2372.16	-9.33303e-08
2380.71	-1.13823e-07
2389.27	-1.7069e-08
2397.83	2.77612e-07
2406.39	5.23257e-07
2414.94	1.05964e-06
2423.5	1.48451e-06
2432.06	1.13592e-06
2440.62	6.63076e-07
2449.17	4.43715e-08
2457.73	3.57154e-07
2466.29	-1.33045e-07
2474.85	-1.26672e-08
2483.41	2.12064e-07
2491.96	-5.35572e-08
2500.52	-5.46049e-08
2509.08	-1.3031e-08
2517.64	-1.0865e-07
2526.19	-1.53447e-08
2534.75	-6.20953e-08
2543.31	3.24792e-08
2551.87	-1.49161e-07
2560.42	-2.17652e-07
2568.98	-1.14154e-07
2577.54	-1.4103e-07
2586.1	-2.75611e-07
2594.65	-2.2133e-08
2603.21	-2.35718e-07
2611.77	7.06371e-08
2620.33	-3.52149e-08
2628.89	1.61694e-07
2637.44	1.57965e-07
2646	1.09235e-07
2654.56	8.6291e-08
2663.12	1.24802e-07
2671.67	-4.03007e-08
2680.23	2.55344e-08
2688.79	4.22469e-08
2697.35	4.31069e-07
2705.9	2.45733e-07
2714.46	2.30399e-07
2723.02	1.82939e-07
2731.58	7.09863e-08
2740.13	-3.13769e-08
2748.69	1.21084e-07
2757.25	-1.94642e-07
2765.81	-7.96009e-08
2774.37	-1.75842e-07
2782.92	-1.01563e-07
2791.48	2.48541e-08
2800.04	-1.26228e-07
2808.6	-1.63796e-07
2817.15	8.00229e-08
2825.71	1.1092e-08
2834.27	-6.34668e-08
2842.83	-9.72774e-08
2851.38	-4.37712e-08
2859.94	-1.9971e-07
2868.5	2.2384e-07
2877.06	2.12512e-07
2885.61	3.57635e-07
2894.17	-8.04631e-08
2902.73	-4.81512e-08
2911.29	3.40402e-07
2919.85	2.51419e-07
2928.4	2.30508e-07
2936.96	2.18845e-07
2945.52	5.14737e-07
2954.08	3.69447e-07
2962.63	4.73167e-07
2971.19	2.86245e-07
2979.75	1.53559e-07
2988.31	4.82546e-07
2996.86	6.14587e-07
3005.42	1.07749e-06
3013.98	4.22513e-07
3022.54	1.70479e-07
3031.09	2.50535e-07
3039.65	9.63574e-07
3048.21	7.47097e-07
3056.77	5.97543e-07
3065.33	-5.48668e-08
3073.88	-1.36501e-07
3082.44	1.09865e-08
3091	1.10137e-07
3099.56	-1.72607e-07
3108.11	-5.78171e-08
3116.67	-1.57677e-07
3125.23	-3.5547e-07
3133.79	-5.50949e-07
3142.34	-4.18373e-07
3150.9	-4.84194e-07
3159.46	1.35483e-07
3168.02	5.4865e-07
3176.57	2.00919e-06
3185.13	2.72516e-06
3193.69	2.42741e-06
3202.25	3.00475e-06
3210.81	1.70694e-07
3219.36	-2.90268e-07
3227.92	-3.70848e-08
3236.48	3.91584e-07
3245.04	6.62673e-07
3253.59	4.3136e-07
3262.15	-5.0939e-07
3270.71	-3.85457e-07
3279.27	-5.57927e-07
3287.82	-1.68278e-07
3296.38	2.56265e-07
3304.94	-1.36643e-07
3313.5	2.96041e-07
3322.05	-8.05431e-08
3330.61	-3.46765e-08
3339.17	8.47558e-08
3347.73	1.47491e-07
3356.29	1.11745e-07
3364.84	1.52792e-08
3373.4	-1.50547e-07
3381.96	7.77638e-08
3390.52	-6.90437e-08
3399.07	1.18596e-07
3407.63	-1.50391e-08
3416.19	-1.14376e-08
3424.75	6.36414e-08
3433.3	1.47699e-07
3441.86	5.94033e-08
3450.42	3.20608e-08
3458.98	6.67373e-08
3467.53	7.07572e-09
3476.09	-9.8467e-08
3484.65	-1.8765e-07
3493.21	-2.85357e-08
3501.77	3.6065e-07
3510.32	9.82233e-11
3518.88	1.75278e-07
3527.44	-5.23094e-08
3536	5.90067e-08
3544.55	7.12665e-09
3553.11	-6.42671e-08
3561.67	-2.07069e-08
3570.23	-3.51163e-07
3578.78	-1.79348e-07
3587.34	-1.95333e-07
3595.9	-1.08489e-07
3604.46	-1.02305e-07
3613.01	-1.454e-07
3621.57	9.67572e-08
3630.13	6.59187e-09
3638.69	7.43805e-08
3647.25	5.65839e-08
3655.8	6.48237e-08
3664.36	1.2649e-07
3672.92	5.09597e-08
3681.48	-3.19553e-07
3690.03	-6.78723e-08
3698.59	-6.73339e-08
3707.15	7.40858e-08
3715.71	-2.25903e-07
3724.26	9.04855e-08
3732.82	2.9981e-07
3741.38	1.6213e-07
3749.94	3.48984e-07
3758.49	-9.70592e-08
3767.05	-7.05753e-09
3775.61	-1.03564e-07
3784.17	4.38876e-08
3792.73	1.66732e-07
3801.28	1.02803e-07
3809.84	-9.04855e-08
3818.4	2.35165e-07
3826.96	-2.52227e-07
3835.51	-1.94046e-08
3844.07	-3.37961e-08
3852.63	-2.73843e-07
3861.19	-5.90468e-08
3869.74	4.50554e-08
3878.3	-1.56226e-07
3886.86	-1.16366e-07
3895.42	2.25033e-07
3903.97	5.43535e-07
3912.53	-5.41683e-09
3921.09	2.18241e-07
3929.65	6.97385e-08
3938.21	4.58594e-07
3946.76	6.27138e-08
3955.32	-2.36198e-07
3963.88	4.57684e-08
3972.44	-1.62701e-07
