Infrared Spectrum: 1,1-Dichloroethene
Formula: C H2 C Cl2
CAS: 75-35-4
State: gas
Melting point: -122.1 C
Boiling point: 37 C
Class: IUPAC A
Instrument: IFS66V (Bruker)
Instrument parameters: KBr Beam Splitter; MCT Detector; Multipass cell
Sampling: 1 L/min Flow
Resolution: 0.9640
Temperature: 23 C
Pressure: 101.3 Pa
Origin: NIST, Analytical Chemistry Division, 301-975-3108
cm-1	(micromol/mol)-1m-1 (base 10)
575.17	6.27123e-06
583.848	2.11332e-05
592.526	6.02441e-05
601.205	5.53198e-05
609.883	8.39585e-05
618.561	3.19861e-05
627.239	8.82472e-06
635.917	1.3277e-06
644.595	-4.50596e-08
653.274	-1.94479e-07
661.952	-1.62206e-07
670.63	5.62404e-08
679.308	1.02031e-06
687.986	7.5397e-08
696.665	-2.30493e-07
705.343	-2.17826e-07
714.021	-2.06427e-08
722.699	-3.30712e-08
731.377	1.30517e-07
740.055	2.2843e-07
748.734	8.47549e-07
757.412	5.0985e-06
766.09	2.87018e-05
774.768	0.000117193
783.446	0.00039161
792.125	0.000419488
800.803	0.00045509
809.481	0.000122556
818.159	8.61665e-06
826.837	6.54445e-06
835.515	1.19845e-05
844.194	3.81287e-05
852.872	9.5997e-05
861.55	0.000237535
870.228	0.000166499
878.906	0.000135267
887.584	9.96371e-05
896.263	2.63537e-05
904.941	9.95095e-06
913.619	3.67398e-06
922.297	5.48134e-06
930.975	2.4377e-06
939.654	1.45199e-06
948.332	8.36794e-07
957.01	4.64014e-07
965.688	4.79508e-07
974.366	1.94986e-07
983.044	2.99764e-07
991.723	1.38176e-07
1000.4	1.47456e-07
1009.08	8.53826e-07
1017.76	1.48288e-06
1026.44	9.71325e-07
1035.11	1.26348e-07
1043.79	3.06055e-07
1052.47	3.25816e-06
1061.15	1.89501e-05
1069.83	0.00010747
1078.5	0.000286208
1087.18	0.000381483
1095.86	0.00033728
1104.54	0.000292226
1113.22	3.35333e-05
1121.9	1.51092e-05
1130.57	6.22674e-05
1139.25	0.000133154
1147.93	6.39129e-05
1156.61	9.41294e-06
1165.29	8.73876e-07
1173.96	8.2779e-07
1182.64	4.47049e-07
1191.32	5.48507e-08
1200	1.06018e-07
1208.68	3.37388e-08
1217.36	-1.51924e-07
1226.03	-4.43084e-08
1234.71	5.45797e-08
1243.39	2.93056e-07
1252.07	4.48208e-07
1260.75	3.06714e-07
1269.42	-1.48915e-07
1278.1	-9.45082e-08
1286.78	8.90734e-08
1295.46	1.02411e-06
1304.14	3.19949e-06
1312.82	6.01899e-06
1321.49	5.48746e-06
1330.17	3.80485e-06
1338.85	1.75993e-06
1347.53	9.87115e-07
1356.21	1.22353e-06
1364.88	1.30862e-06
1373.56	3.71441e-06
1382.24	8.63973e-06
1390.92	1.23921e-05
1399.6	9.90057e-06
1408.28	6.12715e-06
1416.95	1.87529e-09
1425.63	-2.27726e-08
1434.31	-6.78632e-09
1442.99	-1.51805e-08
1451.67	-1.84364e-08
1460.34	3.59051e-08
1469.02	8.17123e-08
1477.7	9.13015e-08
1486.38	-4.67639e-09
1495.06	5.062e-08
1503.74	1.44197e-07
1512.41	2.78783e-07
1521.09	8.56316e-07
1529.77	3.77626e-06
1538.45	9.58016e-06
1547.13	2.21422e-05
1555.8	5.03434e-05
1564.48	6.93509e-05
1573.16	6.5931e-05
1581.84	5.37391e-05
1590.52	3.29825e-05
1599.2	6.024e-05
1607.87	0.000162466
1616.55	0.000266834
1625.23	0.000252356
1633.91	0.000185518
1642.59	5.21242e-05
1651.26	7.95287e-06
1659.94	7.9771e-07
1668.62	2.88572e-07
1677.3	4.85022e-07
1685.98	5.84311e-07
1694.66	1.08181e-06
1703.33	4.64192e-07
1712.01	4.61102e-07
1720.69	1.50778e-06
1729.37	3.84509e-06
1738.05	8.62096e-06
1746.72	8.25224e-06
1755.4	5.8248e-06
1764.08	2.11675e-06
1772.76	7.95585e-07
1781.44	3.15492e-07
1790.12	3.45373e-07
1798.79	8.33311e-08
1807.47	3.9476e-07
1816.15	6.99076e-08
1824.83	-1.70304e-08
1833.51	-1.61118e-08
1842.18	1.32138e-07
1850.86	2.73313e-07
1859.54	4.80553e-07
1868.22	9.91251e-07
1876.9	1.06598e-06
1885.58	8.2842e-07
1894.25	8.12737e-07
1902.93	3.12256e-07
1911.61	2.98081e-07
1920.29	3.80558e-07
1928.97	4.72585e-07
1937.64	3.14792e-07
1946.32	1.33547e-07
1955	-3.20708e-08
1963.68	-8.22634e-08
1972.36	2.9588e-08
1981.04	2.40831e-07
1989.71	2.93005e-07
1998.39	2.89633e-07
2007.07	-3.74712e-08
2015.75	-8.53028e-08
2024.43	-7.28269e-08
2033.1	-7.42584e-08
2041.78	-1.00405e-07
2050.46	-4.17092e-08
2059.14	-6.15316e-08
2067.82	-4.05196e-08
2076.5	-1.06297e-08
2085.17	-1.89493e-08
2093.85	-3.83442e-08
2102.53	-5.46852e-08
2111.21	-2.60703e-08
2119.89	-5.57438e-08
2128.56	-1.21626e-07
2137.24	-2.59442e-07
2145.92	-3.0727e-07
2154.6	-2.75893e-07
2163.28	-3.60499e-07
2171.96	-3.92566e-07
2180.63	-3.0661e-07
2189.31	-3.21445e-07
2197.99	-1.01053e-07
2206.67	1.30157e-07
2215.35	4.30566e-07
2224.02	6.79328e-07
2232.7	5.65769e-07
2241.38	1.29684e-07
2250.06	-7.15919e-08
2258.74	-2.02806e-07
2267.42	-2.39525e-07
2276.09	-3.27196e-07
2284.77	-2.31828e-07
2293.45	-2.31942e-07
2302.13	-2.1558e-07
2310.81	-1.011e-07
2319.48	-1.03495e-09
2328.16	8.15686e-08
2336.84	2.43724e-07
2345.52	1.464e-07
2354.2	9.2964e-08
2362.88	-1.4734e-07
2371.55	-9.6127e-08
2380.23	-9.88809e-08
2388.91	8.43606e-09
2397.59	1.69929e-07
2406.27	4.60909e-07
2414.94	1.00937e-06
2423.62	1.48914e-06
2432.3	1.11606e-06
2440.98	5.47041e-07
2449.66	1.38855e-08
2458.34	3.12964e-07
2467.01	-6.09968e-08
2475.69	-7.68212e-08
2484.37	-4.91103e-08
2493.05	-8.24544e-08
2501.73	-1.1259e-07
2510.4	-6.96948e-08
2519.08	-4.95523e-08
2527.76	-1.00016e-07
2536.44	3.16307e-09
2545.12	-1.3459e-07
2553.8	-1.4993e-07
2562.47	-8.95317e-08
2571.15	-1.31456e-07
2579.83	-1.5459e-07
2588.51	-1.29291e-07
2597.19	-7.60809e-08
2605.86	1.0004e-10
2614.54	2.95189e-08
2623.22	2.38913e-08
2631.9	1.22779e-07
2640.58	7.73778e-08
2649.26	1.73412e-07
2657.93	1.52096e-07
2666.61	1.2862e-07
2675.29	3.68054e-08
2683.97	5.00343e-08
2692.65	2.83265e-07
2701.32	3.90201e-07
2710	4.89377e-07
2718.68	1.15498e-07
2727.36	-1.35435e-08
2736.04	-1.46361e-07
2744.72	-7.25923e-09
2753.39	3.09704e-08
2762.07	-3.85698e-08
2770.75	-1.41683e-07
2779.43	-1.07042e-07
2788.11	-1.13063e-07
2796.78	-2.12568e-07
2805.46	-1.22839e-07
2814.14	-1.23212e-07
2822.82	-8.81748e-08
2831.5	-1.0666e-08
2840.18	-2.62267e-08
2848.85	7.43857e-08
2857.53	1.34926e-08
2866.21	-1.86765e-08
2874.89	1.60469e-07
2883.57	7.50515e-08
2892.24	5.43196e-08
2900.92	2.36712e-08
2909.6	4.61328e-08
2918.28	2.64634e-07
2926.96	1.25644e-07
2935.63	4.0176e-07
2944.31	4.98009e-07
2952.99	4.34599e-07
2961.67	3.58523e-07
2970.35	2.90022e-07
2979.03	1.8709e-07
2987.7	5.01453e-07
2996.38	5.87259e-07
3005.06	9.2719e-07
3013.74	4.19215e-07
3022.42	2.29949e-07
3031.09	4.36161e-07
3039.77	9.17864e-07
3048.45	6.90533e-07
3057.13	5.17413e-07
3065.81	1.16764e-07
3074.49	5.19933e-08
3083.16	-6.48401e-08
3091.84	-3.39007e-08
3100.52	-9.14834e-08
3109.2	-1.71e-07
3117.88	-2.29442e-07
3126.55	-3.77498e-07
3135.23	-3.50951e-07
3143.91	-1.57309e-07
3152.59	-2.99198e-07
3161.27	7.77853e-08
3169.95	9.17539e-07
3178.62	2.12472e-06
3187.3	3.03358e-06
3195.98	2.88586e-06
3204.66	1.78907e-06
3213.34	2.55655e-07
3222.01	-3.53589e-07
3230.69	4.00795e-08
3239.37	5.49441e-07
3248.05	4.82962e-07
3256.73	-2.68961e-08
3265.41	-5.31981e-07
3274.08	-5.838e-07
3282.76	-2.96855e-07
3291.44	-1.35379e-07
3300.12	2.12177e-07
3308.8	1.64867e-07
3317.47	1.54456e-07
3326.15	1.11324e-07
3334.83	8.83076e-08
3343.51	2.78739e-07
3352.19	7.50806e-08
3360.87	2.0411e-07
3369.54	-1.78052e-08
3378.22	-1.77837e-07
3386.9	-3.73911e-08
3395.58	-5.99091e-08
3404.26	9.70019e-09
3412.93	7.3138e-09
3421.61	1.34821e-07
3430.29	1.17556e-08
3438.97	2.24216e-08
3447.65	-7.47713e-08
3456.33	-2.56283e-07
3465	-1.96623e-07
3473.68	-1.97842e-07
3482.36	-1.47154e-07
3491.04	-2.46588e-08
3499.72	1.59592e-07
3508.39	8.38858e-08
3517.07	2.73841e-07
3525.75	-5.83849e-08
3534.43	6.45237e-08
3543.11	-2.94316e-08
3551.79	-1.55159e-07
3560.46	-1.16997e-07
3569.14	-2.8946e-08
3577.82	-6.33359e-08
3586.5	-9.09614e-08
3595.18	-6.46201e-08
3603.85	-4.69258e-08
3612.53	-3.62161e-08
3621.21	-3.74548e-08
3629.89	-1.58335e-08
3638.57	1.17959e-07
3647.25	6.6559e-08
3655.92	1.53948e-07
3664.6	5.62422e-08
3673.28	-3.21854e-08
3681.96	-1.10624e-07
3690.64	-2.13181e-07
3699.31	-3.41753e-08
3707.99	-3.97593e-08
3716.67	-1.11131e-07
3725.35	8.43879e-08
3734.03	2.76218e-07
3742.71	3.21352e-07
3751.38	2.52547e-07
3760.06	-5.37267e-08
3768.74	-8.4768e-08
3777.42	-9.13579e-08
3786.1	-7.64811e-08
3794.77	-9.36915e-08
3803.45	-1.68761e-07
3812.13	-4.4945e-08
3820.81	-1.44734e-07
3829.49	-7.71468e-08
3838.17	-1.36223e-07
3846.84	-3.53776e-08
3855.52	-7.12245e-08
3864.2	-1.49455e-07
3872.88	-4.96578e-08
3881.56	-2.51899e-08
3890.23	-4.48122e-08
3898.91	-1.33525e-08
3907.59	9.19927e-08
3916.27	1.11177e-07
3924.95	1.80208e-07
3933.63	1.44624e-07
3942.3	1.60613e-07
3950.98	-1.18392e-08
3959.66	-5.72844e-08
3968.34	-1.22216e-07
