Infrared Spectrum: 1,1-Dichloroethene
Formula: C H2 C Cl2
CAS: 75-35-4
State: gas
Melting point: -122.1 C
Boiling point: 37 C
Class: IUPAC A
Instrument: IFS66V (Bruker)
Instrument parameters: KBr Beam Splitter; MCT Detector; Multipass cell
Sampling: 1 L/min Flow
Resolution: 0.1250
Temperature: 23 C
Pressure: 101.3 Pa
Origin: NIST, Analytical Chemistry Division, 301-975-3108
cm-1	(micromol/mol)-1m-1 (base 10)
575.05	3.82348e-06
583.608	1.97236e-05
592.165	5.81624e-05
600.723	5.92546e-05
609.281	8.58833e-05
617.838	3.59874e-05
626.396	1.0479e-05
634.954	7.83702e-07
643.511	4.46647e-07
652.069	-2.58858e-07
660.626	-3.97291e-07
669.184	-4.38429e-07
677.742	5.90613e-07
686.299	4.35777e-07
694.857	2.52143e-08
703.415	8.93032e-08
711.972	2.05432e-08
720.53	-8.92777e-08
729.088	4.48066e-07
737.645	-1.25369e-07
746.203	4.04727e-07
754.761	2.95673e-06
763.318	1.80929e-05
771.876	6.59394e-05
780.434	0.000279444
788.991	0.000390993
797.549	0.000284667
806.106	0.000306845
814.664	1.77453e-05
823.222	6.21184e-06
831.779	6.32287e-06
840.337	2.11849e-05
848.895	6.82932e-05
857.452	0.000114896
866.01	9.71088e-05
874.568	0.000159248
883.125	0.000126931
891.683	5.57e-05
900.241	1.40796e-05
908.798	8.01903e-06
917.356	7.25462e-06
925.914	4.09602e-06
934.471	2.48424e-06
943.029	1.27052e-06
951.586	9.41139e-07
960.144	6.71487e-07
968.702	7.80431e-07
977.259	9.7539e-07
985.817	4.01406e-07
994.375	5.04213e-08
1002.93	4.01832e-07
1011.49	1.12584e-06
1020.05	8.4177e-07
1028.61	7.36828e-07
1037.16	2.58782e-07
1045.72	7.27438e-07
1054.28	4.01526e-06
1062.84	2.7777e-05
1071.39	0.000134663
1079.95	0.000249695
1088.51	0.000409857
1097.07	0.000659105
1105.62	0.000271496
1114.18	2.31012e-05
1122.74	1.6017e-05
1131.3	6.38365e-05
1139.85	2.80552e-05
1148.41	6.25758e-05
1156.97	8.29557e-06
1165.53	9.04302e-07
1174.09	9.52799e-07
1182.64	6.56175e-07
1191.2	1.64433e-07
1199.76	1.86162e-07
1208.32	1.79938e-07
1216.87	2.57891e-08
1225.43	1.46342e-07
1233.99	9.64044e-09
1242.55	1.79705e-07
1251.1	4.7535e-07
1259.66	3.60778e-07
1268.22	-1.05623e-07
1276.78	7.31727e-08
1285.33	1.19294e-07
1293.89	8.93006e-07
1302.45	2.45815e-06
1311.01	5.96536e-06
1319.57	3.50957e-06
1328.12	4.66102e-06
1336.68	1.8825e-06
1345.24	7.138e-07
1353.8	1.56257e-06
1362.35	8.29547e-07
1370.91	2.53972e-06
1379.47	6.43514e-06
1388.03	9.56737e-06
1396.58	9.91545e-06
1405.14	9.23386e-06
1413.7	7.48105e-07
1422.26	-1.52948e-07
1430.81	2.28096e-09
1439.37	-1.32529e-08
1447.93	-3.47056e-09
1456.49	-1.93573e-07
1465.05	1.84201e-07
1473.6	1.05284e-07
1482.16	8.35262e-09
1490.72	5.78935e-08
1499.28	-1.52683e-08
1507.83	2.28286e-07
1516.39	5.60717e-07
1524.95	1.70005e-06
1533.51	6.66475e-06
1542.06	1.64289e-05
1550.62	3.33679e-05
1559.18	6.18423e-05
1567.74	6.18015e-05
1576.29	8.69764e-05
1584.85	3.85592e-05
1593.41	3.56884e-05
1601.97	8.1031e-05
1610.53	0.000212218
1619.08	0.000226773
1627.64	0.000339289
1636.2	0.00013089
1644.76	3.64996e-05
1653.31	4.08858e-06
1661.87	4.25114e-07
1670.43	2.41538e-07
1678.99	5.39835e-07
1687.54	7.09129e-07
1696.1	7.55399e-07
1704.66	4.32474e-07
1713.22	6.47866e-07
1721.77	1.67025e-06
1730.33	4.43943e-06
1738.89	8.49741e-06
1747.45	9.1872e-06
1756.01	5.694e-06
1764.56	2.12647e-06
1773.12	8.46761e-07
1781.68	3.70225e-07
1790.24	4.17733e-07
1798.79	1.3844e-07
1807.35	1.4493e-07
1815.91	-6.61006e-09
1824.47	-1.62942e-07
1833.02	-9.15732e-08
1841.58	4.70635e-08
1850.14	2.92614e-07
1858.7	4.67772e-07
1867.25	8.94494e-07
1875.81	1.0656e-06
1884.37	8.13958e-07
1892.93	8.95353e-07
1901.49	4.31873e-07
1910.04	3.39492e-07
1918.6	3.79953e-07
1927.16	4.76358e-07
1935.72	4.59419e-07
1944.27	2.08946e-07
1952.83	1.3485e-07
1961.39	8.21074e-09
1969.95	-7.96336e-09
1978.5	1.21051e-07
1987.06	2.92225e-07
1995.62	3.82747e-07
2004.18	1.23692e-07
2012.73	1.84187e-08
2021.29	-7.2889e-08
2029.85	-1.02432e-07
2038.41	-1.87374e-07
2046.97	-1.43559e-07
2055.52	8.34316e-08
2064.08	7.57775e-09
2072.64	1.72949e-07
2081.2	-3.97368e-08
2089.75	2.3348e-08
2098.31	-2.4669e-07
2106.87	-1.91361e-07
2115.43	-1.06008e-08
2123.98	-2.48472e-07
2132.54	-3.20641e-07
2141.1	-1.74448e-07
2149.66	-1.57299e-07
2158.21	-1.82823e-07
2166.77	-2.83894e-07
2175.33	-3.30692e-07
2183.89	-3.51545e-07
2192.45	-1.58209e-07
2201	-9.08566e-08
2209.56	5.42658e-07
2218.12	4.76929e-07
2226.68	5.68327e-07
2235.23	3.80255e-07
2243.79	2.81246e-08
2252.35	-1.10316e-07
2260.91	-1.91805e-07
2269.46	-1.95377e-07
2278.02	-3.03746e-07
2286.58	-9.09184e-08
2295.14	-2.19005e-07
2303.69	-5.01412e-08
2312.25	-2.05505e-08
2320.81	-6.91892e-08
2329.37	1.31641e-07
2337.93	1.69744e-07
2346.48	1.69712e-07
2355.04	-4.87733e-08
2363.6	-9.36432e-08
2372.16	-1.05561e-07
2380.71	-1.20309e-07
2389.27	-3.15733e-08
2397.83	2.78143e-07
2406.39	5.36939e-07
2414.94	1.05604e-06
2423.5	1.46153e-06
2432.06	1.13682e-06
2440.62	6.72419e-07
2449.17	4.81731e-08
2457.73	3.3946e-07
2466.29	-1.43872e-07
2474.85	-1.99612e-08
2483.41	2.27256e-07
2491.96	-5.3539e-08
2500.52	-6.0069e-08
2509.08	-2.40211e-08
2517.64	-1.23136e-07
2526.19	-4.37821e-08
2534.75	-5.18437e-08
2543.31	4.59903e-08
2551.87	-1.49703e-07
2560.42	-2.10845e-07
2568.98	-1.19028e-07
2577.54	-1.31899e-07
2586.1	-2.93015e-07
2594.65	6.36996e-09
2603.21	-2.56199e-07
2611.77	5.90431e-08
2620.33	-8.07505e-08
2628.89	1.77482e-07
2637.44	1.24602e-07
2646	1.07511e-07
2654.56	9.51311e-08
2663.12	7.17139e-08
2671.67	-6.03273e-08
2680.23	3.25192e-08
2688.79	2.28133e-08
2697.35	4.51936e-07
2705.9	2.70769e-07
2714.46	2.41044e-07
2723.02	1.77919e-07
2731.58	7.56465e-08
2740.13	-5.27496e-08
2748.69	1.29022e-07
2757.25	-2.05028e-07
2765.81	-8.53597e-08
2774.37	-1.74714e-07
2782.92	-1.35246e-07
2791.48	4.64414e-08
2800.04	-1.38415e-07
2808.6	-2.02198e-07
2817.15	9.71719e-08
2825.71	1.53156e-09
2834.27	-1.00952e-07
2842.83	-8.18637e-08
2851.38	-4.60849e-08
2859.94	-2.5931e-07
2868.5	2.09445e-07
2877.06	2.51284e-07
2885.61	4.22167e-07
2894.17	-9.8478e-08
2902.73	-1.08962e-07
2911.29	3.18364e-07
2919.85	2.6772e-07
2928.4	2.80217e-07
2936.96	2.13938e-07
2945.52	5.48821e-07
2954.08	3.64347e-07
2962.63	4.46236e-07
2971.19	3.12907e-07
2979.75	2.07622e-07
2988.31	4.76758e-07
2996.86	6.4477e-07
3005.42	1.08177e-06
3013.98	4.05782e-07
3022.54	1.83754e-07
3031.09	1.93271e-07
3039.65	9.9004e-07
3048.21	7.50437e-07
3056.77	6.00734e-07
3065.33	-7.78765e-08
3073.88	-1.39113e-07
3082.44	3.46801e-08
3091	1.01792e-07
3099.56	-2.3455e-07
3108.11	4.511e-10
3116.67	-1.11654e-07
3125.23	-3.48627e-07
3133.79	-5.76505e-07
3142.34	-4.39818e-07
3150.9	-4.93441e-07
3159.46	1.69908e-07
3168.02	5.52135e-07
3176.57	2.04432e-06
3185.13	2.677e-06
3193.69	2.42833e-06
3202.25	3.0384e-06
3210.81	1.21433e-07
3219.36	-3.07068e-07
3227.92	-2.94815e-08
3236.48	4.13356e-07
3245.04	6.69079e-07
3253.59	4.37381e-07
3262.15	-4.59365e-07
3270.71	-3.42967e-07
3279.27	-6.28444e-07
3287.82	-1.09566e-07
3296.38	2.75276e-07
3304.94	-2.14949e-07
3313.5	3.04609e-07
3322.05	-1.46062e-08
3330.61	-1.78112e-08
3339.17	9.91e-08
3347.73	1.50362e-07
3356.29	7.82621e-08
3364.84	4.18177e-08
3373.4	-1.38575e-07
3381.96	1.27257e-07
3390.52	-8.45739e-08
3399.07	1.47782e-07
3407.63	-2.76735e-08
3416.19	-5.76971e-08
3424.75	5.11598e-08
3433.3	1.08002e-07
3441.86	5.41865e-08
3450.42	6.18152e-08
3458.98	4.76529e-08
3467.53	5.83992e-08
3476.09	-8.52214e-08
3484.65	-1.96956e-07
3493.21	-2.58546e-08
3501.77	3.83333e-07
3510.32	1.44243e-08
3518.88	1.15136e-07
3527.44	-1.29509e-08
3536	8.12525e-08
3544.55	3.452e-08
3553.11	-6.25391e-08
3561.67	-6.52639e-09
3570.23	-3.99365e-07
3578.78	-2.01045e-07
3587.34	-2.10882e-07
3595.9	-1.02272e-07
3604.46	-1.11673e-07
3613.01	-1.66394e-07
3621.57	1.13619e-07
3630.13	-2.25695e-08
3638.69	4.54446e-08
3647.25	1.43297e-08
3655.8	2.19947e-08
3664.36	1.46851e-07
3672.92	4.61104e-08
3681.48	-3.48402e-07
3690.03	-3.56587e-08
3698.59	-7.86696e-08
3707.15	1.18828e-07
3715.71	-2.48698e-07
3724.26	6.47037e-08
3732.82	2.85932e-07
3741.38	1.65986e-07
3749.94	3.20772e-07
3758.49	-1.05743e-07
3767.05	3.69974e-09
3775.61	-1.6125e-07
3784.17	1.64106e-08
3792.73	1.86486e-07
3801.28	1.41009e-07
3809.84	-1.19625e-07
3818.4	3.13492e-07
3826.96	-2.45169e-07
3835.51	-2.46504e-08
3844.07	-6.48274e-08
3852.63	-3.3174e-07
3861.19	-5.50705e-08
3869.74	5.13089e-08
3878.3	-1.88305e-07
3886.86	-1.24678e-07
3895.42	2.70245e-07
3903.97	6.14445e-07
3912.53	-7.53045e-10
3921.09	1.89887e-07
3929.65	1.37112e-08
3938.21	4.86049e-07
3946.76	3.87618e-08
3955.32	-2.85106e-07
3963.88	5.27241e-08
3972.44	-1.54087e-07
