Infrared Spectrum: 1,1-Dichloroethene
Formula: C H2 C Cl2
CAS: 75-35-4
State: gas
Melting point: -122.1 C
Boiling point: 37 C
Class: IUPAC A
Instrument: IFS66V (Bruker)
Instrument parameters: KBr Beam Splitter; MCT Detector; Multipass cell
Sampling: 1 L/min Flow
Resolution: 1.9290
Temperature: 23 C
Pressure: 101.3 Pa
Origin: NIST, Analytical Chemistry Division, 301-975-3108
cm-1	(micromol/mol)-1m-1 (base 10)
575.652	6.4173e-06
584.33	2.28478e-05
593.008	6.21214e-05
601.687	5.36357e-05
610.365	8.20894e-05
619.043	2.99197e-05
627.721	8.30135e-06
636.399	1.2518e-06
645.077	-4.57446e-08
653.756	-7.59415e-08
662.434	-1.3837e-07
671.112	1.45535e-07
679.79	6.64645e-07
688.468	1.7104e-07
697.147	-2.39975e-07
705.825	-1.54454e-07
714.503	-1.56993e-07
723.181	4.89124e-08
731.859	-1.14259e-08
740.537	2.47579e-07
749.216	6.97866e-07
757.894	5.73871e-06
766.572	3.09206e-05
775.25	0.000130504
783.928	0.000403212
792.607	0.000485349
801.285	0.000458169
809.963	0.000105256
818.641	7.63255e-06
827.319	8.46712e-06
835.997	1.1986e-05
844.676	4.04725e-05
853.354	9.74033e-05
862.032	0.000205191
870.71	0.000158046
879.388	0.000135332
888.066	0.000102525
896.745	2.42854e-05
905.423	1.03935e-05
914.101	4.34116e-06
922.779	5.66677e-06
931.457	3.02737e-06
940.136	1.61657e-06
948.814	9.51333e-07
957.492	7.16401e-07
966.17	5.78398e-07
974.848	3.68373e-07
983.526	4.14152e-07
992.205	2.04264e-07
1000.88	3.10574e-07
1009.56	1.07439e-06
1018.24	1.29243e-06
1026.92	1.07308e-06
1035.6	2.29563e-07
1044.27	5.0369e-07
1052.95	3.54231e-06
1061.63	2.13574e-05
1070.31	0.000117078
1078.99	0.000274846
1087.66	0.000400558
1096.34	0.000402829
1105.02	0.000282737
1113.7	2.867e-05
1122.38	1.58583e-05
1131.06	6.29036e-05
1139.73	8.03358e-05
1148.41	6.16404e-05
1157.09	8.278e-06
1165.77	7.80536e-07
1174.45	9.23466e-07
1183.12	3.86878e-07
1191.8	1.43155e-07
1200.48	9.80849e-08
1209.16	4.26396e-08
1217.84	-1.34464e-07
1226.52	-2.54393e-08
1235.19	9.31227e-08
1243.87	3.25673e-07
1252.55	3.12259e-07
1261.23	2.98581e-07
1269.91	-1.0964e-07
1278.58	-3.82531e-08
1287.26	1.36685e-07
1295.94	1.16031e-06
1304.62	3.39819e-06
1313.3	5.90805e-06
1321.98	5.69356e-06
1330.65	3.65644e-06
1339.33	1.68471e-06
1348.01	1.19506e-06
1356.69	1.21433e-06
1365.37	1.44639e-06
1374.04	3.75689e-06
1382.72	8.71614e-06
1391.4	1.20173e-05
1400.08	9.97136e-06
1408.76	5.57148e-06
1417.44	2.59132e-08
1426.11	2.11138e-08
1434.79	1.00317e-08
1443.47	-1.22463e-08
1452.15	6.74933e-09
1460.83	8.60441e-08
1469.5	8.46099e-08
1478.18	9.18312e-08
1486.86	4.27706e-08
1495.54	2.87908e-08
1504.22	1.37236e-07
1512.9	3.04428e-07
1521.57	1.01538e-06
1530.25	4.07828e-06
1538.93	9.88178e-06
1547.61	2.36782e-05
1556.29	5.19943e-05
1564.96	6.83558e-05
1573.64	7.04963e-05
1582.32	5.10063e-05
1591	3.34128e-05
1599.68	6.34991e-05
1608.36	0.000171178
1617.03	0.000261643
1625.71	0.000278438
1634.39	0.000172924
1643.07	4.85199e-05
1651.75	6.96362e-06
1660.42	7.68984e-07
1669.1	2.75749e-07
1677.78	5.71252e-07
1686.46	5.97529e-07
1695.14	8.78702e-07
1703.82	4.83221e-07
1712.49	5.19676e-07
1721.17	1.6141e-06
1729.85	4.16627e-06
1738.53	8.45355e-06
1747.21	8.74828e-06
1755.88	5.59536e-06
1764.56	2.0151e-06
1773.24	9.85331e-07
1781.92	3.18617e-07
1790.6	3.1979e-07
1799.28	8.21979e-08
1807.95	5.69704e-07
1816.63	7.45163e-08
1825.31	-3.26425e-08
1833.99	1.27483e-08
1842.67	1.21317e-07
1851.34	3.2011e-07
1860.02	4.9653e-07
1868.7	1.02109e-06
1877.38	1.10553e-06
1886.06	9.47235e-07
1894.74	7.33677e-07
1903.41	3.31051e-07
1912.09	2.79598e-07
1920.77	4.08186e-07
1929.45	4.39539e-07
1938.13	3.02045e-07
1946.8	1.22236e-07
1955.48	-1.77232e-08
1964.16	-7.21498e-08
1972.84	2.79968e-08
1981.52	2.41372e-07
1990.2	2.97354e-07
1998.87	2.80876e-07
2007.55	-1.69738e-08
2016.23	-9.28926e-08
2024.91	-5.02275e-08
2033.59	-8.57631e-08
2042.26	-9.35511e-08
2050.94	-5.7528e-08
2059.62	-3.18103e-08
2068.3	-1.46473e-08
2076.98	-1.47065e-09
2085.66	-4.43549e-08
2094.33	2.69027e-09
2103.01	-7.58878e-08
2111.69	-4.20266e-08
2120.37	-8.09319e-08
2129.05	-1.2137e-07
2137.72	-2.45821e-07
2146.4	-2.58786e-07
2155.08	-3.19035e-07
2163.76	-3.5672e-07
2172.44	-3.20757e-07
2181.12	-2.69045e-07
2189.79	-2.81751e-07
2198.47	-7.87227e-08
2207.15	1.26955e-07
2215.83	4.91153e-07
2224.51	6.74378e-07
2233.18	5.74009e-07
2241.86	8.27336e-08
2250.54	-7.24318e-08
2259.22	-2.26735e-07
2267.9	-1.83424e-07
2276.58	-3.79975e-07
2285.25	-1.99709e-07
2293.93	-2.56005e-07
2302.61	-1.81079e-07
2311.29	-1.13081e-07
2319.97	2.01416e-08
2328.64	7.06383e-08
2337.32	1.96655e-07
2346	1.48517e-07
2354.68	6.90785e-08
2363.36	-1.50693e-07
2372.04	-5.87849e-08
2380.71	-1.20085e-07
2389.39	4.31407e-08
2398.07	1.52653e-07
2406.75	4.8442e-07
2415.43	1.02779e-06
2424.1	1.38591e-06
2432.78	1.17167e-06
2441.46	5.01025e-07
2450.14	2.17968e-08
2458.82	1.6574e-07
2467.5	-3.60058e-08
2476.17	-3.61249e-08
2484.85	-6.74023e-08
2493.53	-6.93586e-08
2502.21	-1.03396e-07
2510.89	-2.7412e-08
2519.56	-7.25064e-08
2528.24	-5.54771e-08
2536.92	-9.78211e-08
2545.6	-1.36617e-07
2554.28	-1.82715e-07
2562.96	-1.06905e-07
2571.63	-1.4998e-07
2580.31	-9.18694e-08
2588.99	-1.53958e-07
2597.67	-4.28888e-08
2606.35	-5.63784e-08
2615.02	6.95551e-08
2623.7	1.47547e-08
2632.38	1.69341e-07
2641.06	1.05098e-07
2649.74	1.62484e-07
2658.42	9.99357e-08
2667.09	1.1233e-07
2675.77	-3.28872e-09
2684.45	6.4793e-08
2693.13	2.62776e-07
2701.81	3.73217e-07
2710.48	4.41408e-07
2719.16	9.7239e-08
2727.84	-6.22273e-09
2736.52	-1.02445e-07
2745.2	-2.86462e-08
2753.88	-1.72612e-08
2762.55	-2.25071e-08
2771.23	-8.19232e-08
2779.91	-1.14278e-07
2788.59	-5.26713e-08
2797.27	-1.96461e-07
2805.94	-9.40704e-08
2814.62	-1.40893e-07
2823.3	-3.54064e-08
2831.98	-2.89327e-08
2840.66	-2.92819e-08
2849.34	-2.73174e-08
2858.01	-1.46191e-08
2866.69	-3.4064e-08
2875.37	1.65556e-07
2884.05	4.21367e-08
2892.73	4.96991e-08
2901.4	1.10749e-08
2910.08	8.3714e-08
2918.76	2.19447e-07
2927.44	1.61758e-07
2936.12	3.04284e-07
2944.8	4.26541e-07
2953.47	3.69317e-07
2962.15	4.4589e-07
2970.83	2.36429e-07
2979.51	1.7409e-07
2988.19	4.92706e-07
2996.86	5.65712e-07
3005.54	8.7282e-07
3014.22	4.17711e-07
3022.9	1.96164e-07
3031.58	5.02918e-07
3040.26	8.94894e-07
3048.93	8.18989e-07
3057.61	4.64824e-07
3066.29	1.04873e-07
3074.97	-5.75989e-08
3083.65	-6.37489e-08
3092.32	-2.59477e-09
3101	-1.32931e-08
3109.68	-1.59939e-07
3118.36	-2.50007e-07
3127.04	-4.01353e-07
3135.72	-3.26228e-07
3144.39	-1.93349e-07
3153.07	-2.16578e-07
3161.75	1.06477e-07
3170.43	9.89906e-07
3179.11	2.22909e-06
3187.78	3.00411e-06
3196.46	3.08105e-06
3205.14	1.59308e-06
3213.82	1.73396e-07
3222.5	-3.10418e-07
3231.18	2.21534e-08
3239.85	5.81016e-07
3248.53	4.85296e-07
3257.21	-5.97771e-08
3265.89	-5.93402e-07
3274.57	-5.382e-07
3283.24	-3.72246e-07
3291.92	-1.28305e-07
3300.6	1.28471e-07
3309.28	1.4208e-07
3317.96	1.51889e-07
3326.64	1.39539e-07
3335.31	4.43013e-09
3343.99	2.35526e-07
3352.67	6.36025e-08
3361.35	2.64843e-07
3370.03	4.08816e-09
3378.7	-1.49889e-07
3387.38	-1.26546e-07
3396.06	-4.52262e-08
3404.74	-3.10782e-08
3413.42	3.0829e-08
3422.1	9.82568e-08
3430.77	6.61427e-08
3439.45	-1.64127e-08
3448.13	-1.06014e-07
3456.81	-2.06391e-07
3465.49	-1.75928e-07
3474.16	-2.1281e-07
3482.84	-1.31413e-07
3491.52	-4.43431e-08
3500.2	1.57095e-07
3508.88	5.01293e-08
3517.56	2.55589e-07
3526.23	-1.00343e-07
3534.91	-1.80288e-08
3543.59	-6.01518e-08
3552.27	-8.33839e-08
3560.95	-1.28718e-07
3569.62	-7.06565e-08
3578.3	-1.04068e-07
3586.98	-5.93188e-08
3595.66	-8.285e-08
3604.34	-6.02701e-08
3613.02	-1.02388e-07
3621.69	3.60522e-08
3630.37	-5.31142e-10
3639.05	1.52838e-07
3647.73	6.90976e-08
3656.41	1.88113e-07
3665.08	3.38057e-08
3673.76	2.40506e-08
3682.44	-1.41042e-07
3691.12	-1.51493e-07
3699.8	-8.1895e-08
3708.48	-3.15466e-08
3717.15	-1.16675e-07
3725.83	1.26682e-07
3734.51	1.94751e-07
3743.19	3.34677e-07
3751.87	1.28275e-07
3760.54	-2.62115e-08
3769.22	-1.22933e-07
3777.9	-9.35047e-09
3786.58	-1.13683e-07
3795.26	-8.501e-08
3803.94	-1.17376e-07
3812.61	-5.88367e-08
3821.29	-1.77728e-07
3829.97	-7.19334e-08
3838.65	-1.12727e-07
3847.33	-3.15775e-09
3856	-1.12003e-07
3864.68	-1.23899e-07
3873.36	-1.10578e-07
3882.04	4.05178e-09
3890.72	-5.06058e-08
3899.4	-8.24635e-09
3908.07	-3.03952e-09
3916.75	8.80805e-08
3925.43	1.4483e-07
3934.11	1.87792e-07
3942.79	1.16192e-07
3951.46	5.12952e-09
3960.14	-1.36049e-07
3968.82	-7.47373e-08
