Infrared Spectrum: 1,1-Dichloroethene
Formula: C H2 C Cl2
CAS: 75-35-4
State: gas
Melting point: -122.1 C
Boiling point: 37 C
Class: IUPAC A
Instrument: IFS66V (Bruker)
Instrument parameters: KBr Beam Splitter; MCT Detector; Multipass cell
Sampling: 1 L/min Flow
Resolution: 0.2410
Temperature: 23 C
Pressure: 101.3 Pa
Origin: NIST, Analytical Chemistry Division, 301-975-3108
cm-1	(micromol/mol)-1m-1 (base 10)
575.05	5.00359e-06
583.608	2.01473e-05
592.165	5.7845e-05
600.723	5.84906e-05
609.281	8.51556e-05
617.838	3.60575e-05
626.396	1.05772e-05
634.954	1.29937e-06
643.511	4.45632e-07
652.069	-2.30235e-07
660.626	-3.14929e-07
669.184	-1.30561e-07
677.742	5.24494e-07
686.299	3.44673e-07
694.857	-1.13139e-09
703.415	-5.58781e-08
711.972	-5.72605e-09
720.53	-4.38476e-08
729.088	3.67264e-07
737.645	2.19147e-08
746.203	5.2042e-07
754.761	3.04636e-06
763.318	1.82837e-05
771.876	6.6385e-05
780.434	0.000278746
788.991	0.000391585
797.549	0.000288266
806.106	0.00030588
814.664	1.8583e-05
823.222	6.54371e-06
831.779	6.77193e-06
840.337	2.13903e-05
848.895	6.8222e-05
857.452	0.000115064
866.01	9.98639e-05
874.568	0.000163659
883.125	0.000126909
891.683	5.58383e-05
900.241	1.42614e-05
908.798	8.06103e-06
917.356	7.22072e-06
925.914	4.1764e-06
934.471	2.63545e-06
943.029	1.33395e-06
951.586	1.01131e-06
960.144	6.36451e-07
968.702	6.90321e-07
977.259	1.02834e-06
985.817	3.21849e-07
994.375	1.81113e-07
1002.93	4.77405e-07
1011.49	1.19153e-06
1020.05	8.12081e-07
1028.61	9.1117e-07
1037.16	3.24512e-07
1045.72	9.40281e-07
1054.28	4.37021e-06
1062.84	2.82372e-05
1071.39	0.000135088
1079.95	0.0002499
1088.51	0.000410113
1097.07	0.000628162
1105.62	0.000270458
1114.18	2.38864e-05
1122.74	1.64222e-05
1131.3	6.34582e-05
1139.85	3.38954e-05
1148.41	6.22327e-05
1156.97	8.5131e-06
1165.53	1.02497e-06
1174.09	9.57895e-07
1182.64	6.05099e-07
1191.2	1.51071e-07
1199.76	1.85184e-07
1208.32	1.69239e-07
1216.87	-3.97768e-08
1225.43	7.70325e-08
1233.99	8.59054e-08
1242.55	3.13551e-07
1251.1	5.52353e-07
1259.66	3.567e-07
1268.22	-2.15036e-08
1276.78	1.4377e-08
1285.33	1.36076e-07
1293.89	8.37994e-07
1302.45	2.46683e-06
1311.01	5.94964e-06
1319.57	3.47262e-06
1328.12	4.65252e-06
1336.68	1.98792e-06
1345.24	6.35876e-07
1353.8	1.1551e-06
1362.35	9.84005e-07
1370.91	2.65566e-06
1379.47	6.45168e-06
1388.03	9.62043e-06
1396.58	1.03186e-05
1405.14	9.11883e-06
1413.7	6.90033e-07
1422.26	-1.09173e-07
1430.81	-2.27769e-08
1439.37	-5.09306e-08
1447.93	-4.6998e-08
1456.49	-1.48805e-07
1465.05	1.3613e-07
1473.6	1.19385e-07
1482.16	8.34643e-08
1490.72	3.89474e-08
1499.28	5.76571e-08
1507.83	2.34383e-07
1516.39	5.78044e-07
1524.95	1.76437e-06
1533.51	6.67215e-06
1542.06	1.64008e-05
1550.62	3.34049e-05
1559.18	6.17475e-05
1567.74	6.14844e-05
1576.29	8.64406e-05
1584.85	3.86384e-05
1593.41	3.59681e-05
1601.97	8.13224e-05
1610.53	0.000211386
1619.08	0.000225733
1627.64	0.000337064
1636.2	0.000130956
1644.76	3.6687e-05
1653.31	4.28944e-06
1661.87	5.82613e-07
1670.43	3.15209e-07
1678.99	6.2267e-07
1687.54	6.86646e-07
1696.1	6.62265e-07
1704.66	4.42394e-07
1713.22	6.43872e-07
1721.77	1.71977e-06
1730.33	4.44886e-06
1738.89	8.45631e-06
1747.45	9.10552e-06
1756.01	5.6133e-06
1764.56	2.0981e-06
1773.12	8.7812e-07
1781.68	3.56329e-07
1790.24	3.95542e-07
1798.79	1.41492e-07
1807.35	2.19213e-07
1815.91	3.66737e-08
1824.47	-3.45564e-08
1833.02	-4.23997e-08
1841.58	7.24633e-08
1850.14	2.85193e-07
1858.7	4.54905e-07
1867.25	9.21524e-07
1875.81	1.06206e-06
1884.37	7.82123e-07
1892.93	9.04538e-07
1901.49	3.7151e-07
1910.04	3.02859e-07
1918.6	4.06386e-07
1927.16	4.4047e-07
1935.72	4.46425e-07
1944.27	1.6392e-07
1952.83	7.04552e-08
1961.39	-1.96628e-08
1969.95	-5.05777e-08
1978.5	1.60501e-07
1987.06	2.9479e-07
1995.62	2.63802e-07
2004.18	9.23044e-08
2012.73	1.98993e-09
2021.29	-9.45781e-08
2029.85	-6.88182e-08
2038.41	-1.04146e-07
2046.97	-5.63547e-08
2055.52	4.95045e-08
2064.08	-3.75795e-08
2072.64	1.33827e-07
2081.2	-1.02189e-08
2089.75	-6.81742e-09
2098.31	-1.83332e-07
2106.87	-1.22372e-07
2115.43	-2.08706e-08
2123.98	-1.83285e-07
2132.54	-2.0385e-07
2141.1	-1.89364e-07
2149.66	-2.09376e-07
2158.21	-2.11016e-07
2166.77	-2.86663e-07
2175.33	-3.13667e-07
2183.89	-3.64423e-07
2192.45	-1.72695e-07
2201	-5.97016e-08
2209.56	5.49247e-07
2218.12	5.34309e-07
2226.68	5.51902e-07
2235.23	3.92391e-07
2243.79	-2.07397e-08
2252.35	-1.02589e-07
2260.91	-2.07975e-07
2269.46	-1.98153e-07
2278.02	-3.53025e-07
2286.58	-1.64295e-07
2295.14	-2.14196e-07
2303.69	-1.48597e-07
2312.25	-4.05117e-08
2320.81	-4.81331e-08
2329.37	1.25118e-07
2337.93	1.73444e-07
2346.48	1.77017e-07
2355.04	-3.58078e-08
2363.6	-8.21656e-08
2372.16	-7.38057e-08
2380.71	-1.13386e-07
2389.27	8.91286e-09
2397.83	2.62154e-07
2406.39	5.0716e-07
2414.94	1.04807e-06
2423.5	1.50296e-06
2432.06	1.12863e-06
2440.62	6.49445e-07
2449.17	4.83368e-08
2457.73	3.79637e-07
2466.29	-9.94274e-08
2474.85	-4.36548e-10
2483.41	1.42227e-07
2491.96	-4.45461e-08
2500.52	-5.10543e-08
2509.08	-3.76122e-08
2517.64	-8.78153e-08
2526.19	3.15042e-09
2534.75	-7.98374e-08
2543.31	-1.40023e-08
2551.87	-1.56124e-07
2560.42	-2.15953e-07
2568.98	-1.37163e-07
2577.54	-1.22946e-07
2586.1	-2.58142e-07
2594.65	-6.78286e-08
2603.21	-2.01172e-07
2611.77	7.14083e-08
2620.33	1.282e-08
2628.89	1.34868e-07
2637.44	1.98276e-07
2646	1.3485e-07
2654.56	9.37232e-08
2663.12	1.89698e-07
2671.67	-1.65415e-08
2680.23	3.72084e-08
2688.79	8.87902e-08
2697.35	3.58759e-07
2705.9	2.27783e-07
2714.46	2.29748e-07
2723.02	1.4775e-07
2731.58	2.78408e-08
2740.13	2.47887e-08
2748.69	9.45345e-08
2757.25	-1.70599e-07
2765.81	-8.37481e-08
2774.37	-1.70268e-07
2782.92	-7.49335e-08
2791.48	-2.24386e-08
2800.04	-1.14376e-07
2808.6	-1.22339e-07
2817.15	3.6932e-08
2825.71	2.15109e-08
2834.27	-3.12095e-08
2842.83	-8.59818e-08
2851.38	-5.54998e-08
2859.94	-1.21677e-07
2868.5	2.14356e-07
2877.06	1.40667e-07
2885.61	2.45642e-07
2894.17	-4.82167e-08
2902.73	1.45589e-08
2911.29	3.37404e-07
2919.85	2.29755e-07
2928.4	1.55291e-07
2936.96	2.46446e-07
2945.52	4.62472e-07
2954.08	3.59701e-07
2962.63	5.04388e-07
2971.19	2.78347e-07
2979.75	1.01468e-07
2988.31	5.00106e-07
2996.86	5.64839e-07
3005.42	1.04183e-06
3013.98	4.43384e-07
3022.54	1.62007e-07
3031.09	3.53273e-07
3039.65	9.26879e-07
3048.21	7.04687e-07
3056.77	5.68942e-07
3065.33	1.97793e-08
3073.88	-1.00217e-07
3082.44	-3.66518e-08
3091	1.0678e-07
3099.56	-6.9644e-08
3108.11	-1.33918e-07
3116.67	-2.33499e-07
3125.23	-3.37193e-07
3133.79	-5.03798e-07
3142.34	-3.73158e-07
3150.9	-4.62101e-07
3159.46	8.40937e-08
3168.02	5.74945e-07
3176.57	1.98007e-06
3185.13	2.81646e-06
3193.69	2.44949e-06
3202.25	2.874e-06
3210.81	2.25699e-07
3219.36	-2.50258e-07
3227.92	-6.48347e-08
3236.48	3.66526e-07
3245.04	6.53025e-07
3253.59	4.23481e-07
3262.15	-5.55922e-07
3270.71	-4.51067e-07
3279.27	-4.67714e-07
3287.82	-2.04497e-07
3296.38	2.06742e-07
3304.94	-6.95566e-09
3313.5	2.96136e-07
3322.05	-1.3668e-07
3330.61	-4.13411e-08
3339.17	7.66142e-08
3347.73	1.67627e-07
3356.29	1.56572e-07
3364.84	-3.67683e-08
3373.4	-1.62239e-07
3381.96	8.25803e-09
3390.52	-5.59727e-08
3399.07	8.81609e-08
3407.63	2.16819e-08
3416.19	6.62825e-08
3424.75	8.94378e-08
3433.3	1.41758e-07
3441.86	3.14969e-08
3450.42	7.60321e-10
3458.98	1.04124e-07
3467.53	-4.42769e-08
3476.09	-9.472e-08
3484.65	-1.43748e-07
3493.21	-4.22906e-08
3501.77	3.22704e-07
3510.32	-4.31819e-09
3518.88	1.91928e-07
3527.44	-1.02341e-07
3536	1.45843e-08
3544.55	-2.9296e-08
3553.11	-5.16764e-08
3561.67	-5.42156e-08
3570.23	-2.92149e-07
3578.78	-1.42678e-07
3587.34	-1.49601e-07
3595.9	-8.94705e-08
3604.46	-8.79171e-08
3613.01	-1.08711e-07
3621.57	5.13963e-08
3630.13	4.65542e-08
3638.69	1.02752e-07
3647.25	7.9499e-08
3655.8	1.05845e-07
3664.36	9.01872e-08
3672.92	4.44733e-08
3681.48	-2.41171e-07
3690.03	-1.22277e-07
3698.59	-7.23506e-08
3707.15	-8.76734e-10
3715.71	-1.72557e-07
3724.26	1.17904e-07
3732.82	3.08949e-07
3741.38	1.77049e-07
3749.94	3.64703e-07
3758.49	-8.81172e-08
3767.05	-3.63208e-08
3775.61	-7.61522e-08
3784.17	7.30272e-08
3792.73	1.02662e-07
3801.28	3.15188e-08
3809.84	-5.95415e-08
3818.4	1.05001e-07
3826.96	-2.30279e-07
3835.51	-3.44764e-08
3844.07	-2.85575e-08
3852.63	-1.87843e-07
3861.19	-6.22954e-08
3869.74	-1.83969e-08
3878.3	-1.16311e-07
3886.86	-9.93147e-08
3895.42	1.27927e-07
3903.97	4.17158e-07
3912.53	-9.56768e-09
3921.09	2.2714e-07
3929.65	1.2972e-07
3938.21	3.61629e-07
3946.76	5.89849e-08
3955.32	-1.50991e-07
3963.88	6.2681e-09
3972.44	-1.52806e-07
