Infrared Spectrum: 1,1-Dichloroethene
Formula: C H2 C Cl2
CAS: 75-35-4
State: gas
Melting point: -122.1 C
Boiling point: 37 C
Class: IUPAC A
Instrument: IFS66V (Bruker)
Instrument parameters: KBr Beam Splitter; MCT Detector; Multipass cell
Sampling: 1 L/min Flow
Resolution: 0.2410
Temperature: 23 C
Pressure: 101.3 Pa
Origin: NIST, Analytical Chemistry Division, 301-975-3108
cm-1	(micromol/mol)-1m-1 (base 10)
575.05	5.42505e-06
583.608	2.03868e-05
592.165	5.79817e-05
600.723	5.82708e-05
609.281	8.56666e-05
617.838	3.60613e-05
626.396	1.05047e-05
634.954	1.31872e-06
643.511	4.7209e-07
652.069	-3.06362e-07
660.626	-3.3262e-07
669.184	-1.81404e-07
677.742	4.86824e-07
686.299	3.21703e-07
694.857	-4.08209e-08
703.415	-9.40906e-08
711.972	-1.20043e-07
720.53	-6.78105e-08
729.088	2.86859e-07
737.645	-4.56556e-09
746.203	4.19624e-07
754.761	2.88845e-06
763.318	1.7999e-05
771.876	6.58517e-05
780.434	0.000279478
788.991	0.000390319
797.549	0.000284688
806.106	0.000306433
814.664	1.78089e-05
823.222	6.34069e-06
831.779	6.5615e-06
840.337	2.10954e-05
848.895	6.81259e-05
857.452	0.000114908
866.01	9.67688e-05
874.568	0.000169023
883.125	0.000127071
891.683	5.57097e-05
900.241	1.4075e-05
908.798	7.96285e-06
917.356	7.1717e-06
925.914	4.1536e-06
934.471	2.50364e-06
943.029	1.28591e-06
951.586	9.9012e-07
960.144	5.66996e-07
968.702	6.53676e-07
977.259	1.03436e-06
985.817	2.72893e-07
994.375	1.6667e-07
1002.93	4.51045e-07
1011.49	1.14695e-06
1020.05	7.35747e-07
1028.61	8.77774e-07
1037.16	2.59651e-07
1045.72	8.45543e-07
1054.28	4.21848e-06
1062.84	2.78959e-05
1071.39	0.000134962
1079.95	0.000248956
1088.51	0.00041149
1097.07	0.000649947
1105.62	0.000271594
1114.18	2.31408e-05
1122.74	1.60541e-05
1131.3	6.35801e-05
1139.85	3.12347e-05
1148.41	6.25335e-05
1156.97	8.36955e-06
1165.53	9.35602e-07
1174.09	9.19799e-07
1182.64	5.58741e-07
1191.2	1.1634e-07
1199.76	1.55306e-07
1208.32	1.58547e-07
1216.87	-5.12034e-08
1225.43	2.63457e-08
1233.99	9.02563e-08
1242.55	3.2262e-07
1251.1	5.85698e-07
1259.66	3.37917e-07
1268.22	-1.8124e-08
1276.78	-8.67275e-09
1285.33	1.21466e-07
1293.89	8.05271e-07
1302.45	2.47829e-06
1311.01	5.96396e-06
1319.57	3.44574e-06
1328.12	4.65582e-06
1336.68	1.99678e-06
1345.24	5.79401e-07
1353.8	9.98302e-07
1362.35	1.00409e-06
1370.91	2.67162e-06
1379.47	6.44252e-06
1388.03	9.56971e-06
1396.58	1.03329e-05
1405.14	9.11068e-06
1413.7	6.19036e-07
1422.26	-1.31812e-07
1430.81	-4.35966e-08
1439.37	-7.34674e-08
1447.93	-6.77704e-08
1456.49	-1.41096e-07
1465.05	1.11192e-07
1473.6	8.9707e-08
1482.16	7.75673e-08
1490.72	1.7913e-08
1499.28	5.69222e-08
1507.83	2.13632e-07
1516.39	5.63991e-07
1524.95	1.7103e-06
1533.51	6.63319e-06
1542.06	1.64434e-05
1550.62	3.3378e-05
1559.18	6.18523e-05
1567.74	6.13452e-05
1576.29	8.68679e-05
1584.85	3.84169e-05
1593.41	3.57511e-05
1601.97	8.1134e-05
1610.53	0.000211738
1619.08	0.000225829
1627.64	0.000339139
1636.2	0.00013083
1644.76	3.64501e-05
1653.31	4.09347e-06
1661.87	4.97719e-07
1670.43	2.73985e-07
1678.99	6.0085e-07
1687.54	6.31925e-07
1696.1	5.77513e-07
1704.66	4.19053e-07
1713.22	6.20255e-07
1721.77	1.70481e-06
1730.33	4.44491e-06
1738.89	8.50476e-06
1747.45	9.1466e-06
1756.01	5.59822e-06
1764.56	2.0794e-06
1773.12	8.70397e-07
1781.68	3.44946e-07
1790.24	3.9887e-07
1798.79	1.17319e-07
1807.35	2.31836e-07
1815.91	4.68889e-08
1824.47	-1.728e-08
1833.02	-3.89474e-08
1841.58	6.75958e-08
1850.14	2.77241e-07
1858.7	4.40608e-07
1867.25	9.30869e-07
1875.81	1.06068e-06
1884.37	7.68485e-07
1892.93	9.14426e-07
1901.49	3.68225e-07
1910.04	2.9614e-07
1918.6	4.07609e-07
1927.16	4.35027e-07
1935.72	4.5027e-07
1944.27	1.57779e-07
1952.83	5.44521e-08
1961.39	-1.8004e-08
1969.95	-6.99204e-08
1978.5	1.60602e-07
1987.06	2.83407e-07
1995.62	2.39934e-07
2004.18	8.86265e-08
2012.73	4.52919e-09
2021.29	-9.54258e-08
2029.85	-7.41513e-08
2038.41	-9.06965e-08
2046.97	-4.62777e-08
2055.52	2.52725e-08
2064.08	-4.65651e-08
2072.64	1.18137e-07
2081.2	-1.6858e-08
2089.75	-3.89073e-08
2098.31	-1.78537e-07
2106.87	-1.24234e-07
2115.43	-2.0103e-08
2123.98	-1.71491e-07
2132.54	-1.70781e-07
2141.1	-1.86872e-07
2149.66	-2.25175e-07
2158.21	-2.11009e-07
2166.77	-2.80446e-07
2175.33	-3.15919e-07
2183.89	-3.69043e-07
2192.45	-1.69643e-07
2201	-5.84065e-08
2209.56	5.65228e-07
2218.12	5.3834e-07
2226.68	5.49807e-07
2235.23	4.0687e-07
2243.79	-2.58036e-08
2252.35	-1.00421e-07
2260.91	-1.95523e-07
2269.46	-2.03362e-07
2278.02	-3.68963e-07
2286.58	-1.75707e-07
2295.14	-2.0465e-07
2303.69	-1.64953e-07
2312.25	-4.09773e-08
2320.81	-3.90274e-08
2329.37	1.26908e-07
2337.93	1.71705e-07
2346.48	1.72506e-07
2355.04	-2.00448e-08
2363.6	-8.55598e-08
2372.16	-6.94111e-08
2380.71	-1.23765e-07
2389.27	2.15727e-08
2397.83	2.76098e-07
2406.39	5.07713e-07
2414.94	1.04432e-06
2423.5	1.53116e-06
2432.06	1.10862e-06
2440.62	6.39903e-07
2449.17	7.23396e-08
2457.73	4.388e-07
2466.29	-9.56404e-08
2474.85	5.03122e-09
2483.41	1.17973e-07
2491.96	-3.45782e-08
2500.52	-3.89546e-08
2509.08	-4.30218e-08
2517.64	-8.49122e-08
2526.19	1.10265e-08
2534.75	-9.26209e-08
2543.31	-4.03298e-08
2551.87	-1.69861e-07
2560.42	-2.1859e-07
2568.98	-1.67052e-07
2577.54	-1.16573e-07
2586.1	-2.71569e-07
2594.65	-8.68512e-08
2603.21	-2.08943e-07
2611.77	6.74394e-08
2620.33	1.63414e-08
2628.89	1.25428e-07
2637.44	2.22941e-07
2646	1.44257e-07
2654.56	8.64438e-08
2663.12	2.04377e-07
2671.67	-2.60546e-08
2680.23	4.34838e-08
2688.79	1.19814e-07
2697.35	3.2489e-07
2705.9	2.16342e-07
2714.46	2.29279e-07
2723.02	1.31594e-07
2731.58	-2.9467e-09
2740.13	4.59467e-08
2748.69	8.00302e-08
2757.25	-1.6042e-07
2765.81	-9.10967e-08
2774.37	-1.8737e-07
2782.92	-7.81785e-08
2791.48	-3.44291e-08
2800.04	-1.21499e-07
2808.6	-1.07242e-07
2817.15	1.73091e-08
2825.71	2.06305e-08
2834.27	-1.16558e-08
2842.83	-8.16599e-08
2851.38	-6.04073e-08
2859.94	-8.82482e-08
2868.5	2.291e-07
2877.06	1.01494e-07
2885.61	2.32134e-07
2894.17	-2.56872e-08
2902.73	3.53786e-08
2911.29	3.479e-07
2919.85	2.16262e-07
2928.4	1.10461e-07
2936.96	2.84276e-07
2945.52	4.36926e-07
2954.08	3.37794e-07
2962.63	5.14694e-07
2971.19	2.94117e-07
2979.75	7.48389e-08
2988.31	4.90778e-07
2996.86	5.48101e-07
3005.42	1.03385e-06
3013.98	4.4676e-07
3022.54	1.55444e-07
3031.09	3.83653e-07
3039.65	9.16085e-07
3048.21	6.76118e-07
3056.77	5.4491e-07
3065.33	4.35566e-08
3073.88	-9.26355e-08
3082.44	-8.74224e-08
3091	1.07795e-07
3099.56	-3.89073e-08
3108.11	-1.52814e-07
3116.67	-2.61161e-07
3125.23	-3.33061e-07
3133.79	-5.01052e-07
3142.34	-3.62208e-07
3150.9	-4.62046e-07
3159.46	8.35371e-08
3168.02	5.80536e-07
3176.57	1.98837e-06
3185.13	2.8449e-06
3193.69	2.43067e-06
3202.25	2.84323e-06
3210.81	2.23651e-07
3219.36	-2.31912e-07
3227.92	-8.26749e-08
3236.48	3.48074e-07
3245.04	6.80062e-07
3253.59	4.19988e-07
3262.15	-5.6967e-07
3270.71	-4.62195e-07
3279.27	-4.57073e-07
3287.82	-2.05287e-07
3296.38	1.90226e-07
3304.94	2.75862e-08
3313.5	2.94815e-07
3322.05	-1.75481e-07
3330.61	-6.32813e-08
3339.17	8.31005e-08
3347.73	1.98411e-07
3356.29	1.89436e-07
3364.84	-8.0474e-08
3373.4	-1.56564e-07
3381.96	-1.5814e-08
3390.52	-3.58224e-08
3399.07	9.65135e-08
3407.63	7.30017e-08
3416.19	8.00956e-08
3424.75	1.12662e-07
3433.3	1.37454e-07
3441.86	2.81828e-08
3450.42	2.52834e-09
3458.98	1.53618e-07
3467.53	-3.37925e-08
3476.09	-7.64177e-08
3484.65	-1.06514e-07
3493.21	-9.38833e-08
3501.77	3.11484e-07
3510.32	-9.57859e-09
3518.88	1.68638e-07
3527.44	-1.1359e-07
3536	2.12235e-08
3544.55	-5.84792e-08
3553.11	-1.56211e-08
3561.67	-7.29799e-08
3570.23	-3.07002e-07
3578.78	-1.44315e-07
3587.34	-1.47695e-07
3595.9	-7.54282e-08
3604.46	-7.94008e-08
3613.01	-1.20924e-07
3621.57	5.0927e-08
3630.13	7.1361e-08
3638.69	1.07398e-07
3647.25	4.79184e-08
3655.8	1.08617e-07
3664.36	9.12713e-08
3672.92	5.76789e-08
3681.48	-2.22625e-07
3690.03	-1.50296e-07
3698.59	-9.5011e-08
3707.15	-1.04008e-08
3715.71	-1.53519e-07
3724.26	1.33067e-07
3732.82	3.3429e-07
3741.38	1.91674e-07
3749.94	3.91031e-07
3758.49	-9.14313e-08
3767.05	-3.58661e-08
3775.61	-9.21335e-08
3784.17	8.69967e-08
3792.73	8.32024e-08
3801.28	-1.18814e-08
3809.84	-7.1412e-08
3818.4	6.56859e-08
3826.96	-2.58622e-07
3835.51	-5.40628e-08
3844.07	-1.51046e-08
3852.63	-1.49103e-07
3861.19	-6.98913e-08
3869.74	-2.35991e-08
3878.3	-1.54345e-07
3886.86	-1.09323e-07
3895.42	1.10276e-07
3903.97	4.08791e-07
3912.53	-2.11326e-08
3921.09	2.29217e-07
3929.65	1.47866e-07
3938.21	3.06377e-07
3946.76	6.2772e-08
3955.32	-1.50329e-07
3963.88	-2.84775e-08
3972.44	-1.3772e-07
