Infrared Spectrum: 1,1-Dichloroethene
Formula: C H2 C Cl2
CAS: 75-35-4
State: gas
Melting point: -122.1 C
Boiling point: 37 C
Class: IUPAC A
Instrument: IFS66V (Bruker)
Instrument parameters: KBr Beam Splitter; MCT Detector; Multipass cell
Sampling: 1 L/min Flow
Resolution: 1.9290
Temperature: 23 C
Pressure: 101.3 Pa
Origin: NIST, Analytical Chemistry Division, 301-975-3108
cm-1	(micromol/mol)-1m-1 (base 10)
575.652	6.87141e-06
584.33	2.31161e-05
593.008	6.0929e-05
601.687	5.37725e-05
610.365	7.96102e-05
619.043	3.0236e-05
627.721	8.82949e-06
636.399	1.60131e-06
645.077	2.66861e-07
653.756	8.33402e-08
662.434	1.01703e-07
671.112	2.6133e-07
679.79	8.56054e-07
688.468	3.03893e-07
697.147	4.83394e-08
705.825	4.67687e-08
714.503	2.06099e-07
723.181	3.4829e-07
731.859	5.23516e-07
740.537	8.3496e-07
749.216	1.76104e-06
757.894	7.36103e-06
766.572	3.34239e-05
775.25	0.000132652
783.928	0.000394753
792.607	0.000477458
801.285	0.00044467
809.963	0.000110913
818.641	1.13603e-05
827.319	1.00774e-05
835.997	1.38891e-05
844.676	4.16768e-05
853.354	9.75677e-05
862.032	0.000200966
870.71	0.000153023
879.388	0.000136293
888.066	0.000100728
896.745	2.60739e-05
905.423	1.09817e-05
914.101	5.24307e-06
922.779	5.88981e-06
931.457	3.46272e-06
940.136	1.85736e-06
948.814	1.31117e-06
957.492	8.92223e-07
966.17	8.66518e-07
974.848	5.63601e-07
983.526	6.827e-07
992.205	4.11221e-07
1000.88	6.16699e-07
1009.56	1.31354e-06
1018.24	1.61449e-06
1026.92	1.46184e-06
1035.6	8.20388e-07
1044.27	1.3835e-06
1052.95	4.91905e-06
1061.63	2.39738e-05
1070.31	0.000117743
1078.99	0.000274663
1087.66	0.000390476
1096.34	0.000388258
1105.02	0.000274543
1113.7	3.40253e-05
1122.38	1.84358e-05
1131.06	6.19282e-05
1139.73	7.71646e-05
1148.41	6.00451e-05
1157.09	9.336e-06
1165.77	1.49069e-06
1174.45	1.24283e-06
1183.12	6.91242e-07
1191.8	3.36442e-07
1200.48	2.995e-07
1209.16	1.74871e-07
1217.84	2.61087e-08
1226.52	7.469e-08
1235.19	2.17859e-07
1243.87	4.02768e-07
1252.55	4.10982e-07
1261.23	3.60076e-07
1269.91	-1.24964e-09
1278.58	3.94073e-08
1287.26	2.50575e-07
1295.94	1.23299e-06
1304.62	3.45428e-06
1313.3	5.76995e-06
1321.98	5.59957e-06
1330.65	3.68366e-06
1339.33	1.77589e-06
1348.01	1.24719e-06
1356.69	1.3047e-06
1365.37	1.53816e-06
1374.04	3.88575e-06
1382.72	8.63417e-06
1391.4	1.17793e-05
1400.08	9.79163e-06
1408.76	5.56994e-06
1417.44	1.93432e-07
1426.11	1.24692e-07
1434.79	8.66753e-08
1443.47	7.47883e-08
1452.15	7.7886e-08
1460.83	1.75053e-07
1469.5	1.66573e-07
1478.18	2.05211e-07
1486.86	1.4816e-07
1495.54	1.73399e-07
1504.22	2.88298e-07
1512.9	5.28376e-07
1521.57	1.294e-06
1530.25	4.4381e-06
1538.93	1.03651e-05
1547.61	2.41212e-05
1556.29	5.16595e-05
1564.96	6.75766e-05
1573.64	6.99286e-05
1582.32	5.15112e-05
1591	3.48903e-05
1599.68	6.51134e-05
1608.36	0.000169796
1617.03	0.000255651
1625.71	0.000271777
1634.39	0.00017203
1643.07	5.01622e-05
1651.75	8.53074e-06
1660.42	1.59207e-06
1669.1	7.91855e-07
1677.78	8.93955e-07
1686.46	8.70926e-07
1695.14	1.04879e-06
1703.82	6.73203e-07
1712.49	6.72579e-07
1721.17	1.76491e-06
1729.85	4.25033e-06
1738.53	8.26409e-06
1747.21	8.52424e-06
1755.88	5.62266e-06
1764.56	2.11768e-06
1773.24	1.07174e-06
1781.92	3.74239e-07
1790.6	3.83667e-07
1799.28	1.29535e-07
1807.95	5.97673e-07
1816.63	9.9872e-08
1825.31	2.29764e-08
1833.99	3.40968e-08
1842.67	1.70068e-07
1851.34	3.32907e-07
1860.02	5.42011e-07
1868.7	1.01187e-06
1877.38	1.12592e-06
1886.06	9.47227e-07
1894.74	7.66508e-07
1903.41	3.39222e-07
1912.09	3.15949e-07
1920.77	4.06299e-07
1929.45	4.6723e-07
1938.13	3.00573e-07
1946.8	1.55893e-07
1955.48	-1.26501e-08
1964.16	-3.8647e-08
1972.84	2.88045e-08
1981.52	2.65384e-07
1990.2	2.84589e-07
1998.87	2.94207e-07
2007.55	-1.63635e-08
2016.23	-6.03938e-08
2024.91	-5.48723e-08
2033.59	-5.47404e-08
2042.26	-9.41349e-08
2050.94	-2.96867e-08
2059.62	-3.75065e-08
2068.3	1.22918e-08
2076.98	-7.78523e-09
2085.66	-1.59379e-08
2094.33	-8.16995e-09
2103.01	-5.20919e-08
2111.69	-5.40892e-08
2120.37	-5.60964e-08
2129.05	-1.31244e-07
2137.72	-2.18979e-07
2146.4	-2.66229e-07
2155.08	-2.89077e-07
2163.76	-3.57329e-07
2172.44	-2.89864e-07
2181.12	-2.75209e-07
2189.79	-2.49409e-07
2198.47	-8.76894e-08
2207.15	1.53751e-07
2215.83	4.73149e-07
2224.51	6.82033e-07
2233.18	5.5046e-07
2241.86	1.09865e-07
2250.54	-8.14194e-08
2259.22	-1.9669e-07
2267.9	-1.93277e-07
2276.58	-3.34731e-07
2285.25	-2.11136e-07
2293.93	-2.27169e-07
2302.61	-1.89268e-07
2311.29	-8.75239e-08
2319.97	3.6416e-09
2328.64	9.40567e-08
2337.32	1.80104e-07
2346	1.67943e-07
2354.68	5.42729e-08
2363.36	-1.22678e-07
2372.04	-7.09029e-08
2380.71	-8.93083e-08
2389.39	3.49753e-08
2398.07	1.79954e-07
2406.75	4.74313e-07
2415.43	1.03903e-06
2424.1	1.35669e-06
2432.78	1.19354e-06
2441.46	4.99461e-07
2450.14	5.55671e-08
2458.82	1.43399e-07
2467.5	-6.61563e-09
2476.17	-4.82239e-08
2484.85	-4.35937e-08
2493.53	-8.21633e-08
2502.21	-8.04016e-08
2510.89	-4.46787e-08
2519.56	-4.81784e-08
2528.24	-7.00435e-08
2536.92	-7.20425e-08
2545.6	-1.47938e-07
2554.28	-1.54579e-07
2562.96	-1.25412e-07
2571.63	-1.27854e-07
2580.31	-1.07649e-07
2588.99	-1.26783e-07
2597.67	-5.98772e-08
2606.35	-3.09463e-08
2615.02	5.19928e-08
2623.7	4.33772e-08
2632.38	1.52e-07
2641.06	1.27649e-07
2649.74	1.4547e-07
2658.42	1.27594e-07
2667.09	9.70344e-08
2675.77	2.64361e-08
2684.45	5.37572e-08
2693.13	2.78806e-07
2701.81	3.46343e-07
2710.48	4.45762e-07
2719.16	8.05817e-08
2727.84	1.78578e-08
2736.52	-1.08948e-07
2745.2	-3.83077e-09
2753.88	-3.58603e-08
2762.55	-1.68619e-09
2771.23	-9.7802e-08
2779.91	-9.07989e-08
2788.59	-7.17606e-08
2797.27	-1.70395e-07
2805.94	-1.11122e-07
2814.62	-1.15263e-07
2823.3	-5.56517e-08
2831.98	-8.66107e-09
2840.66	-4.7168e-08
2849.34	-5.40692e-09
2858.01	-3.2778e-08
2866.69	-6.95942e-09
2875.37	1.39196e-07
2884.05	6.59098e-08
2892.73	3.4235e-08
2901.4	4.139e-08
2910.08	6.53396e-08
2918.76	2.3749e-07
2927.44	1.51694e-07
2936.12	3.2886e-07
2944.8	4.06943e-07
2953.47	3.92861e-07
2962.15	4.19033e-07
2970.83	2.62566e-07
2979.51	1.67882e-07
2988.19	5.11241e-07
2996.86	5.39539e-07
3005.54	8.67755e-07
3014.22	3.99454e-07
3022.9	2.35213e-07
3031.58	4.85926e-07
3040.26	8.94644e-07
3048.93	7.79541e-07
3057.61	4.89336e-07
3066.29	9.62768e-08
3074.97	-2.61588e-08
3083.65	-7.27201e-08
3092.32	1.99351e-08
3101	-3.00987e-08
3109.68	-1.28132e-07
3118.36	-2.60563e-07
3127.04	-3.69408e-07
3135.72	-3.34027e-07
3144.39	-1.68226e-07
3153.07	-2.18813e-07
3161.75	1.50546e-07
3170.43	9.75252e-07
3179.11	2.22505e-06
3187.78	2.93386e-06
3196.46	3.0469e-06
3205.14	1.57686e-06
3213.82	2.16438e-07
3222.5	-2.97236e-07
3231.18	5.50605e-08
3239.85	5.44905e-07
3248.53	4.99016e-07
3257.21	-7.35796e-08
3265.89	-5.45511e-07
3274.57	-5.4447e-07
3283.24	-3.37567e-07
3291.92	-1.3782e-07
3300.6	1.43781e-07
3309.28	1.27003e-07
3317.96	1.77867e-07
3326.64	1.1991e-07
3335.31	3.64987e-08
3343.99	2.12644e-07
3352.67	9.70417e-08
3361.35	2.35797e-07
3370.03	2.62388e-08
3378.7	-1.59689e-07
3387.38	-9.61749e-08
3396.06	-6.38062e-08
3404.74	-3.72436e-09
3413.42	1.28611e-08
3422.1	1.21944e-07
3430.77	4.12408e-08
3439.45	5.30142e-09
3448.13	-1.24903e-07
3456.81	-1.72738e-07
3465.49	-1.95942e-07
3474.16	-1.81831e-07
3482.84	-1.455e-07
3491.52	-8.702e-09
3500.2	1.33154e-07
3508.88	8.16522e-08
3517.56	2.31406e-07
3526.23	-6.40063e-08
3534.91	-3.83468e-08
3543.59	-3.14838e-08
3552.27	-9.52391e-08
3560.95	-9.49562e-08
3569.62	-8.78977e-08
3578.3	-7.26819e-08
3586.98	-7.47746e-08
3595.66	-5.56062e-08
3604.34	-7.65954e-08
3613.02	-7.33458e-08
3621.69	1.40807e-08
3630.37	2.95002e-08
3639.05	1.27387e-07
3647.73	1.03968e-07
3656.41	1.62727e-07
3665.08	6.56879e-08
3673.76	-2.04908e-09
3682.44	-1.04811e-07
3691.12	-1.63199e-07
3699.8	-5.01948e-08
3708.48	-5.14071e-08
3717.15	-8.10528e-08
3725.83	1.02756e-07
3734.51	2.20072e-07
3743.19	3.06935e-07
3751.87	1.53506e-07
3760.54	-4.25987e-08
3769.22	-8.97912e-08
3777.9	-2.95057e-08
3786.58	-8.00469e-08
3795.26	-9.92999e-08
3803.94	-8.75411e-08
3812.61	-8.02652e-08
3821.29	-1.3823e-07
3829.97	-9.20031e-08
3838.65	-8.14357e-08
3847.33	-2.86598e-08
3856	-7.70293e-08
3864.68	-1.38049e-07
3873.36	-8.23589e-08
3882.04	-1.85863e-08
3890.72	-1.86891e-08
3899.4	-2.69527e-08
3908.07	2.82124e-08
3916.75	6.81663e-08
3925.43	1.69905e-07
3934.11	1.6006e-07
3942.79	1.45454e-07
3951.46	-1.18206e-08
3960.14	-9.45879e-08
3968.82	-9.17494e-08
