Infrared Spectrum: 1,2-Epoxypropane
Formula: C3 H6 O
CAS: 75-56-9
State: gas
Melting point: -104.4 C
Boiling point: 34.3 C
Class: IUPAC A
Instrument: IFS66V (Bruker)
Instrument parameters: KBr Beam splitter; MCT Detector; Multipass cell
Sampling: 1 L/min Flow
Resolution: 1.9290
Temperature: 23 C
Pressure: 101.3 kPa
Origin: NIST, Anayltical Chemistry Division, 301-975-3108
cm-1	(micromol/mol)-1m-1 (base 10)
574.687	-3.10351e-08
583.365	-4.51189e-07
592.043	-2.67609e-07
600.721	-4.22704e-07
609.4	-2.85017e-07
618.078	-3.59759e-07
626.756	-3.00047e-07
635.434	-4.66866e-07
644.112	-2.17272e-07
652.79	-5.19133e-07
661.469	-2.97392e-07
670.147	-2.75441e-07
678.825	-1.54921e-07
687.503	-2.69307e-07
696.181	3.48326e-08
704.859	-2.63858e-08
713.537	8.16806e-07
722.216	2.02569e-06
730.894	6.03913e-06
739.572	1.39048e-05
748.25	2.2313e-05
756.928	3.55029e-05
765.606	3.38769e-05
774.285	3.0358e-05
782.963	1.39486e-05
791.641	1.18289e-05
800.319	2.09543e-05
808.997	4.53718e-05
817.675	0.000100691
826.353	0.000147775
835.032	0.000146172
843.71	0.000152
852.388	0.000119529
861.066	5.22042e-05
869.744	2.29053e-05
878.422	1.46976e-05
887.101	1.12591e-05
895.779	1.02288e-05
904.457	1.15981e-05
913.135	1.16446e-05
921.813	1.28848e-05
930.491	2.03673e-05
939.169	3.24845e-05
947.848	4.35536e-05
956.526	2.73758e-05
965.204	4.5448e-05
973.882	3.19375e-05
982.56	1.97175e-05
991.238	1.45925e-05
999.917	1.78727e-05
1008.59	2.60641e-05
1017.27	3.33736e-05
1025.95	3.0261e-05
1034.63	2.75767e-05
1043.31	1.73856e-05
1051.99	9.32685e-06
1060.66	4.2854e-06
1069.34	3.05255e-06
1078.02	4.90088e-06
1086.7	9.41181e-06
1095.38	1.53767e-05
1104.05	2.14298e-05
1112.73	3.37802e-05
1121.41	2.99294e-05
1130.09	2.98673e-05
1138.77	2.35414e-05
1147.45	1.51085e-05
1156.12	1.6111e-05
1164.8	1.11757e-05
1173.48	6.78242e-06
1182.16	3.12869e-06
1190.84	2.07097e-06
1199.51	1.39681e-06
1208.19	1.47941e-06
1216.87	1.47714e-06
1225.55	2.49547e-06
1234.23	5.04306e-06
1242.9	9.98206e-06
1251.58	1.61754e-05
1260.26	2.07484e-05
1268.94	1.78503e-05
1277.62	1.84272e-05
1286.3	1.23444e-05
1294.97	6.60415e-06
1303.65	3.24914e-06
1312.33	1.68387e-06
1321.01	1.28384e-06
1329.69	1.38536e-06
1338.36	2.4816e-06
1347.04	4.5285e-06
1355.72	7.56186e-06
1364.4	1.06905e-05
1373.08	2.34512e-05
1381.76	1.76626e-05
1390.43	4.38051e-05
1399.11	7.96929e-05
1407.79	6.49259e-05
1416.47	5.72804e-05
1425.15	8.78024e-05
1433.82	4.36871e-05
1442.5	3.26982e-05
1451.18	2.47145e-05
1459.86	3.11048e-05
1468.54	3.05074e-05
1477.22	3.06287e-05
1485.89	2.58756e-05
1494.57	2.20645e-05
1503.25	2.32786e-05
1511.93	1.58916e-05
1520.61	1.19328e-05
1529.28	1.34105e-05
1537.96	5.69711e-06
1546.64	2.90168e-06
1555.32	1.80093e-06
1564	1.59596e-06
1572.67	2.14379e-06
1581.35	2.44842e-06
1590.03	3.36594e-06
1598.71	2.94682e-06
1607.39	2.80266e-06
1616.07	1.90067e-06
1624.74	1.482e-06
1633.42	1.84389e-06
1642.1	2.28406e-06
1650.78	2.79649e-06
1659.46	3.0701e-06
1668.13	2.71397e-06
1676.81	2.66279e-06
1685.49	3.04164e-06
1694.17	1.93367e-06
1702.85	1.81751e-06
1711.53	1.91329e-06
1720.2	1.77779e-06
1728.88	1.16909e-06
1737.56	6.78875e-07
1746.24	4.44273e-07
1754.92	2.35055e-07
1763.59	4.58086e-07
1772.27	1.15179e-06
1780.95	8.5381e-07
1789.63	8.45134e-07
1798.31	7.68093e-07
1806.98	7.08188e-07
1815.66	3.37568e-07
1824.34	2.35806e-07
1833.02	3.44556e-07
1841.7	4.52221e-07
1850.38	4.55946e-07
1859.05	2.91788e-07
1867.73	6.81589e-07
1876.41	5.22197e-07
1885.09	7.33452e-07
1893.77	7.8908e-07
1902.44	1.03056e-06
1911.12	1.18632e-06
1919.8	8.97395e-07
1928.48	6.43696e-07
1937.16	6.05333e-07
1945.84	7.18483e-07
1954.51	1.39616e-06
1963.19	1.45469e-06
1971.87	1.40987e-06
1980.55	1.92726e-06
1989.23	1.29727e-06
1997.9	1.0683e-06
2006.58	1.31251e-06
2015.26	1.12683e-06
2023.94	1.13682e-06
2032.62	1.03413e-06
2041.3	6.5263e-07
2049.97	2.97261e-07
2058.65	2.90588e-07
2067.33	3.52418e-07
2076.01	5.70811e-07
2084.69	7.80544e-07
2093.36	6.31191e-07
2102.04	5.33463e-07
2110.72	5.08425e-07
2119.4	4.34914e-07
2128.08	6.16212e-07
2136.75	9.93104e-07
2145.43	1.81269e-06
2154.11	2.14208e-06
2162.79	2.66457e-06
2171.47	2.28998e-06
2180.15	2.66009e-06
2188.82	1.76456e-06
2197.5	1.36447e-06
2206.18	1.49828e-06
2214.86	1.5109e-06
2223.54	1.92958e-06
2232.21	2.21995e-06
2240.89	2.54115e-06
2249.57	3.79967e-06
2258.25	3.29624e-06
2266.93	3.45329e-06
2275.61	3.39967e-06
2284.28	2.9485e-06
2292.96	2.19883e-06
2301.64	2.02778e-06
2310.32	1.63688e-06
2319	1.42083e-06
2327.67	1.06835e-06
2336.35	1.21601e-06
2345.03	8.92767e-07
2353.71	7.83326e-07
2362.39	6.69402e-07
2371.06	6.02815e-07
2379.74	5.90393e-07
2388.42	5.1578e-07
2397.1	5.38484e-07
2405.78	6.97644e-07
2414.46	7.27409e-07
2423.13	9.19785e-07
2431.81	7.19428e-07
2440.49	5.68514e-07
2449.17	4.11129e-07
2457.85	3.66302e-07
2466.52	2.96412e-07
2475.2	3.8595e-07
2483.88	3.7661e-07
2492.56	5.44881e-07
2501.24	6.15622e-07
2509.92	8.50642e-07
2518.59	7.59444e-07
2527.27	1.13325e-06
2535.95	8.06821e-07
2544.63	5.83911e-07
2553.31	6.1189e-07
2561.98	5.313e-07
2570.66	5.27304e-07
2579.34	6.88033e-07
2588.02	9.56796e-07
2596.7	1.30094e-06
2605.38	1.4402e-06
2614.05	1.72691e-06
2622.73	1.46003e-06
2631.41	1.43603e-06
2640.09	1.0991e-06
2648.77	9.66532e-07
2657.44	7.00867e-07
2666.12	4.86778e-07
2674.8	2.66786e-07
2683.48	2.56396e-07
2692.16	2.00744e-07
2700.83	3.17933e-07
2709.51	4.48516e-07
2718.19	9.72889e-07
2726.87	9.38171e-07
2735.55	1.15556e-06
2744.23	1.59585e-06
2752.9	1.77815e-06
2761.58	2.17115e-06
2770.26	5.27261e-06
2778.94	4.00207e-06
2787.62	5.16632e-06
2796.29	5.70199e-06
2804.97	5.03978e-06
2813.65	4.20511e-06
2822.33	4.56549e-06
2831.01	5.0864e-06
2839.69	4.95501e-06
2848.36	5.68999e-06
2857.04	8.06291e-06
2865.72	1.40992e-05
2874.4	1.72873e-05
2883.08	1.82343e-05
2891.75	2.60135e-05
2900.43	4.02901e-05
2909.11	4.37165e-05
2917.79	6.62876e-05
2926.47	8.33003e-05
2935.14	8.50853e-05
2943.82	8.22584e-05
2952.5	0.000106453
2961.18	0.000108803
2969.86	0.000139436
2978.54	0.000166508
2987.21	0.000197588
2995.89	0.000208325
3004.57	0.000168297
3013.25	0.000164227
3021.93	0.000138995
3030.6	0.000124707
3039.28	0.00011463
3047.96	0.000111554
3056.64	9.09285e-05
3065.32	7.71063e-05
3074	4.43454e-05
3082.67	2.06235e-05
3091.35	9.06094e-06
3100.03	3.4739e-06
3108.71	2.46777e-06
3117.39	1.66251e-06
3126.06	2.13277e-06
3134.74	2.01636e-06
3143.42	2.73373e-06
3152.1	2.72549e-06
3160.78	3.95326e-06
3169.46	3.14476e-06
3178.13	3.26444e-06
3186.81	2.56566e-06
3195.49	1.92116e-06
3204.17	9.00279e-07
3212.85	5.92957e-07
3221.52	1.8439e-07
3230.2	3.26146e-07
3238.88	6.72356e-08
3247.56	2.59736e-07
3256.24	8.47035e-08
3264.91	2.2332e-07
3273.59	1.26009e-07
3282.27	2.67308e-07
3290.95	1.76201e-07
3299.63	2.78145e-07
3308.31	2.12211e-07
3316.98	5.21157e-07
3325.66	7.35062e-07
3334.34	9.94313e-07
3343.02	8.88147e-07
3351.7	1.19698e-06
3360.37	9.95701e-07
3369.05	8.66874e-07
3377.73	8.22437e-07
3386.41	1.11772e-06
3395.09	1.0618e-06
3403.77	9.96284e-07
3412.44	7.5457e-07
3421.12	6.57202e-07
3429.8	4.95733e-07
3438.48	4.38442e-07
3447.16	4.17521e-07
3455.83	3.1239e-07
3464.51	2.85339e-07
3473.19	3.01248e-07
3481.87	1.73406e-07
3490.55	1.76294e-07
3499.22	8.94933e-08
3507.9	1.12816e-07
3516.58	1.37642e-07
3525.26	1.87405e-07
3533.94	1.29608e-07
3542.62	1.54042e-07
3551.29	1.87021e-07
3559.97	1.92314e-07
3568.65	2.01952e-07
3577.33	1.73815e-07
3586.01	2.3646e-07
3594.68	2.58489e-07
3603.36	1.41832e-07
3612.04	4.04053e-07
3620.72	1.29909e-07
3629.4	7.92471e-07
3638.08	3.08637e-07
3646.75	6.27796e-07
3655.43	4.87352e-07
3664.11	5.78497e-07
3672.79	6.61483e-07
3681.47	7.28316e-07
3690.14	7.38096e-07
3698.82	8.37669e-07
3707.5	8.21479e-07
3716.18	1.0045e-06
3724.86	1.2045e-06
3733.54	1.31176e-06
3742.21	1.78362e-06
3750.89	1.86851e-06
3759.57	2.46852e-06
3768.25	2.05733e-06
3776.93	1.93077e-06
3785.6	1.83077e-06
3794.28	1.55164e-06
3802.96	1.65184e-06
3811.64	1.54017e-06
3820.32	2.07566e-06
3828.99	1.57336e-06
3837.67	2.44344e-06
3846.35	1.36959e-06
3855.03	1.73493e-06
3863.71	1.24838e-06
3872.39	1.49223e-06
3881.06	1.65757e-06
3889.74	1.59852e-06
3898.42	1.74582e-06
3907.1	1.5398e-06
3915.78	1.55967e-06
3924.45	1.82066e-06
3933.13	1.87931e-06
3941.81	2.38068e-06
3950.49	2.09059e-06
3959.17	1.94915e-06
3967.85	1.6666e-06
