Infrared Spectrum: 1,2-Epoxypropane
Formula: C3 H6 O
CAS: 75-56-9
State: gas
Melting point: -104.4 C
Boiling point: 34.3 C
Class: IUPAC A
Instrument: IFS66V (Bruker)
Instrument parameters: KBr Beam splitter; MCT Detector; Multipass cell
Sampling: 1 L/min Flow
Resolution: 0.4820
Temperature: 23 C
Pressure: 101.3 kPa
Origin: NIST, Anayltical Chemistry Division, 301-975-3108
cm-1	(micromol/mol)-1m-1 (base 10)
574.928	-2.66777e-07
583.606	-1.7892e-07
592.284	-2.75364e-07
600.962	-3.76995e-07
609.641	-3.14101e-07
618.319	-2.05179e-07
626.997	-3.36497e-07
635.675	-4.85095e-07
644.353	-2.43341e-07
653.031	-3.82234e-07
661.71	-3.01504e-07
670.388	-2.11706e-07
679.066	-2.55216e-07
687.744	-1.91359e-07
696.422	-1.03681e-08
705.1	5.80621e-08
713.778	7.54878e-07
722.457	2.24882e-06
731.135	6.07334e-06
739.813	1.43527e-05
748.491	2.22071e-05
757.169	3.43794e-05
765.847	3.38291e-05
774.526	3.00271e-05
783.204	1.35881e-05
791.882	1.24632e-05
800.56	2.10515e-05
809.238	4.73128e-05
817.916	0.000101169
826.594	0.00014901
835.273	0.00015664
843.951	0.000148935
852.629	0.00011873
861.307	5.04678e-05
869.985	2.33377e-05
878.663	1.41998e-05
887.342	1.1533e-05
896.02	1.15083e-05
904.698	1.18897e-05
913.376	1.15484e-05
922.054	1.32888e-05
930.732	2.04911e-05
939.41	3.31432e-05
948.089	4.50405e-05
956.767	3.02235e-05
965.445	4.49293e-05
974.123	3.16374e-05
982.801	1.94669e-05
991.479	1.47355e-05
1000.16	1.8086e-05
1008.84	2.7326e-05
1017.51	3.24335e-05
1026.19	3.17516e-05
1034.87	2.60029e-05
1043.55	1.69358e-05
1052.23	9.19809e-06
1060.9	4.24197e-06
1069.58	3.06341e-06
1078.26	5.07919e-06
1086.94	9.55357e-06
1095.62	1.54719e-05
1104.3	2.06098e-05
1112.97	3.3839e-05
1121.65	3.00656e-05
1130.33	2.90724e-05
1139.01	2.30535e-05
1147.69	1.61463e-05
1156.36	1.59803e-05
1165.04	1.10433e-05
1173.72	6.56313e-06
1182.4	3.24885e-06
1191.08	2.05122e-06
1199.76	1.50114e-06
1208.43	1.25209e-06
1217.11	1.61972e-06
1225.79	2.43264e-06
1234.47	5.28587e-06
1243.15	1.00002e-05
1251.82	1.68123e-05
1260.5	2.0878e-05
1269.18	1.73007e-05
1277.86	1.80219e-05
1286.54	1.2065e-05
1295.21	6.62256e-06
1303.89	3.16726e-06
1312.57	1.74873e-06
1321.25	1.28195e-06
1329.93	1.46266e-06
1338.61	2.58262e-06
1347.28	4.60848e-06
1355.96	7.78453e-06
1364.64	1.0743e-05
1373.32	1.55084e-05
1382	1.86357e-05
1390.67	4.43734e-05
1399.35	7.93491e-05
1408.03	6.69237e-05
1416.71	5.7767e-05
1425.39	8.69042e-05
1434.07	4.22856e-05
1442.74	3.3227e-05
1451.42	2.62218e-05
1460.1	3.16005e-05
1468.78	3.14095e-05
1477.46	3.07275e-05
1486.13	2.69898e-05
1494.81	2.23968e-05
1503.49	2.29558e-05
1512.17	1.60297e-05
1520.85	1.18668e-05
1529.52	1.3161e-05
1538.2	5.66504e-06
1546.88	2.94904e-06
1555.56	1.84963e-06
1564.24	1.66672e-06
1572.92	2.20788e-06
1581.59	2.54504e-06
1590.27	3.4485e-06
1598.95	3.03279e-06
1607.63	2.70553e-06
1616.31	1.84863e-06
1624.98	1.47767e-06
1633.66	1.84072e-06
1642.34	2.22668e-06
1651.02	2.90797e-06
1659.7	3.03332e-06
1668.38	2.89738e-06
1677.05	2.67233e-06
1685.73	2.55446e-06
1694.41	2.09596e-06
1703.09	1.83224e-06
1711.77	1.91217e-06
1720.44	1.83635e-06
1729.12	1.136e-06
1737.8	6.784e-07
1746.48	4.13631e-07
1755.16	3.15917e-07
1763.84	4.63285e-07
1772.51	1.38834e-06
1781.19	7.52517e-07
1789.87	9.3639e-07
1798.55	8.14196e-07
1807.23	7.05317e-07
1815.9	3.15968e-07
1824.58	2.58039e-07
1833.26	3.402e-07
1841.94	4.34846e-07
1850.62	4.24007e-07
1859.29	4.07927e-07
1867.97	7.21265e-07
1876.65	5.63273e-07
1885.33	7.1564e-07
1894.01	8.22219e-07
1902.69	1.00341e-06
1911.36	1.27619e-06
1920.04	8.87088e-07
1928.72	6.6988e-07
1937.4	5.90064e-07
1946.08	7.69485e-07
1954.75	1.40175e-06
1963.43	1.4702e-06
1972.11	1.39487e-06
1980.79	1.8793e-06
1989.47	1.26069e-06
1998.15	1.10966e-06
2006.82	1.27512e-06
2015.5	1.15195e-06
2024.18	1.14781e-06
2032.86	1.07175e-06
2041.54	6.15716e-07
2050.21	3.05562e-07
2058.89	2.99369e-07
2067.57	3.92715e-07
2076.25	5.44486e-07
2084.93	7.99643e-07
2093.6	6.16521e-07
2102.28	5.53244e-07
2110.96	4.93889e-07
2119.64	4.66437e-07
2128.32	6.063e-07
2137	1.03119e-06
2145.67	1.79571e-06
2154.35	2.16428e-06
2163.03	2.65164e-06
2171.71	2.32613e-06
2180.39	2.57449e-06
2189.06	1.81266e-06
2197.74	1.34756e-06
2206.42	1.63798e-06
2215.1	1.50654e-06
2223.78	1.90835e-06
2232.46	2.22469e-06
2241.13	2.61367e-06
2249.81	3.79836e-06
2258.49	3.58389e-06
2267.17	3.47719e-06
2275.85	3.38218e-06
2284.52	2.97972e-06
2293.2	2.21876e-06
2301.88	1.8428e-06
2310.56	1.70904e-06
2319.24	1.39105e-06
2327.92	1.09768e-06
2336.59	1.14313e-06
2345.27	8.95409e-07
2353.95	7.77881e-07
2362.63	7.104e-07
2371.31	6.3849e-07
2379.98	5.94141e-07
2388.66	4.76941e-07
2397.34	5.9811e-07
2406.02	6.99079e-07
2414.7	7.89241e-07
2423.37	8.69823e-07
2432.05	7.6546e-07
2440.73	5.27292e-07
2449.41	4.25387e-07
2458.09	3.38291e-07
2466.77	3.252e-07
2475.44	3.72507e-07
2484.12	4.17223e-07
2492.8	5.53058e-07
2501.48	6.52422e-07
2510.16	8.34939e-07
2518.83	8.22278e-07
2527.51	1.12184e-06
2536.19	8.25854e-07
2544.87	5.78845e-07
2553.55	6.30953e-07
2562.23	5.19239e-07
2570.9	5.73315e-07
2579.58	6.75808e-07
2588.26	9.90163e-07
2596.94	1.27525e-06
2605.62	1.4665e-06
2614.29	1.67602e-06
2622.97	1.48408e-06
2631.65	1.40358e-06
2640.33	1.11606e-06
2649.01	9.3247e-07
2657.68	7.24441e-07
2666.36	4.67153e-07
2675.04	3.13549e-07
2683.72	2.66936e-07
2692.4	2.61403e-07
2701.08	2.7663e-07
2709.75	5.14301e-07
2718.43	9.42642e-07
2727.11	9.72926e-07
2735.79	1.12936e-06
2744.47	1.6975e-06
2753.14	1.74792e-06
2761.82	2.25709e-06
2770.5	5.2695e-06
2779.18	4.07787e-06
2787.86	5.16729e-06
2796.54	5.71103e-06
2805.21	5.18182e-06
2813.89	4.59319e-06
2822.57	4.39857e-06
2831.25	4.78315e-06
2839.93	4.92893e-06
2848.6	5.8981e-06
2857.28	7.84614e-06
2865.96	1.54359e-05
2874.64	1.72948e-05
2883.32	1.90961e-05
2892	2.69095e-05
2900.67	4.07481e-05
2909.35	4.37982e-05
2918.03	6.64321e-05
2926.71	8.34127e-05
2935.39	8.44336e-05
2944.06	8.2626e-05
2952.74	0.000106338
2961.42	0.000109386
2970.1	0.000138703
2978.78	0.000168188
2987.45	0.000197865
2996.13	0.000204159
3004.81	0.000173821
3013.49	0.000163059
3022.17	0.00013937
3030.85	0.000123316
3039.52	0.000115931
3048.2	0.000116226
3056.88	8.89636e-05
3065.56	7.71645e-05
3074.24	4.29141e-05
3082.91	2.0808e-05
3091.59	8.59326e-06
3100.27	3.81914e-06
3108.95	2.28194e-06
3117.63	1.95206e-06
3126.31	2.02275e-06
3134.98	2.26135e-06
3143.66	2.65909e-06
3152.34	2.92895e-06
3161.02	3.87699e-06
3169.7	3.27147e-06
3178.37	3.14758e-06
3187.05	2.66345e-06
3195.73	1.83302e-06
3204.41	9.84403e-07
3213.09	4.9883e-07
3221.77	3.02162e-07
3230.44	2.29336e-07
3239.12	2.05577e-07
3247.8	2.34384e-07
3256.48	1.95215e-07
3265.16	1.60506e-07
3273.83	1.79484e-07
3282.51	1.70288e-07
3291.19	2.31578e-07
3299.87	2.25936e-07
3308.55	2.78792e-07
3317.22	5.14959e-07
3325.9	8.15052e-07
3334.58	9.86132e-07
3343.26	9.45702e-07
3351.94	1.1271e-06
3360.62	1.02568e-06
3369.29	8.01807e-07
3377.97	8.61651e-07
3386.65	1.04036e-06
3395.33	1.07126e-06
3404.01	9.04074e-07
3412.68	8.06229e-07
3421.36	6.1618e-07
3430.04	5.82991e-07
3438.72	3.76475e-07
3447.4	4.6273e-07
3456.08	2.59491e-07
3464.75	2.53305e-07
3473.43	2.86863e-07
3482.11	2.4712e-07
3490.79	1.34354e-07
3499.47	1.28541e-07
3508.14	1.29438e-07
3516.82	1.96756e-07
3525.5	2.21863e-07
3534.18	1.76861e-07
3542.86	1.16825e-07
3551.53	2.20643e-07
3560.21	1.72506e-07
3568.89	1.57868e-07
3577.57	1.64288e-07
3586.25	2.19574e-07
3594.93	1.99524e-07
3603.6	1.75261e-07
3612.28	3.51817e-07
3620.96	2.16555e-07
3629.64	1.12982e-06
3638.32	3.41399e-07
3646.99	5.94439e-07
3655.67	4.94099e-07
3664.35	5.49317e-07
3673.03	6.79345e-07
3681.71	7.66656e-07
3690.39	9.06134e-07
3699.06	7.96963e-07
3707.74	8.57643e-07
3716.42	1.02212e-06
3725.1	1.27188e-06
3733.78	1.51583e-06
3742.45	1.81984e-06
3751.13	2.20283e-06
3759.81	2.60961e-06
3768.49	2.08112e-06
3777.17	1.94263e-06
3785.85	1.78316e-06
3794.52	1.62662e-06
3803.2	1.77445e-06
3811.88	1.48291e-06
3820.56	2.18465e-06
3829.24	1.5775e-06
3837.91	3.02053e-06
3846.59	1.37748e-06
3855.27	1.41222e-06
3863.95	1.35706e-06
3872.63	1.49224e-06
3881.3	1.65994e-06
3889.98	1.62711e-06
3898.66	1.82849e-06
3907.34	1.51654e-06
3916.02	1.61825e-06
3924.7	1.77086e-06
3933.37	1.92903e-06
3942.05	2.23921e-06
3950.73	2.10783e-06
3959.41	1.91559e-06
3968.09	1.69303e-06
