Infrared Spectrum: 1,2-Epoxypropane
Formula: C3 H6 O
CAS: 75-56-9
State: gas
Melting point: -104.4 C
Boiling point: 34.3 C
Class: IUPAC A
Instrument: IFS66V (Bruker)
Instrument parameters: KBr Beam splitter; MCT Detector; Multipass cell
Sampling: 1 L/min Flow
Resolution: 0.9640
Temperature: 23 C
Pressure: 101.3 kPa
Origin: NIST, Anayltical Chemistry Division, 301-975-3108
cm-1	(micromol/mol)-1m-1 (base 10)
575.169	-4.86031e-07
583.847	-6.17271e-07
592.525	-4.30632e-07
601.203	-5.06413e-07
609.882	-4.94345e-07
618.56	-4.63033e-07
627.238	-3.02127e-07
635.916	-4.90352e-07
644.594	-3.25968e-07
653.272	-5.06714e-07
661.951	-3.81425e-07
670.629	-3.48903e-07
679.307	-2.6773e-07
687.985	-3.4161e-07
696.663	-7.39153e-08
705.341	-1.1066e-07
714.019	6.22361e-07
722.698	2.17684e-06
731.376	5.8421e-06
740.054	1.45042e-05
748.732	2.25771e-05
757.41	3.55076e-05
766.088	3.4368e-05
774.767	2.92657e-05
783.445	1.27158e-05
792.123	1.21121e-05
800.801	2.08533e-05
809.479	4.80008e-05
818.157	0.00010222
826.835	0.000148957
835.514	0.000152857
844.192	0.000150803
852.87	0.0001178
861.548	4.96017e-05
870.226	2.3108e-05
878.904	1.41194e-05
887.583	1.1765e-05
896.261	1.04115e-05
904.939	1.19517e-05
913.617	1.16382e-05
922.295	1.33933e-05
930.973	2.09826e-05
939.651	3.33778e-05
948.33	4.38263e-05
957.008	3.12363e-05
965.686	4.49481e-05
974.364	3.11197e-05
983.042	1.92502e-05
991.72	1.47825e-05
1000.4	1.8379e-05
1009.08	2.6948e-05
1017.75	3.29703e-05
1026.43	3.21746e-05
1035.11	2.72163e-05
1043.79	1.67992e-05
1052.47	9.06563e-06
1061.15	4.17302e-06
1069.82	3.09165e-06
1078.5	5.04982e-06
1087.18	9.61429e-06
1095.86	1.55988e-05
1104.54	2.00185e-05
1113.21	3.4001e-05
1121.89	3.00603e-05
1130.57	2.96823e-05
1139.25	2.35311e-05
1147.93	1.66392e-05
1156.61	1.60399e-05
1165.28	1.07321e-05
1173.96	6.39464e-06
1182.64	3.1245e-06
1191.32	1.96673e-06
1200	1.4016e-06
1208.67	1.12523e-06
1217.35	1.50753e-06
1226.03	2.36554e-06
1234.71	5.31218e-06
1243.39	1.01097e-05
1252.07	1.67083e-05
1260.74	2.01322e-05
1269.42	1.82866e-05
1278.1	1.84475e-05
1286.78	1.17938e-05
1295.46	6.47486e-06
1304.13	3.00456e-06
1312.81	1.58253e-06
1321.49	1.15315e-06
1330.17	1.34311e-06
1338.85	2.48419e-06
1347.52	4.52089e-06
1356.2	7.62908e-06
1364.88	1.03881e-05
1373.56	1.20843e-05
1382.24	1.84185e-05
1390.92	4.49109e-05
1399.59	7.88307e-05
1408.27	6.38527e-05
1416.95	6.1883e-05
1425.63	8.7097e-05
1434.31	4.16215e-05
1442.98	3.34691e-05
1451.66	2.70379e-05
1460.34	3.13172e-05
1469.02	3.18473e-05
1477.7	3.09125e-05
1486.38	2.789e-05
1495.05	2.29186e-05
1503.73	2.28875e-05
1512.41	1.61021e-05
1521.09	1.29608e-05
1529.77	1.31208e-05
1538.44	5.32234e-06
1547.12	3.02629e-06
1555.8	1.79502e-06
1564.48	1.90296e-06
1573.16	2.36369e-06
1581.83	2.62287e-06
1590.51	3.71129e-06
1599.19	3.17044e-06
1607.87	2.75103e-06
1616.55	2.99611e-06
1625.23	1.48735e-06
1633.9	1.87352e-06
1642.58	2.35815e-06
1651.26	3.14211e-06
1659.94	3.02825e-06
1668.62	2.75491e-06
1677.29	2.76674e-06
1685.97	2.75272e-06
1694.65	2.29486e-06
1703.33	1.9346e-06
1712.01	2.00633e-06
1720.69	1.88046e-06
1729.36	1.19439e-06
1738.04	6.42201e-07
1746.72	4.76864e-07
1755.4	3.65514e-07
1764.08	5.53457e-07
1772.75	1.83707e-06
1781.43	7.63675e-07
1790.11	9.64414e-07
1798.79	8.73085e-07
1807.47	8.00279e-07
1816.15	3.49797e-07
1824.82	3.79082e-07
1833.5	3.73146e-07
1842.18	5.15245e-07
1850.86	4.5903e-07
1859.54	4.46181e-07
1868.21	7.29422e-07
1876.89	5.90308e-07
1885.57	7.51962e-07
1894.25	8.73598e-07
1902.93	1.05315e-06
1911.6	1.3155e-06
1920.28	9.26261e-07
1928.96	7.08575e-07
1937.64	6.16063e-07
1946.32	8.19856e-07
1955	1.47338e-06
1963.67	1.48554e-06
1972.35	1.45757e-06
1981.03	1.89624e-06
1989.71	1.294e-06
1998.39	1.16861e-06
2007.06	1.32146e-06
2015.74	1.24171e-06
2024.42	1.46035e-06
2033.1	1.07444e-06
2041.78	6.38668e-07
2050.46	3.36384e-07
2059.13	3.79485e-07
2067.81	4.32603e-07
2076.49	5.65941e-07
2085.17	7.77557e-07
2093.85	6.30643e-07
2102.52	5.8841e-07
2111.2	4.94547e-07
2119.88	4.90989e-07
2128.56	6.55804e-07
2137.24	1.07922e-06
2145.91	1.83472e-06
2154.59	2.22528e-06
2163.27	2.70069e-06
2171.95	2.42575e-06
2180.63	2.55863e-06
2189.31	1.98313e-06
2197.98	1.37214e-06
2206.66	1.74667e-06
2215.34	1.55291e-06
2224.02	1.89427e-06
2232.7	2.29156e-06
2241.37	2.647e-06
2250.05	3.78247e-06
2258.73	3.94743e-06
2267.41	3.54004e-06
2276.09	3.36016e-06
2284.77	3.03905e-06
2293.44	2.25497e-06
2302.12	1.78937e-06
2310.8	1.77544e-06
2319.48	1.41287e-06
2328.16	1.14665e-06
2336.83	1.13969e-06
2345.51	9.1438e-07
2354.19	8.71069e-07
2362.87	7.56982e-07
2371.55	7.21696e-07
2380.23	6.06749e-07
2388.9	4.91508e-07
2397.58	5.52993e-07
2406.26	7.19506e-07
2414.94	8.10692e-07
2423.62	8.84207e-07
2432.29	8.17552e-07
2440.97	5.39013e-07
2449.65	4.48107e-07
2458.33	3.3901e-07
2467.01	3.44885e-07
2475.68	4.10001e-07
2484.36	3.97914e-07
2493.04	5.63005e-07
2501.72	6.71659e-07
2510.4	8.50946e-07
2519.08	8.36691e-07
2527.75	1.15826e-06
2536.43	8.18453e-07
2545.11	6.0702e-07
2553.79	6.38754e-07
2562.47	5.1406e-07
2571.14	5.87399e-07
2579.82	6.96018e-07
2588.5	1.01958e-06
2597.18	1.2865e-06
2605.86	1.4541e-06
2614.54	1.67206e-06
2623.21	1.48218e-06
2631.89	1.40967e-06
2640.57	1.14967e-06
2649.25	9.28754e-07
2657.93	7.09315e-07
2666.6	4.96455e-07
2675.28	3.45944e-07
2683.96	2.89225e-07
2692.64	2.65942e-07
2701.32	2.85642e-07
2709.99	5.37884e-07
2718.67	9.41727e-07
2727.35	9.34429e-07
2736.03	1.23479e-06
2744.71	1.73536e-06
2753.39	1.76335e-06
2762.06	2.33755e-06
2770.74	5.81809e-06
2779.42	4.13861e-06
2788.1	5.22846e-06
2796.78	5.7392e-06
2805.45	5.20874e-06
2814.13	4.55501e-06
2822.81	4.35708e-06
2831.49	4.37066e-06
2840.17	4.97462e-06
2848.85	5.97243e-06
2857.52	7.83854e-06
2866.2	1.54954e-05
2874.88	1.72683e-05
2883.56	1.93425e-05
2892.24	2.71811e-05
2900.91	4.13023e-05
2909.59	4.35364e-05
2918.27	6.61116e-05
2926.95	8.3985e-05
2935.63	8.44912e-05
2944.31	8.13337e-05
2952.98	0.000106498
2961.66	0.000109337
2970.34	0.000139868
2979.02	0.00016996
2987.7	0.000199115
2996.37	0.000198458
3005.05	0.000172317
3013.73	0.000163062
3022.41	0.000138869
3031.09	0.000123077
3039.76	0.000115138
3048.44	0.000124142
3057.12	8.92998e-05
3065.8	7.6216e-05
3074.48	4.18795e-05
3083.16	2.00767e-05
3091.83	8.08418e-06
3100.51	3.6479e-06
3109.19	2.06481e-06
3117.87	1.85027e-06
3126.55	1.92431e-06
3135.22	2.20124e-06
3143.9	2.62124e-06
3152.58	2.88611e-06
3161.26	3.82893e-06
3169.94	3.20898e-06
3178.62	3.12612e-06
3187.29	2.60344e-06
3195.97	1.72469e-06
3204.65	8.89445e-07
3213.33	4.03551e-07
3222.01	2.20451e-07
3230.68	1.60494e-07
3239.36	1.73282e-07
3248.04	1.63213e-07
3256.72	1.7286e-07
3265.4	1.73276e-07
3274.07	1.41536e-07
3282.75	1.13955e-07
3291.43	1.87944e-07
3300.11	2.22503e-07
3308.79	2.82867e-07
3317.47	4.97107e-07
3326.14	8.23132e-07
3334.82	9.67499e-07
3343.5	9.54874e-07
3352.18	1.12621e-06
3360.86	9.88274e-07
3369.53	7.88453e-07
3378.21	8.50528e-07
3386.89	9.52187e-07
3395.57	1.04163e-06
3404.25	8.90312e-07
3412.93	7.59528e-07
3421.6	5.88535e-07
3430.28	5.69818e-07
3438.96	3.40483e-07
3447.64	4.14969e-07
3456.32	2.35785e-07
3464.99	1.77567e-07
3473.67	2.64553e-07
3482.35	2.5652e-07
3491.03	1.70473e-07
3499.71	7.5284e-08
3508.39	1.26301e-07
3517.06	1.44965e-07
3525.74	1.85355e-07
3534.42	1.57604e-07
3543.1	3.66179e-08
3551.78	1.42621e-07
3560.45	1.27828e-07
3569.13	1.19645e-07
3577.81	1.22842e-07
3586.49	4.50566e-07
3595.17	2.67898e-07
3603.84	9.98341e-08
3612.52	5.52098e-07
3621.2	1.88462e-07
3629.88	7.8181e-07
3638.56	2.86045e-07
3647.24	7.40772e-07
3655.91	6.85792e-07
3664.59	4.71834e-07
3673.27	5.85384e-07
3681.95	7.15623e-07
3690.63	8.53265e-07
3699.3	7.98643e-07
3707.98	8.88823e-07
3716.66	9.10839e-07
3725.34	1.24465e-06
3734.02	1.44928e-06
3742.7	1.7822e-06
3751.37	2.05651e-06
3760.05	2.5079e-06
3768.73	2.08217e-06
3777.41	1.88995e-06
3786.09	1.69071e-06
3794.76	1.59181e-06
3803.44	1.73471e-06
3812.12	1.48238e-06
3820.8	2.25959e-06
3829.48	1.52706e-06
3838.16	2.45119e-06
3846.83	1.40406e-06
3855.51	1.3896e-06
3864.19	1.41035e-06
3872.87	1.34331e-06
3881.55	1.58515e-06
3890.22	1.66936e-06
3898.9	1.79072e-06
3907.58	1.50382e-06
3916.26	1.63209e-06
3924.94	1.85929e-06
3933.61	1.9489e-06
3942.29	2.07643e-06
3950.97	2.11945e-06
3959.65	1.87561e-06
3968.33	1.59909e-06
