Infrared Spectrum: 1,2-Epoxypropane
Formula: C3 H6 O
CAS: 75-56-9
State: gas
Melting point: -104.4 C
Boiling point: 34.3 C
Class: IUPAC A
Instrument: IFS66V (Bruker)
Instrument parameters: KBr Beam splitter; MCT Detector; Multipass cell
Sampling: 1 L/min Flow
Resolution: 0.4820
Temperature: 23 C
Pressure: 101.3 kPa
Origin: NIST, Anayltical Chemistry Division, 301-975-3108
cm-1	(micromol/mol)-1m-1 (base 10)
574.928	-2.5312e-07
583.606	-1.82067e-07
592.284	-2.81739e-07
600.962	-3.76328e-07
609.641	-3.23584e-07
618.319	-2.12445e-07
626.997	-3.47938e-07
635.675	-5.06398e-07
644.353	-2.49691e-07
653.031	-3.9721e-07
661.71	-3.13813e-07
670.388	-2.07664e-07
679.066	-2.65102e-07
687.744	-1.95474e-07
696.422	-2.547e-08
705.1	1.50924e-08
713.778	7.19566e-07
722.457	2.20599e-06
731.135	6.03571e-06
739.813	1.43564e-05
748.491	2.2245e-05
757.169	3.5139e-05
765.847	3.39612e-05
774.526	3.00899e-05
783.204	1.34121e-05
791.882	1.23067e-05
800.56	2.08576e-05
809.238	4.71583e-05
817.916	0.000101346
826.594	0.000149616
835.273	0.00015711
843.951	0.000149305
852.629	0.000119069
861.307	5.02458e-05
869.985	2.31394e-05
878.663	1.40586e-05
887.342	1.14607e-05
896.02	1.1524e-05
904.698	1.18314e-05
913.376	1.14791e-05
922.054	1.32097e-05
930.732	2.04337e-05
939.41	3.31637e-05
948.089	4.51853e-05
956.767	2.96609e-05
965.445	4.50593e-05
974.123	3.1663e-05
982.801	1.94038e-05
991.479	1.46491e-05
1000.16	1.80386e-05
1008.84	2.73369e-05
1017.51	3.2646e-05
1026.19	3.18275e-05
1034.87	2.61478e-05
1043.55	1.69291e-05
1052.23	9.15688e-06
1060.9	4.17359e-06
1069.58	2.99996e-06
1078.26	5.02681e-06
1086.94	9.52173e-06
1095.62	1.54539e-05
1104.3	2.06232e-05
1112.97	3.40435e-05
1121.65	3.01242e-05
1130.33	2.90542e-05
1139.01	2.30691e-05
1147.69	1.59923e-05
1156.36	1.59693e-05
1165.04	1.10353e-05
1173.72	6.54385e-06
1182.4	3.20853e-06
1191.08	2.01913e-06
1199.76	1.47388e-06
1208.43	1.20832e-06
1217.11	1.59114e-06
1225.79	2.39492e-06
1234.47	5.25412e-06
1243.15	9.98366e-06
1251.82	1.68388e-05
1260.5	2.09145e-05
1269.18	1.72454e-05
1277.86	1.81014e-05
1286.54	1.2053e-05
1295.21	6.59797e-06
1303.89	3.12997e-06
1312.57	1.71759e-06
1321.25	1.24748e-06
1329.93	1.42268e-06
1338.61	2.54385e-06
1347.28	4.5694e-06
1355.96	7.75918e-06
1364.64	1.07524e-05
1373.32	1.48121e-05
1382	1.84926e-05
1390.67	4.43057e-05
1399.35	7.98964e-05
1408.03	6.60788e-05
1416.71	5.74254e-05
1425.39	8.73652e-05
1434.07	4.20633e-05
1442.74	3.31915e-05
1451.42	2.59822e-05
1460.1	3.12879e-05
1468.78	3.13058e-05
1477.46	3.0709e-05
1486.13	2.67364e-05
1494.81	2.23455e-05
1503.49	2.2992e-05
1512.17	1.60512e-05
1520.85	1.18542e-05
1529.52	1.31967e-05
1538.2	5.57625e-06
1546.88	2.90716e-06
1555.56	1.80054e-06
1564.24	1.63578e-06
1572.92	2.18996e-06
1581.59	2.53338e-06
1590.27	3.47595e-06
1598.95	3.02792e-06
1607.63	2.69912e-06
1616.31	1.87487e-06
1624.98	1.4601e-06
1633.66	1.82201e-06
1642.34	2.22246e-06
1651.02	2.89037e-06
1659.7	3.03757e-06
1668.38	2.89288e-06
1677.05	2.66562e-06
1685.73	2.50775e-06
1694.41	2.07917e-06
1703.09	1.81149e-06
1711.77	1.90537e-06
1720.44	1.83438e-06
1729.12	1.12292e-06
1737.8	6.74456e-07
1746.48	4.02391e-07
1755.16	3.05038e-07
1763.84	4.55795e-07
1772.51	1.44057e-06
1781.19	7.40322e-07
1789.87	9.26706e-07
1798.55	8.09166e-07
1807.23	7.03865e-07
1815.9	3.10847e-07
1824.58	2.43235e-07
1833.26	3.35695e-07
1841.94	4.29563e-07
1850.62	4.18444e-07
1859.29	3.96842e-07
1867.97	7.23395e-07
1876.65	5.60117e-07
1885.33	7.13407e-07
1894.01	8.17859e-07
1902.69	9.99814e-07
1911.36	1.28232e-06
1920.04	8.80358e-07
1928.72	6.6314e-07
1937.4	5.82448e-07
1946.08	7.65724e-07
1954.75	1.40435e-06
1963.43	1.46666e-06
1972.11	1.38648e-06
1980.79	1.88017e-06
1989.47	1.25574e-06
1998.15	1.10505e-06
2006.82	1.27509e-06
2015.5	1.14769e-06
2024.18	1.1454e-06
2032.86	1.07191e-06
2041.54	6.12206e-07
2050.21	3.01559e-07
2058.89	2.98234e-07
2067.57	3.86606e-07
2076.25	5.4283e-07
2084.93	8.14938e-07
2093.6	6.15048e-07
2102.28	5.47767e-07
2110.96	4.91329e-07
2119.64	4.60159e-07
2128.32	5.9972e-07
2137	1.02576e-06
2145.67	1.79795e-06
2154.35	2.15987e-06
2163.03	2.65494e-06
2171.71	2.31961e-06
2180.39	2.58171e-06
2189.06	1.81743e-06
2197.74	1.34369e-06
2206.42	1.64651e-06
2215.1	1.50097e-06
2223.78	1.90378e-06
2232.46	2.22156e-06
2241.13	2.60409e-06
2249.81	3.8331e-06
2258.49	3.56864e-06
2267.17	3.4811e-06
2275.85	3.38799e-06
2284.52	2.9852e-06
2293.2	2.21678e-06
2301.88	1.83018e-06
2310.56	1.703e-06
2319.24	1.38791e-06
2327.92	1.0901e-06
2336.59	1.14035e-06
2345.27	8.89133e-07
2353.95	7.74344e-07
2362.63	7.11886e-07
2371.31	6.37638e-07
2379.98	5.90732e-07
2388.66	4.70308e-07
2397.34	5.93905e-07
2406.02	6.9693e-07
2414.7	7.8353e-07
2423.37	8.73126e-07
2432.05	7.68623e-07
2440.73	5.20821e-07
2449.41	4.23104e-07
2458.09	3.33298e-07
2466.77	3.20577e-07
2475.44	3.69586e-07
2484.12	4.17027e-07
2492.8	5.51605e-07
2501.48	6.46167e-07
2510.16	8.38544e-07
2518.83	8.14483e-07
2527.51	1.12068e-06
2536.19	8.19698e-07
2544.87	5.69584e-07
2553.55	6.2817e-07
2562.23	5.13637e-07
2570.9	5.69696e-07
2579.58	6.6658e-07
2588.26	9.87536e-07
2596.94	1.26852e-06
2605.62	1.46461e-06
2614.29	1.67962e-06
2622.97	1.47842e-06
2631.65	1.40181e-06
2640.33	1.11103e-06
2649.01	9.28203e-07
2657.68	7.13566e-07
2666.36	4.56606e-07
2675.04	3.0061e-07
2683.72	2.58455e-07
2692.4	2.54528e-07
2701.08	2.6262e-07
2709.75	5.01785e-07
2718.43	9.32576e-07
2727.11	9.51951e-07
2735.79	1.11411e-06
2744.47	1.67796e-06
2753.14	1.72856e-06
2761.82	2.24016e-06
2770.5	5.33307e-06
2779.18	4.06865e-06
2787.86	5.15187e-06
2796.54	5.70254e-06
2805.21	5.12627e-06
2813.89	4.55059e-06
2822.57	4.36225e-06
2831.25	4.7699e-06
2839.93	4.89821e-06
2848.6	5.84736e-06
2857.28	7.75209e-06
2865.96	1.53388e-05
2874.64	1.72127e-05
2883.32	1.8904e-05
2892	2.67913e-05
2900.67	4.07868e-05
2909.35	4.36475e-05
2918.03	6.63967e-05
2926.71	8.32526e-05
2935.39	8.43594e-05
2944.06	8.19339e-05
2952.74	0.000106464
2961.42	0.000109232
2970.1	0.000139097
2978.78	0.00016858
2987.45	0.000198135
2996.13	0.000203883
3004.81	0.000172781
3013.49	0.000163083
3022.17	0.000139362
3030.85	0.000123296
3039.52	0.000115946
3048.2	0.000113431
3056.88	8.90063e-05
3065.56	7.72811e-05
3074.24	4.2806e-05
3082.91	2.06638e-05
3091.59	8.44969e-06
3100.27	3.71529e-06
3108.95	2.20488e-06
3117.63	1.89397e-06
3126.31	1.97866e-06
3134.98	2.22853e-06
3143.66	2.62627e-06
3152.34	2.90734e-06
3161.02	3.86973e-06
3169.7	3.24959e-06
3178.37	3.13327e-06
3187.05	2.65668e-06
3195.73	1.82512e-06
3204.41	9.69877e-07
3213.09	4.82391e-07
3221.77	2.91109e-07
3230.44	2.14384e-07
3239.12	1.96243e-07
3247.8	2.28923e-07
3256.48	1.86386e-07
3265.16	1.53106e-07
3273.83	1.75456e-07
3282.51	1.53717e-07
3291.19	2.2111e-07
3299.87	2.15595e-07
3308.55	2.72414e-07
3317.22	5.11548e-07
3325.9	8.09374e-07
3334.58	9.82843e-07
3343.26	9.26834e-07
3351.94	1.11839e-06
3360.62	1.0208e-06
3369.29	7.91175e-07
3377.97	8.58166e-07
3386.65	1.04268e-06
3395.33	1.0768e-06
3404.01	9.04005e-07
3412.68	8.06159e-07
3421.36	6.15646e-07
3430.04	5.8359e-07
3438.72	3.74369e-07
3447.4	4.71467e-07
3456.08	2.55723e-07
3464.75	2.45159e-07
3473.43	2.86533e-07
3482.11	2.49018e-07
3490.79	1.36752e-07
3499.47	1.27133e-07
3508.14	1.19001e-07
3516.82	1.98559e-07
3525.5	2.23772e-07
3534.18	1.74665e-07
3542.86	1.09033e-07
3551.53	2.17937e-07
3560.21	1.63016e-07
3568.89	1.4958e-07
3577.57	1.6276e-07
3586.25	2.20712e-07
3594.93	1.98571e-07
3603.6	1.71939e-07
3612.28	3.71426e-07
3620.96	2.07943e-07
3629.64	1.18707e-06
3638.32	3.44567e-07
3646.99	6.02089e-07
3655.67	4.79657e-07
3664.35	5.49491e-07
3673.03	6.69005e-07
3681.71	7.60926e-07
3690.39	8.93409e-07
3699.06	7.92765e-07
3707.74	8.52662e-07
3716.42	1.01978e-06
3725.1	1.27766e-06
3733.78	1.49964e-06
3742.45	1.80338e-06
3751.13	2.17828e-06
3759.81	2.63414e-06
3768.49	2.07071e-06
3777.17	1.93626e-06
3785.85	1.78571e-06
3794.52	1.62086e-06
3803.2	1.76265e-06
3811.88	1.46916e-06
3820.56	2.20986e-06
3829.24	1.57371e-06
3837.91	3.13092e-06
3846.59	1.38341e-06
3855.27	1.35579e-06
3863.95	1.34399e-06
3872.63	1.4854e-06
3881.3	1.66205e-06
3889.98	1.61462e-06
3898.66	1.82231e-06
3907.34	1.50693e-06
3916.02	1.61796e-06
3924.7	1.77739e-06
3933.37	1.92651e-06
3942.05	2.24141e-06
3950.73	2.10834e-06
3959.41	1.91463e-06
3968.09	1.69203e-06
