Infrared Spectrum: 1,2-Epoxypropane
Formula: C3 H6 O
CAS: 75-56-9
State: gas
Melting point: -104.4 C
Boiling point: 34.3 C
Class: IUPAC A
Instrument: IFS66V (Bruker)
Instrument parameters: KBr Beam splitter; MCT Detector; Multipass cell
Sampling: 1 L/min Flow
Resolution: 0.1250
Temperature: 23 C
Pressure: 101.3 kPa
Origin: NIST, Anayltical Chemistry Division, 301-975-3108
cm-1	(micromol/mol)-1m-1 (base 10)
574.988	-1.06077e-06
583.546	4.56187e-07
592.103	-4.18438e-07
600.661	-3.95172e-07
609.219	6.00953e-08
617.776	-2.44928e-07
626.334	-1.94822e-07
634.891	-3.20502e-07
643.449	-3.50798e-07
652.007	-4.04418e-07
660.564	-4.84467e-07
669.122	-4.77835e-07
677.68	-3.52954e-07
686.237	-1.18621e-07
694.795	-2.91707e-08
703.352	-8.44857e-08
711.91	4.26711e-07
720.468	1.93381e-06
729.025	4.5291e-06
737.583	1.15431e-05
746.141	2.05436e-05
754.698	2.70485e-05
763.256	2.86561e-05
771.813	3.55286e-05
780.371	1.67842e-05
788.929	1.15178e-05
797.486	1.62852e-05
806.044	3.49174e-05
814.602	7.68415e-05
823.159	0.000136999
831.717	0.000121807
840.274	0.000126751
848.832	0.000142174
857.39	7.44341e-05
865.947	3.12022e-05
874.505	1.66965e-05
883.063	1.22257e-05
891.62	9.93499e-06
900.178	1.12392e-05
908.735	1.16351e-05
917.293	1.15015e-05
925.851	1.59247e-05
934.408	2.46487e-05
942.966	3.89088e-05
951.524	4.42973e-05
960.081	4.46814e-05
968.639	4.03412e-05
977.196	2.6609e-05
985.754	1.67458e-05
994.312	1.51553e-05
1002.87	2.08996e-05
1011.43	2.82021e-05
1019.98	2.92743e-05
1028.54	3.81702e-05
1037.1	2.2763e-05
1045.66	1.47516e-05
1054.22	7.65571e-06
1062.77	3.61914e-06
1071.33	3.19606e-06
1079.89	5.69138e-06
1088.45	1.03676e-05
1097	1.6759e-05
1105.56	2.05994e-05
1114.12	3.29827e-05
1122.68	2.97553e-05
1131.23	2.9555e-05
1139.79	2.37022e-05
1148.35	1.75194e-05
1156.91	1.61149e-05
1165.46	1.06094e-05
1174.02	6.41076e-06
1182.58	3.19671e-06
1191.14	2.0988e-06
1199.69	1.4708e-06
1208.25	1.22195e-06
1216.81	1.53837e-06
1225.37	2.27973e-06
1233.93	4.88122e-06
1242.48	9.26654e-06
1251.04	1.63034e-05
1259.6	2.094e-05
1268.16	1.50214e-05
1276.71	2.1253e-05
1285.27	1.29007e-05
1293.83	7.16415e-06
1302.39	3.67968e-06
1310.94	1.82759e-06
1319.5	1.27858e-06
1328.06	1.2093e-06
1336.62	2.2993e-06
1345.17	4.09534e-06
1353.73	6.83899e-06
1362.29	9.40132e-06
1370.85	1.73703e-05
1379.4	1.5896e-05
1387.96	3.36778e-05
1396.52	7.19108e-05
1405.08	5.79011e-05
1413.64	3.12919e-05
1422.19	9.37024e-05
1430.75	5.61974e-05
1439.31	3.26426e-05
1447.87	2.80478e-05
1456.42	3.0273e-05
1464.98	4.38066e-05
1473.54	3.98075e-05
1482.1	2.7365e-05
1490.65	2.39844e-05
1499.21	2.50541e-05
1507.77	1.85936e-05
1516.33	1.47611e-05
1524.88	1.34666e-05
1533.44	1.04105e-05
1542	5.01928e-06
1550.56	2.37118e-06
1559.11	1.70467e-06
1567.67	1.77204e-06
1576.23	4.97487e-06
1584.79	2.55311e-06
1593.35	2.167e-06
1601.9	3.44751e-06
1610.46	2.13516e-06
1619.02	1.45967e-06
1627.58	1.65377e-06
1636.13	2.27195e-06
1644.69	2.13651e-06
1653.25	5.71985e-06
1661.81	2.95953e-06
1670.36	3.06924e-06
1678.92	2.63618e-06
1687.48	2.38728e-06
1696.04	4.18163e-06
1704.59	2.21758e-06
1713.15	2.11102e-06
1721.71	1.77989e-06
1730.27	1.10921e-06
1738.83	6.02239e-07
1747.38	3.89143e-07
1755.94	2.758e-07
1764.5	4.49269e-07
1773.06	9.67774e-07
1781.61	7.9901e-07
1790.17	1.01481e-06
1798.73	8.42385e-07
1807.29	7.04637e-07
1815.84	3.17092e-07
1824.4	2.3276e-07
1832.96	3.56573e-07
1841.52	4.08033e-07
1850.07	4.00964e-07
1858.63	4.20841e-07
1867.19	6.16795e-07
1875.75	5.60665e-07
1884.3	6.92353e-07
1892.86	7.96574e-07
1901.42	9.40534e-07
1909.98	1.27053e-06
1918.54	8.86251e-07
1927.09	6.67986e-07
1935.65	6.18201e-07
1944.21	6.37573e-07
1952.77	1.25187e-06
1961.32	1.47896e-06
1969.88	1.19134e-06
1978.44	1.98885e-06
1987	1.3583e-06
1995.55	1.04866e-06
2004.11	1.19938e-06
2012.67	1.28624e-06
2021.23	1.10171e-06
2029.78	1.12723e-06
2038.34	7.64751e-07
2046.9	4.09683e-07
2055.46	2.16035e-07
2064.01	2.93412e-07
2072.57	5.072e-07
2081.13	5.14496e-07
2089.69	5.29366e-07
2098.25	8.0026e-07
2106.8	4.90053e-07
2115.36	4.80738e-07
2123.92	5.83275e-07
2132.48	7.14909e-07
2141.03	1.34775e-06
2149.59	2.04493e-06
2158.15	2.63725e-06
2166.71	3.02066e-06
2175.26	2.86332e-06
2183.82	1.94479e-06
2192.38	1.23409e-06
2200.94	1.31302e-06
2209.49	1.14534e-06
2218.05	1.69934e-06
2226.61	2.03188e-06
2235.17	2.63327e-06
2243.72	2.96423e-06
2252.28	3.3784e-06
2260.84	2.90646e-06
2269.4	3.62904e-06
2277.96	3.02775e-06
2286.51	3.11343e-06
2295.07	2.16581e-06
2303.63	1.68287e-06
2312.19	1.79238e-06
2320.74	1.29142e-06
2329.3	1.0222e-06
2337.86	1.06511e-06
2346.42	8.54474e-07
2354.97	7.79115e-07
2363.53	6.69561e-07
2372.09	7.02031e-07
2380.65	5.47098e-07
2389.2	5.19175e-07
2397.76	5.38386e-07
2406.32	6.95976e-07
2414.88	8.14732e-07
2423.44	8.65486e-07
2431.99	7.69204e-07
2440.55	5.74018e-07
2449.11	4.01182e-07
2457.67	3.10249e-07
2466.22	3.07537e-07
2474.78	3.19148e-07
2483.34	3.51333e-07
2491.9	5.28945e-07
2500.45	6.78864e-07
2509.01	7.62503e-07
2517.57	8.08204e-07
2526.13	1.08765e-06
2534.68	8.65817e-07
2543.24	6.30151e-07
2551.8	6.26622e-07
2560.36	5.40399e-07
2568.91	5.26328e-07
2577.47	6.08623e-07
2586.03	8.86594e-07
2594.59	1.15829e-06
2603.15	1.4521e-06
2611.7	1.5304e-06
2620.26	1.48691e-06
2628.82	1.39135e-06
2637.38	1.26159e-06
2645.93	9.57419e-07
2654.49	8.83969e-07
2663.05	4.92696e-07
2671.61	4.62389e-07
2680.16	3.6761e-07
2688.72	2.91367e-07
2697.28	2.16447e-07
2705.84	4.12631e-07
2714.39	8.2156e-07
2722.95	1.00459e-06
2731.51	1.7974e-06
2740.07	1.5861e-06
2748.62	1.79744e-06
2757.18	1.94447e-06
2765.74	2.38164e-06
2774.3	3.37591e-06
2782.86	4.57024e-06
2791.41	5.4689e-06
2799.97	5.41567e-06
2808.53	8.34295e-06
2817.09	4.50025e-06
2825.64	4.48597e-06
2834.2	4.13802e-06
2842.76	5.07283e-06
2851.32	6.2901e-06
2859.87	8.6882e-06
2868.43	1.66666e-05
2876.99	1.81161e-05
2885.55	2.4006e-05
2894.1	3.01231e-05
2902.66	4.35077e-05
2911.22	4.49737e-05
2919.78	7.1506e-05
2928.34	9.6254e-05
2936.89	8.42834e-05
2945.45	8.29415e-05
2954.01	0.000106928
2962.57	0.000111998
2971.12	0.000139307
2979.68	0.000175236
2988.24	0.000199374
2996.8	0.000195092
3005.35	0.000172127
3013.91	0.000163317
3022.47	0.000138559
3031.03	0.000123177
3039.58	0.000115592
3048.14	0.000110554
3056.7	8.86692e-05
3065.26	7.81814e-05
3073.81	4.3768e-05
3082.37	2.16653e-05
3090.93	9.07499e-06
3099.49	3.92912e-06
3108.05	2.18813e-06
3116.6	1.85014e-06
3125.16	1.93732e-06
3133.72	2.11962e-06
3142.28	2.45935e-06
3150.83	2.78321e-06
3159.39	3.56576e-06
3167.95	3.27567e-06
3176.51	3.58923e-06
3185.06	2.82181e-06
3193.62	2.04195e-06
3202.18	1.12764e-06
3210.74	5.52349e-07
3219.29	4.20227e-07
3227.85	1.27535e-07
3236.41	1.76181e-07
3244.97	1.2642e-07
3253.52	2.46069e-07
3262.08	1.61349e-07
3270.64	6.55612e-08
3279.2	3.07535e-07
3287.76	1.9741e-07
3296.31	3.0392e-07
3304.87	2.37759e-07
3313.43	3.7006e-07
3321.99	5.07939e-07
3330.54	9.67657e-07
3339.1	1.12825e-06
3347.66	9.50513e-07
3356.22	1.19126e-06
3364.77	8.78701e-07
3373.33	8.27405e-07
3381.89	8.09273e-07
3390.45	9.37306e-07
3399	9.77853e-07
3407.56	7.72402e-07
3416.12	8.25015e-07
3424.68	3.5801e-07
3433.23	4.45935e-07
3441.79	2.74514e-07
3450.35	3.00116e-07
3458.91	2.50486e-07
3467.47	3.90128e-07
3476.02	2.06299e-07
3484.58	1.69294e-07
3493.14	1.81534e-07
3501.7	1.16997e-07
3510.25	4.8021e-08
3518.81	1.90163e-07
3527.37	1.33739e-07
3535.93	2.80861e-08
3544.48	1.0683e-07
3553.04	6.16755e-08
3561.6	1.90504e-08
3570.16	1.66068e-07
3578.71	1.90685e-07
3587.27	2.24627e-07
3595.83	2.41682e-07
3604.39	1.98035e-07
3612.95	2.72396e-07
3621.5	1.9898e-07
3630.06	3.09828e-07
3638.62	3.43946e-07
3647.18	8.05831e-07
3655.73	5.28077e-07
3664.29	5.74998e-07
3672.85	6.53587e-07
3681.41	7.67509e-07
3689.96	8.90405e-07
3698.52	8.75293e-07
3707.08	8.15706e-07
3715.64	9.43547e-07
3724.19	1.18069e-06
3732.75	1.59172e-06
3741.31	1.98988e-06
3749.87	2.25905e-06
3758.42	2.35428e-06
3766.98	2.15584e-06
3775.54	1.94353e-06
3784.1	1.65207e-06
3792.66	1.70668e-06
3801.21	2.40365e-06
3809.77	1.51879e-06
3818.33	1.95373e-06
3826.89	1.7743e-06
3835.44	1.73381e-06
3844	1.53027e-06
3852.56	1.5046e-06
3861.12	1.2159e-06
3869.67	1.55076e-06
3878.23	1.45623e-06
3886.79	1.59963e-06
3895.35	1.45744e-06
3903.9	1.65356e-06
3912.46	1.55299e-06
3921.02	1.5914e-06
3929.58	1.97893e-06
3938.13	1.77149e-06
3946.69	2.14309e-06
3955.25	2.12579e-06
3963.81	1.8142e-06
3972.37	1.61167e-06
