Infrared Spectrum: 1,2-Epoxypropane
Formula: C3 H6 O
CAS: 75-56-9
State: gas
Melting point: -104.4 C
Boiling point: 34.3 C
Class: IUPAC A
Instrument: IFS66V (Bruker)
Instrument parameters: KBr Beam splitter; MCT Detector; Multipass cell
Sampling: 1 L/min Flow
Resolution: 0.9640
Temperature: 23 C
Pressure: 101.3 kPa
Origin: NIST, Anayltical Chemistry Division, 301-975-3108
cm-1	(micromol/mol)-1m-1 (base 10)
575.169	-3.69612e-07
583.847	-4.36021e-07
592.525	-2.83846e-07
601.203	-4.32428e-07
609.882	-3.19967e-07
618.56	-2.88949e-07
627.238	-3.06573e-07
635.916	-3.98007e-07
644.594	-2.50745e-07
653.272	-3.89913e-07
661.951	-3.26408e-07
670.629	-2.62445e-07
679.307	-2.13723e-07
687.985	-2.11219e-07
696.663	-6.1027e-08
705.341	1.149e-07
714.019	7.46983e-07
722.698	2.27135e-06
731.376	6.04693e-06
740.054	1.46299e-05
748.732	2.23562e-05
757.41	3.2653e-05
766.088	3.44004e-05
774.767	2.94722e-05
783.445	1.32893e-05
792.123	1.2397e-05
800.801	2.13037e-05
809.479	4.81966e-05
818.157	0.000103471
826.835	0.000149644
835.514	0.000158266
844.192	0.000149456
852.87	0.000116451
861.548	4.89036e-05
870.226	2.27143e-05
878.904	1.39257e-05
887.583	1.17677e-05
896.261	9.75994e-06
904.939	1.16446e-05
913.617	1.14729e-05
922.295	1.32761e-05
930.973	2.07801e-05
939.651	3.33019e-05
948.33	4.4064e-05
957.008	3.18584e-05
965.686	4.48068e-05
974.364	3.11416e-05
983.042	1.91367e-05
991.72	1.46867e-05
1000.4	1.8228e-05
1009.08	2.66589e-05
1017.75	3.26973e-05
1026.43	3.18829e-05
1035.11	2.70455e-05
1043.79	1.68795e-05
1052.47	8.93469e-06
1061.15	4.14857e-06
1069.82	3.05484e-06
1078.5	5.08508e-06
1087.18	9.66761e-06
1095.86	1.56976e-05
1104.54	2.04938e-05
1113.21	3.37255e-05
1121.89	2.99896e-05
1130.57	2.92207e-05
1139.25	2.35168e-05
1147.93	1.65907e-05
1156.61	1.6149e-05
1165.28	1.0796e-05
1173.96	6.43227e-06
1182.64	3.17567e-06
1191.32	1.96977e-06
1200	1.44672e-06
1208.67	1.2422e-06
1217.35	1.58438e-06
1226.03	2.43323e-06
1234.71	5.38457e-06
1243.39	1.01636e-05
1252.07	1.67233e-05
1260.74	2.05583e-05
1269.42	1.77033e-05
1278.1	1.83631e-05
1286.78	1.18566e-05
1295.46	6.43861e-06
1304.13	3.06805e-06
1312.81	1.65201e-06
1321.49	1.25694e-06
1330.17	1.45705e-06
1338.85	2.5955e-06
1347.52	4.67159e-06
1356.2	7.76576e-06
1364.88	1.05354e-05
1373.56	1.42625e-05
1382.24	1.87045e-05
1390.92	4.5506e-05
1399.59	7.91719e-05
1408.27	6.921e-05
1416.95	5.99054e-05
1425.63	8.62752e-05
1434.31	4.16431e-05
1442.98	3.31837e-05
1451.66	2.66036e-05
1460.34	3.26568e-05
1469.02	3.10832e-05
1477.7	3.05729e-05
1486.38	2.85709e-05
1495.05	2.26156e-05
1503.73	2.27595e-05
1512.41	1.56133e-05
1521.09	1.23384e-05
1529.77	1.3016e-05
1538.44	5.74872e-06
1547.12	2.86378e-06
1555.8	1.78557e-06
1564.48	1.69919e-06
1573.16	2.18204e-06
1581.83	2.53127e-06
1590.51	3.47444e-06
1599.19	3.06332e-06
1607.87	2.66519e-06
1616.55	2.27362e-06
1625.23	1.4756e-06
1633.9	1.8639e-06
1642.58	2.20269e-06
1651.26	2.88909e-06
1659.94	3.01777e-06
1668.62	2.89824e-06
1677.29	2.6595e-06
1685.97	2.55419e-06
1694.65	2.13141e-06
1703.33	1.8742e-06
1712.01	1.99528e-06
1720.69	1.81007e-06
1729.36	1.14956e-06
1738.04	6.40263e-07
1746.72	4.36256e-07
1755.4	3.02514e-07
1764.08	4.65732e-07
1772.75	1.24701e-06
1781.43	7.98236e-07
1790.11	9.97464e-07
1798.79	8.46943e-07
1807.47	7.15884e-07
1816.15	3.04824e-07
1824.82	3.46038e-07
1833.5	3.22382e-07
1842.18	4.16843e-07
1850.86	4.31544e-07
1859.54	4.00826e-07
1868.21	6.7426e-07
1876.89	5.59853e-07
1885.57	7.02409e-07
1894.25	8.28627e-07
1902.93	1.01649e-06
1911.6	1.25712e-06
1920.28	8.65478e-07
1928.96	6.67929e-07
1937.64	5.84261e-07
1946.32	7.88487e-07
1955	1.418e-06
1963.67	1.45302e-06
1972.35	1.41846e-06
1981.03	1.85498e-06
1989.71	1.25972e-06
1998.39	1.13272e-06
2007.06	1.29204e-06
2015.74	1.17582e-06
2024.42	1.30423e-06
2033.1	1.04067e-06
2041.78	6.13761e-07
2050.46	3.00218e-07
2059.13	3.02393e-07
2067.81	3.95878e-07
2076.49	5.34502e-07
2085.17	6.96092e-07
2093.85	6.06223e-07
2102.52	5.64895e-07
2111.2	4.63821e-07
2119.88	4.63586e-07
2128.56	6.27398e-07
2137.24	1.05374e-06
2145.91	1.80103e-06
2154.59	2.18297e-06
2163.27	2.6425e-06
2171.95	2.39599e-06
2180.63	2.52554e-06
2189.31	1.86078e-06
2197.98	1.33983e-06
2206.66	1.68251e-06
2215.34	1.53139e-06
2224.02	1.89945e-06
2232.7	2.25935e-06
2241.37	2.63351e-06
2250.05	3.69425e-06
2258.73	4.15638e-06
2267.41	3.49849e-06
2276.09	3.32874e-06
2284.77	3.0088e-06
2293.44	2.2123e-06
2302.12	1.83575e-06
2310.8	1.77308e-06
2319.48	1.38293e-06
2328.16	1.1152e-06
2336.83	1.14436e-06
2345.51	9.08599e-07
2354.19	8.10103e-07
2362.87	6.90898e-07
2371.55	6.65759e-07
2380.23	5.81877e-07
2388.9	4.92634e-07
2397.58	5.79817e-07
2406.26	6.87632e-07
2414.94	8.40565e-07
2423.62	8.3981e-07
2432.29	7.58023e-07
2440.97	5.42274e-07
2449.65	4.22179e-07
2458.33	3.23034e-07
2467.01	3.33645e-07
2475.68	3.80025e-07
2484.36	3.95777e-07
2493.04	5.26615e-07
2501.72	6.61941e-07
2510.4	8.11296e-07
2519.08	8.30169e-07
2527.75	1.14196e-06
2536.43	8.06855e-07
2545.11	5.734e-07
2553.79	6.19565e-07
2562.47	4.89576e-07
2571.14	5.60175e-07
2579.82	6.97677e-07
2588.5	9.93742e-07
2597.18	1.28671e-06
2605.86	1.43551e-06
2614.54	1.64251e-06
2623.21	1.47761e-06
2631.89	1.38311e-06
2640.57	1.11623e-06
2649.25	9.21326e-07
2657.93	7.11415e-07
2666.6	4.70098e-07
2675.28	3.13472e-07
2683.96	2.48945e-07
2692.64	2.24122e-07
2701.32	2.77506e-07
2709.99	5.14916e-07
2718.67	9.48204e-07
2727.35	9.51003e-07
2736.03	1.15688e-06
2744.71	1.73958e-06
2753.39	1.72588e-06
2762.06	2.27072e-06
2770.74	5.57499e-06
2779.42	4.08265e-06
2788.1	5.23926e-06
2796.78	5.70869e-06
2805.45	5.21316e-06
2814.13	4.57988e-06
2822.81	4.33853e-06
2831.49	4.60885e-06
2840.17	4.89147e-06
2848.85	5.89632e-06
2857.52	7.83159e-06
2866.2	1.64348e-05
2874.88	1.71763e-05
2883.56	1.92097e-05
2892.24	2.73098e-05
2900.91	4.11006e-05
2909.59	4.35638e-05
2918.27	6.6944e-05
2926.95	8.46959e-05
2935.63	8.43987e-05
2944.31	8.21153e-05
2952.98	0.000106591
2961.66	0.000109557
2970.34	0.000139542
2979.02	0.000169974
2987.7	0.000198532
2996.37	0.000200583
3005.05	0.000172453
3013.73	0.000163278
3022.41	0.000138669
3031.09	0.000122955
3039.76	0.000114969
3048.44	0.000132263
3057.12	8.94063e-05
3065.8	7.63778e-05
3074.48	4.2031e-05
3083.16	2.01747e-05
3091.83	8.22703e-06
3100.51	3.67382e-06
3109.19	2.17147e-06
3117.87	1.91704e-06
3126.55	1.95842e-06
3135.22	2.23046e-06
3143.9	2.67501e-06
3152.58	2.9075e-06
3161.26	3.8748e-06
3169.94	3.22847e-06
3178.62	3.12767e-06
3187.29	2.6298e-06
3195.97	1.76084e-06
3204.65	9.35688e-07
3213.33	4.90594e-07
3222.01	2.71996e-07
3230.68	2.16469e-07
3239.36	1.72334e-07
3248.04	1.65727e-07
3256.72	1.68034e-07
3265.4	1.82123e-07
3274.07	1.54344e-07
3282.75	1.72106e-07
3291.43	2.4077e-07
3300.11	2.28944e-07
3308.79	2.75774e-07
3317.47	4.83023e-07
3326.14	7.96505e-07
3334.82	9.61064e-07
3343.5	9.22306e-07
3352.18	1.2139e-06
3360.86	1.05858e-06
3369.53	8.30404e-07
3378.21	8.39021e-07
3386.89	1.00888e-06
3395.57	1.07373e-06
3404.25	9.10272e-07
3412.93	7.74284e-07
3421.6	5.94719e-07
3430.28	5.61838e-07
3438.96	3.77909e-07
3447.64	4.336e-07
3456.32	2.44576e-07
3464.99	2.68188e-07
3473.67	2.4745e-07
3482.35	2.29311e-07
3491.03	1.35836e-07
3499.71	1.05235e-07
3508.39	1.52425e-07
3517.06	1.72139e-07
3525.74	1.83142e-07
3534.42	1.72095e-07
3543.1	1.22589e-07
3551.78	2.07587e-07
3560.45	1.63033e-07
3569.13	1.29962e-07
3577.81	1.37743e-07
3586.49	3.11533e-07
3595.17	2.52606e-07
3603.84	1.48302e-07
3612.52	3.98028e-07
3621.2	2.07284e-07
3629.88	6.49674e-07
3638.56	3.10803e-07
3647.24	5.97751e-07
3655.91	7.05305e-07
3664.59	5.28055e-07
3673.27	6.84824e-07
3681.95	7.3638e-07
3690.63	9.38522e-07
3699.3	8.13885e-07
3707.98	8.64244e-07
3716.66	9.92364e-07
3725.34	1.20313e-06
3734.02	1.58441e-06
3742.7	1.79026e-06
3751.37	2.3625e-06
3760.05	2.41362e-06
3768.73	2.08659e-06
3777.41	1.92652e-06
3786.09	1.74951e-06
3794.76	1.62943e-06
3803.44	1.75463e-06
3812.12	1.51105e-06
3820.8	2.09511e-06
3829.48	1.57242e-06
3838.16	2.18053e-06
3846.83	1.34409e-06
3855.51	1.41545e-06
3864.19	1.42742e-06
3872.87	1.46044e-06
3881.55	1.60074e-06
3890.22	1.6716e-06
3898.9	1.89879e-06
3907.58	1.53081e-06
3916.26	1.6133e-06
3924.94	1.8289e-06
3933.61	1.89848e-06
3942.29	2.12951e-06
3950.97	2.13774e-06
3959.65	1.91036e-06
3968.33	1.67435e-06
