Infrared Spectrum: 1,2-Epoxypropane
Formula: C3 H6 O
CAS: 75-56-9
State: gas
Melting point: -104.4 C
Boiling point: 34.3 C
Class: IUPAC A
Instrument: IFS66V (Bruker)
Instrument parameters: KBr Beam splitter; MCT Detector; Multipass cell
Sampling: 1 L/min Flow
Resolution: 0.2410
Temperature: 23 C
Pressure: 101.3 kPa
Origin: NIST, Anayltical Chemistry Division, 301-975-3108
cm-1	(micromol/mol)-1m-1 (base 10)
575.048	-7.42746e-07
583.606	-2.29835e-08
592.163	-2.48583e-07
600.721	-3.22345e-07
609.279	-2.51393e-07
617.836	-2.30298e-07
626.394	-3.16764e-07
634.951	-2.45298e-07
643.509	-3.57549e-07
652.067	-3.75112e-07
660.624	-4.97773e-07
669.182	-3.6567e-07
677.74	-4.15687e-07
686.297	-1.6742e-07
694.855	-3.18186e-08
703.412	-1.07751e-08
711.97	4.67204e-07
720.528	1.87349e-06
729.085	4.74264e-06
737.643	1.17362e-05
746.201	2.089e-05
754.758	2.74829e-05
763.316	2.89536e-05
771.873	3.55272e-05
780.431	1.67401e-05
788.989	1.14765e-05
797.546	1.64594e-05
806.104	3.50704e-05
814.662	7.75355e-05
823.219	0.000138519
831.777	0.00012395
840.334	0.000127694
848.892	0.000143069
857.45	7.54683e-05
866.007	3.14728e-05
874.565	1.67899e-05
883.123	1.2123e-05
891.68	9.86816e-06
900.238	1.10426e-05
908.795	1.15359e-05
917.353	1.15488e-05
925.911	1.60152e-05
934.468	2.49811e-05
943.026	3.82894e-05
951.584	4.32596e-05
960.141	4.50712e-05
968.699	4.06904e-05
977.256	2.64362e-05
985.814	1.68002e-05
994.372	1.50455e-05
1002.93	2.09643e-05
1011.49	2.75222e-05
1020.04	2.8482e-05
1028.6	3.58954e-05
1037.16	2.32223e-05
1045.72	1.48437e-05
1054.28	7.58125e-06
1062.83	3.58929e-06
1071.39	3.18168e-06
1079.95	5.66001e-06
1088.51	1.04993e-05
1097.06	1.68353e-05
1105.62	2.08432e-05
1114.18	3.32396e-05
1122.74	2.96959e-05
1131.29	2.96443e-05
1139.85	2.33858e-05
1148.41	1.73632e-05
1156.97	1.61902e-05
1165.52	1.05515e-05
1174.08	6.39602e-06
1182.64	3.19373e-06
1191.2	2.06056e-06
1199.75	1.48537e-06
1208.31	1.20781e-06
1216.87	1.54491e-06
1225.43	2.30922e-06
1233.99	4.99585e-06
1242.54	9.45514e-06
1251.1	1.61916e-05
1259.66	2.10168e-05
1268.22	1.5166e-05
1276.77	2.05669e-05
1285.33	1.2848e-05
1293.89	7.1718e-06
1302.45	3.62013e-06
1311	1.82766e-06
1319.56	1.23511e-06
1328.12	1.25819e-06
1336.68	2.30166e-06
1345.23	4.07935e-06
1353.79	6.84912e-06
1362.35	9.44994e-06
1370.91	1.79756e-05
1379.46	1.59037e-05
1388.02	3.38685e-05
1396.58	7.31435e-05
1405.14	5.82256e-05
1413.7	3.18079e-05
1422.25	9.3572e-05
1430.81	5.55001e-05
1439.37	3.34108e-05
1447.93	2.79937e-05
1456.48	3.08164e-05
1465.04	4.24759e-05
1473.6	3.96433e-05
1482.16	2.74752e-05
1490.71	2.41543e-05
1499.27	2.50716e-05
1507.83	1.85698e-05
1516.39	1.46166e-05
1524.94	1.34982e-05
1533.5	1.04265e-05
1542.06	5.11346e-06
1550.62	2.32755e-06
1559.18	1.71098e-06
1567.73	1.76412e-06
1576.29	4.23056e-06
1584.85	2.53378e-06
1593.41	2.16124e-06
1601.96	3.42455e-06
1610.52	2.1331e-06
1619.08	1.44757e-06
1627.64	1.7248e-06
1636.19	2.20833e-06
1644.75	2.13052e-06
1653.31	5.18071e-06
1661.87	2.96073e-06
1670.42	3.0765e-06
1678.98	2.60102e-06
1687.54	2.38731e-06
1696.1	3.59651e-06
1704.65	2.09906e-06
1713.21	2.08504e-06
1721.77	1.76233e-06
1730.33	1.13038e-06
1738.89	5.92322e-07
1747.44	3.86269e-07
1756	2.91456e-07
1764.56	4.38529e-07
1773.12	9.09881e-07
1781.67	8.08537e-07
1790.23	1.0036e-06
1798.79	8.43574e-07
1807.35	7.13335e-07
1815.9	3.06884e-07
1824.46	2.25248e-07
1833.02	3.42752e-07
1841.58	3.96301e-07
1850.13	4.24558e-07
1858.69	4.10339e-07
1867.25	6.14422e-07
1875.81	5.44978e-07
1884.36	7.14791e-07
1892.92	8.01397e-07
1901.48	9.4886e-07
1910.04	1.22831e-06
1918.6	8.83212e-07
1927.15	6.81935e-07
1935.71	5.92563e-07
1944.27	6.46007e-07
1952.83	1.2536e-06
1961.38	1.49723e-06
1969.94	1.18574e-06
1978.5	1.99554e-06
1987.06	1.37031e-06
1995.61	1.07428e-06
2004.17	1.21005e-06
2012.73	1.25184e-06
2021.29	1.10243e-06
2029.84	1.13251e-06
2038.4	7.92227e-07
2046.96	4.21443e-07
2055.52	2.28689e-07
2064.08	3.02338e-07
2072.63	4.93141e-07
2081.19	5.2724e-07
2089.75	5.41298e-07
2098.31	7.73392e-07
2106.86	4.93762e-07
2115.42	4.78663e-07
2123.98	5.93659e-07
2132.54	7.12234e-07
2141.09	1.36244e-06
2149.65	2.02817e-06
2158.21	2.75035e-06
2166.77	2.94392e-06
2175.32	2.89847e-06
2183.88	1.9528e-06
2192.44	1.21371e-06
2201	1.33987e-06
2209.55	1.1415e-06
2218.11	1.723e-06
2226.67	2.02366e-06
2235.23	2.65366e-06
2243.79	2.98214e-06
2252.34	3.37098e-06
2260.9	2.93784e-06
2269.46	3.63133e-06
2278.02	2.99288e-06
2286.57	3.12453e-06
2295.13	2.16124e-06
2303.69	1.71611e-06
2312.25	1.79387e-06
2320.8	1.30407e-06
2329.36	9.87441e-07
2337.92	1.06362e-06
2346.48	8.74301e-07
2355.03	7.99276e-07
2363.59	6.30679e-07
2372.15	6.98439e-07
2380.71	5.56049e-07
2389.26	5.12746e-07
2397.82	5.55432e-07
2406.38	6.90586e-07
2414.94	8.13117e-07
2423.5	8.72358e-07
2432.05	7.59113e-07
2440.61	5.53128e-07
2449.17	4.22997e-07
2457.73	3.25648e-07
2466.28	3.32568e-07
2474.84	3.35671e-07
2483.4	3.62333e-07
2491.96	5.0362e-07
2500.51	6.66607e-07
2509.07	7.88224e-07
2517.63	7.94414e-07
2526.19	1.07823e-06
2534.74	8.50265e-07
2543.3	6.56596e-07
2551.86	6.25619e-07
2560.42	5.22571e-07
2568.98	5.19046e-07
2577.53	6.3113e-07
2586.09	8.71558e-07
2594.65	1.17993e-06
2603.21	1.4791e-06
2611.76	1.54966e-06
2620.32	1.48525e-06
2628.88	1.41648e-06
2637.44	1.26055e-06
2645.99	9.59358e-07
2654.55	8.92107e-07
2663.11	5.12197e-07
2671.67	4.56179e-07
2680.22	3.40435e-07
2688.78	2.7146e-07
2697.34	2.35629e-07
2705.9	4.20698e-07
2714.45	8.0002e-07
2723.01	9.916e-07
2731.57	1.79207e-06
2740.13	1.58988e-06
2748.69	1.78472e-06
2757.24	1.90626e-06
2765.8	2.43347e-06
2774.36	3.36399e-06
2782.92	4.53686e-06
2791.47	5.52591e-06
2800.03	5.39363e-06
2808.59	8.44674e-06
2817.15	4.47763e-06
2825.7	4.4998e-06
2834.26	4.12001e-06
2842.82	5.14834e-06
2851.38	6.27034e-06
2859.93	8.82381e-06
2868.49	1.66768e-05
2877.05	1.83372e-05
2885.61	2.4447e-05
2894.16	3.02582e-05
2902.72	4.35074e-05
2911.28	4.51143e-05
2919.84	7.16276e-05
2928.4	9.73781e-05
2936.95	8.44905e-05
2945.51	8.30596e-05
2954.07	0.000106969
2962.63	0.000112114
2971.18	0.000139489
2979.74	0.000175485
2988.3	0.000199488
2996.86	0.00019472
3005.41	0.000172361
3013.97	0.00016334
3022.53	0.000138363
3031.09	0.00012298
3039.64	0.000115048
3048.2	0.000113059
3056.76	8.89804e-05
3065.32	7.81978e-05
3073.88	4.39685e-05
3082.43	2.16121e-05
3090.99	9.04115e-06
3099.55	3.90417e-06
3108.11	2.17018e-06
3116.66	1.88201e-06
3125.22	1.94402e-06
3133.78	2.11063e-06
3142.34	2.45345e-06
3150.89	2.79385e-06
3159.45	3.60728e-06
3168.01	3.24394e-06
3176.57	3.52362e-06
3185.12	2.76092e-06
3193.68	2.02865e-06
3202.24	1.09578e-06
3210.8	5.61588e-07
3219.35	3.8194e-07
3227.91	2.00333e-07
3236.47	1.9872e-07
3245.03	8.89626e-08
3253.59	2.20207e-07
3262.14	1.34629e-07
3270.7	8.70018e-08
3279.26	2.37228e-07
3287.82	1.69564e-07
3296.37	2.47681e-07
3304.93	2.79725e-07
3313.49	4.08426e-07
3322.05	5.40127e-07
3330.6	9.79346e-07
3339.16	1.11546e-06
3347.72	9.78384e-07
3356.28	1.20661e-06
3364.83	9.82558e-07
3373.39	8.58367e-07
3381.95	8.10803e-07
3390.51	9.2969e-07
3399.06	9.38639e-07
3407.62	7.89308e-07
3416.18	8.27782e-07
3424.74	4.64842e-07
3433.3	4.55079e-07
3441.85	3.70514e-07
3450.41	3.72186e-07
3458.97	2.2935e-07
3467.53	3.48356e-07
3476.08	2.12003e-07
3484.64	1.83723e-07
3493.2	1.78773e-07
3501.76	9.71566e-08
3510.31	5.6878e-08
3518.87	1.53322e-07
3527.43	1.07957e-07
3535.99	9.35655e-08
3544.54	1.17344e-07
3553.1	1.2752e-07
3561.66	1.12425e-07
3570.22	1.99536e-07
3578.78	1.80266e-07
3587.33	1.96372e-07
3595.89	2.57452e-07
3604.45	1.56044e-07
3613.01	2.68262e-07
3621.56	2.0201e-07
3630.12	2.98655e-07
3638.68	2.83017e-07
3647.24	7.04118e-07
3655.79	5.33274e-07
3664.35	5.58477e-07
3672.91	6.58123e-07
3681.47	7.61882e-07
3690.02	8.67913e-07
3698.58	8.604e-07
3707.14	8.26438e-07
3715.7	9.5032e-07
3724.25	1.17064e-06
3732.81	1.5808e-06
3741.37	1.91514e-06
3749.93	2.23113e-06
3758.49	2.33075e-06
3767.04	2.15262e-06
3775.6	1.95399e-06
3784.16	1.6958e-06
3792.72	1.67126e-06
3801.27	2.95228e-06
3809.83	1.46054e-06
3818.39	1.94823e-06
3826.95	1.74512e-06
3835.5	1.70207e-06
3844.06	1.51525e-06
3852.62	1.43314e-06
3861.18	1.2471e-06
3869.73	1.57448e-06
3878.29	1.48742e-06
3886.85	1.61277e-06
3895.41	1.51882e-06
3903.96	1.8261e-06
3912.52	1.60134e-06
3921.08	1.61045e-06
3929.64	1.9247e-06
3938.2	1.81465e-06
3946.75	2.12185e-06
3955.31	2.11684e-06
3963.87	1.8186e-06
3972.43	1.59469e-06
