Infrared Spectrum: 1,2-Epoxypropane
Formula: C3 H6 O
CAS: 75-56-9
State: gas
Melting point: -104.4 C
Boiling point: 34.3 C
Class: IUPAC A
Instrument: IFS66V (Bruker)
Instrument parameters: KBr Beam splitter; MCT Detector; Multipass cell
Sampling: 1 L/min Flow
Resolution: 0.9640
Temperature: 23 C
Pressure: 101.3 kPa
Origin: NIST, Anayltical Chemistry Division, 301-975-3108
cm-1	(micromol/mol)-1m-1 (base 10)
575.169	-3.77238e-07
583.847	-4.51152e-07
592.525	-2.96385e-07
601.203	-4.4985e-07
609.882	-3.46009e-07
618.56	-3.15843e-07
627.238	-2.96053e-07
635.916	-4.11336e-07
644.594	-2.59446e-07
653.272	-4.05368e-07
661.951	-3.29662e-07
670.629	-2.68183e-07
679.307	-2.16646e-07
687.985	-2.16408e-07
696.663	-5.01101e-08
705.341	8.45216e-08
714.019	7.36656e-07
722.698	2.27309e-06
731.376	6.02685e-06
740.054	1.46286e-05
748.732	2.23856e-05
757.41	3.35246e-05
766.088	3.44217e-05
774.767	2.94522e-05
783.445	1.31983e-05
792.123	1.23694e-05
800.801	2.12648e-05
809.479	4.81762e-05
818.157	0.000103348
826.835	0.000149639
835.514	0.000155959
844.192	0.000149544
852.87	0.000116611
861.548	4.8961e-05
870.226	2.27502e-05
878.904	1.39366e-05
887.583	1.1768e-05
896.261	9.81812e-06
904.939	1.16718e-05
913.617	1.14841e-05
922.295	1.32812e-05
930.973	2.0798e-05
939.651	3.33047e-05
948.33	4.40806e-05
957.008	3.16304e-05
965.686	4.48232e-05
974.364	3.11453e-05
983.042	1.91442e-05
991.72	1.46922e-05
1000.4	1.82525e-05
1009.08	2.66912e-05
1017.75	3.27686e-05
1026.43	3.19925e-05
1035.11	2.70655e-05
1043.79	1.68657e-05
1052.47	8.95071e-06
1061.15	4.15021e-06
1069.82	3.05565e-06
1078.5	5.07344e-06
1087.18	9.65566e-06
1095.86	1.56841e-05
1104.54	2.04191e-05
1113.21	3.38181e-05
1121.89	3.00081e-05
1130.57	2.92192e-05
1139.25	2.35911e-05
1147.93	1.6641e-05
1156.61	1.61087e-05
1165.28	1.07913e-05
1173.96	6.43152e-06
1182.64	3.17065e-06
1191.32	1.97525e-06
1200	1.44453e-06
1208.67	1.21264e-06
1217.35	1.58093e-06
1226.03	2.42901e-06
1234.71	5.38307e-06
1243.39	1.01621e-05
1252.07	1.67392e-05
1260.74	2.05189e-05
1269.42	1.77859e-05
1278.1	1.83689e-05
1286.78	1.18499e-05
1295.46	6.44436e-06
1304.13	3.06191e-06
1312.81	1.64739e-06
1321.49	1.2489e-06
1330.17	1.44663e-06
1338.85	2.5892e-06
1347.52	4.66149e-06
1356.2	7.76127e-06
1364.88	1.05892e-05
1373.56	1.31192e-05
1382.24	1.86732e-05
1390.92	4.5412e-05
1399.59	7.92601e-05
1408.27	6.80996e-05
1416.95	6.00473e-05
1425.63	8.63731e-05
1434.31	4.1578e-05
1442.98	3.32005e-05
1451.66	2.65978e-05
1460.34	3.23836e-05
1469.02	3.11688e-05
1477.7	3.06076e-05
1486.38	2.8216e-05
1495.05	2.26177e-05
1503.73	2.27756e-05
1512.41	1.57084e-05
1521.09	1.24756e-05
1529.77	1.30236e-05
1538.44	5.68739e-06
1547.12	2.87699e-06
1555.8	1.78626e-06
1564.48	1.72038e-06
1573.16	2.19428e-06
1581.83	2.53666e-06
1590.51	3.51577e-06
1599.19	3.06985e-06
1607.87	2.66772e-06
1616.55	2.42872e-06
1625.23	1.47862e-06
1633.9	1.84949e-06
1642.58	2.21869e-06
1651.26	2.86846e-06
1659.94	3.02193e-06
1668.62	2.87255e-06
1677.29	2.66853e-06
1685.97	2.50984e-06
1694.65	2.10578e-06
1703.33	1.86949e-06
1712.01	1.99314e-06
1720.69	1.81429e-06
1729.36	1.14904e-06
1738.04	6.46414e-07
1746.72	4.41523e-07
1755.4	3.08387e-07
1764.08	4.71407e-07
1772.75	1.36612e-06
1781.43	7.84303e-07
1790.11	9.80961e-07
1798.79	8.43499e-07
1807.47	7.26067e-07
1816.15	3.08764e-07
1824.82	3.54125e-07
1833.5	3.25179e-07
1842.18	4.26672e-07
1850.86	4.32561e-07
1859.54	4.02335e-07
1868.21	6.74967e-07
1876.89	5.62826e-07
1885.57	7.053e-07
1894.25	8.32e-07
1902.93	1.01853e-06
1911.6	1.26736e-06
1920.28	8.69978e-07
1928.96	6.68019e-07
1937.64	5.8445e-07
1946.32	7.92404e-07
1955	1.42512e-06
1963.67	1.45421e-06
1972.35	1.41619e-06
1981.03	1.85306e-06
1989.71	1.26008e-06
1998.39	1.13357e-06
2007.06	1.29316e-06
2015.74	1.18072e-06
2024.42	1.34156e-06
2033.1	1.0417e-06
2041.78	6.16482e-07
2050.46	3.03821e-07
2059.13	3.14813e-07
2067.81	3.99318e-07
2076.49	5.36711e-07
2085.17	7.10083e-07
2093.85	6.09142e-07
2102.52	5.66182e-07
2111.2	4.65975e-07
2119.88	4.64182e-07
2128.56	6.28679e-07
2137.24	1.05283e-06
2145.91	1.80531e-06
2154.59	2.18653e-06
2163.27	2.64471e-06
2171.95	2.39562e-06
2180.63	2.52918e-06
2189.31	1.86347e-06
2197.98	1.34305e-06
2206.66	1.68682e-06
2215.34	1.5343e-06
2224.02	1.89486e-06
2232.7	2.26352e-06
2241.37	2.63239e-06
2250.05	3.71682e-06
2258.73	4.16165e-06
2267.41	3.50223e-06
2276.09	3.33369e-06
2284.77	3.01432e-06
2293.44	2.21549e-06
2302.12	1.811e-06
2310.8	1.7737e-06
2319.48	1.38636e-06
2328.16	1.12196e-06
2336.83	1.13894e-06
2345.51	9.07149e-07
2354.19	8.21033e-07
2362.87	7.02625e-07
2371.55	6.72911e-07
2380.23	5.83119e-07
2388.9	4.89986e-07
2397.58	5.7548e-07
2406.26	6.94391e-07
2414.94	8.30472e-07
2423.62	8.45985e-07
2432.29	7.68357e-07
2440.97	5.39458e-07
2449.65	4.2703e-07
2458.33	3.24412e-07
2467.01	3.32972e-07
2475.68	3.82664e-07
2484.36	3.95007e-07
2493.04	5.30128e-07
2501.72	6.60059e-07
2510.4	8.18482e-07
2519.08	8.30145e-07
2527.75	1.14522e-06
2536.43	8.03264e-07
2545.11	5.76853e-07
2553.79	6.22256e-07
2562.47	4.91583e-07
2571.14	5.63141e-07
2579.82	6.93555e-07
2588.5	9.98175e-07
2597.18	1.28125e-06
2605.86	1.43619e-06
2614.54	1.64577e-06
2623.21	1.47548e-06
2631.89	1.38841e-06
2640.57	1.12016e-06
2649.25	9.202e-07
2657.93	7.08067e-07
2666.6	4.71738e-07
2675.28	3.13495e-07
2683.96	2.52977e-07
2692.64	2.29667e-07
2701.32	2.75679e-07
2709.99	5.15501e-07
2718.67	9.46091e-07
2727.35	9.44641e-07
2736.03	1.16906e-06
2744.71	1.73224e-06
2753.39	1.72683e-06
2762.06	2.27969e-06
2770.74	5.67702e-06
2779.42	4.08709e-06
2788.1	5.23083e-06
2796.78	5.70854e-06
2805.45	5.18417e-06
2814.13	4.57722e-06
2822.81	4.33994e-06
2831.49	4.55815e-06
2840.17	4.91069e-06
2848.85	5.90748e-06
2857.52	7.80882e-06
2866.2	1.61424e-05
2874.88	1.71703e-05
2883.56	1.91935e-05
2892.24	2.7281e-05
2900.91	4.11642e-05
2909.59	4.35352e-05
2918.27	6.67058e-05
2926.95	8.44173e-05
2935.63	8.43968e-05
2944.31	8.18947e-05
2952.98	0.000106594
2961.66	0.00010946
2970.34	0.000139671
2979.02	0.000170027
2987.7	0.000198631
2996.37	0.000199938
3005.05	0.000172375
3013.73	0.000163223
3022.41	0.000138676
3031.09	0.000122967
3039.76	0.000114927
3048.44	0.000128226
3057.12	8.94809e-05
3065.8	7.63789e-05
3074.48	4.2008e-05
3083.16	2.01588e-05
3091.83	8.20558e-06
3100.51	3.67665e-06
3109.19	2.16071e-06
3117.87	1.91128e-06
3126.55	1.95855e-06
3135.22	2.23216e-06
3143.9	2.66499e-06
3152.58	2.90624e-06
3161.26	3.87021e-06
3169.94	3.22668e-06
3178.62	3.13496e-06
3187.29	2.63103e-06
3195.97	1.75863e-06
3204.65	9.31922e-07
3213.33	4.79195e-07
3222.01	2.66686e-07
3230.68	2.0785e-07
3239.36	1.75968e-07
3248.04	1.70818e-07
3256.72	1.71293e-07
3265.4	1.8495e-07
3274.07	1.56255e-07
3282.75	1.57522e-07
3291.43	2.33639e-07
3300.11	2.28229e-07
3308.79	2.76712e-07
3317.47	4.91563e-07
3326.14	8.01769e-07
3334.82	9.62357e-07
3343.5	9.24564e-07
3352.18	1.2001e-06
3360.86	1.05207e-06
3369.53	8.22513e-07
3378.21	8.41747e-07
3386.89	9.98929e-07
3395.57	1.07673e-06
3404.25	9.09466e-07
3412.93	7.77471e-07
3421.6	5.97999e-07
3430.28	5.64212e-07
3438.96	3.7359e-07
3447.64	4.40848e-07
3456.32	2.44229e-07
3464.99	2.54755e-07
3473.67	2.49334e-07
3482.35	2.4014e-07
3491.03	1.45017e-07
3499.71	1.0195e-07
3508.39	1.48283e-07
3517.06	1.73241e-07
3525.74	1.8576e-07
3534.42	1.75167e-07
3543.1	1.09398e-07
3551.78	2.01887e-07
3560.45	1.57153e-07
3569.13	1.15351e-07
3577.81	1.35149e-07
3586.49	3.37265e-07
3595.17	2.59785e-07
3603.84	1.41097e-07
3612.52	4.36604e-07
3621.2	2.12659e-07
3629.88	7.02834e-07
3638.56	3.10581e-07
3647.24	6.3481e-07
3655.91	7.28793e-07
3664.59	5.21319e-07
3673.27	6.82266e-07
3681.95	7.34864e-07
3690.63	9.1853e-07
3699.3	8.1072e-07
3707.98	8.64196e-07
3716.66	9.84983e-07
3725.34	1.20496e-06
3734.02	1.56069e-06
3742.7	1.78192e-06
3751.37	2.27924e-06
3760.05	2.4374e-06
3768.73	2.07022e-06
3777.41	1.91455e-06
3786.09	1.74268e-06
3794.76	1.62793e-06
3803.44	1.75336e-06
3812.12	1.50281e-06
3820.8	2.11985e-06
3829.48	1.5672e-06
3838.16	2.2705e-06
3846.83	1.3566e-06
3855.51	1.37361e-06
3864.19	1.4115e-06
3872.87	1.44474e-06
3881.55	1.5959e-06
3890.22	1.65537e-06
3898.9	1.89574e-06
3907.58	1.52334e-06
3916.26	1.60995e-06
3924.94	1.8422e-06
3933.61	1.90444e-06
3942.29	2.11414e-06
3950.97	2.13366e-06
3959.65	1.90736e-06
3968.33	1.66453e-06
