Infrared Spectrum: 1,2-Epoxypropane
Formula: C3 H6 O
CAS: 75-56-9
State: gas
Melting point: -104.4 C
Boiling point: 34.3 C
Class: IUPAC A
Instrument: IFS66V (Bruker)
Instrument parameters: KBr Beam splitter; MCT Detector; Multipass cell
Sampling: 1 L/min Flow
Resolution: 0.1250
Temperature: 23 C
Pressure: 101.3 kPa
Origin: NIST, Anayltical Chemistry Division, 301-975-3108
cm-1	(micromol/mol)-1m-1 (base 10)
574.988	-1.19255e-06
583.546	5.68556e-07
592.103	-4.09223e-07
600.661	-4.7132e-07
609.219	1.49252e-07
617.776	-2.15278e-07
626.334	-1.51682e-07
634.891	-3.54371e-07
643.449	-3.65187e-07
652.007	-4.07605e-07
660.564	-4.54923e-07
669.122	-4.80452e-07
677.68	-3.40396e-07
686.237	-8.37672e-08
694.795	-5.08358e-08
703.352	-1.03464e-07
711.91	4.24551e-07
720.468	1.94762e-06
729.025	4.53624e-06
737.583	1.14979e-05
746.141	2.04851e-05
754.698	2.70195e-05
763.256	2.86333e-05
771.813	3.55203e-05
780.371	1.67864e-05
788.929	1.1524e-05
797.486	1.62552e-05
806.044	3.48926e-05
814.602	7.67428e-05
823.159	0.000136832
831.717	0.000121469
840.274	0.000126681
848.832	0.000141905
857.39	7.42084e-05
865.947	3.117e-05
874.505	1.66589e-05
883.063	1.22184e-05
891.62	9.92638e-06
900.178	1.12231e-05
908.735	1.16369e-05
917.293	1.1504e-05
925.851	1.59266e-05
934.408	2.46208e-05
942.966	3.89809e-05
951.524	4.42481e-05
960.081	4.45903e-05
968.639	4.02811e-05
977.196	2.6628e-05
985.754	1.67199e-05
994.312	1.52047e-05
1002.87	2.09093e-05
1011.43	2.81339e-05
1019.98	2.94494e-05
1028.54	3.83722e-05
1037.1	2.27332e-05
1045.66	1.47245e-05
1054.22	7.67211e-06
1062.77	3.62405e-06
1071.33	3.20767e-06
1079.89	5.708e-06
1088.45	1.03465e-05
1097	1.67527e-05
1105.56	2.06056e-05
1114.12	3.29722e-05
1122.68	2.97437e-05
1131.23	2.95652e-05
1139.79	2.36947e-05
1148.35	1.75305e-05
1156.91	1.61077e-05
1165.46	1.06255e-05
1174.02	6.41938e-06
1182.58	3.18695e-06
1191.14	2.10359e-06
1199.69	1.46174e-06
1208.25	1.22524e-06
1216.81	1.54416e-06
1225.37	2.27645e-06
1233.93	4.84697e-06
1242.48	9.23355e-06
1251.04	1.63097e-05
1259.6	2.0959e-05
1268.16	1.50258e-05
1276.71	2.14153e-05
1285.27	1.28965e-05
1293.83	7.16508e-06
1302.39	3.6836e-06
1310.94	1.82629e-06
1319.5	1.2957e-06
1328.06	1.20431e-06
1336.62	2.29088e-06
1345.17	4.09474e-06
1353.73	6.84194e-06
1362.29	9.37513e-06
1370.85	1.73551e-05
1379.4	1.59088e-05
1387.96	3.36955e-05
1396.52	7.18091e-05
1405.08	5.76612e-05
1413.64	3.12469e-05
1422.19	9.38167e-05
1430.75	5.62186e-05
1439.31	3.25851e-05
1447.87	2.80206e-05
1456.42	3.02175e-05
1464.98	4.37517e-05
1473.54	3.99262e-05
1482.1	2.73619e-05
1490.65	2.3951e-05
1499.21	2.50526e-05
1507.77	1.85816e-05
1516.33	1.47804e-05
1524.88	1.3455e-05
1533.44	1.04035e-05
1542	5.01138e-06
1550.56	2.37747e-06
1559.11	1.70398e-06
1567.67	1.77135e-06
1576.23	5.05032e-06
1584.79	2.55384e-06
1593.35	2.15826e-06
1601.9	3.45074e-06
1610.46	2.13705e-06
1619.02	1.46792e-06
1627.58	1.65494e-06
1636.13	2.27137e-06
1644.69	2.14007e-06
1653.25	5.8709e-06
1661.81	2.96272e-06
1670.36	3.06369e-06
1678.92	2.64525e-06
1687.48	2.38963e-06
1696.04	4.12532e-06
1704.59	2.21162e-06
1713.15	2.11109e-06
1721.71	1.78264e-06
1730.27	1.09793e-06
1738.83	6.04475e-07
1747.38	3.85601e-07
1755.94	2.72688e-07
1764.5	4.51072e-07
1773.06	9.69879e-07
1781.61	8.02296e-07
1790.17	1.01885e-06
1798.73	8.41382e-07
1807.29	7.10364e-07
1815.84	3.15988e-07
1824.4	2.39732e-07
1832.96	3.57752e-07
1841.52	4.15839e-07
1850.07	3.97759e-07
1858.63	4.2606e-07
1867.19	6.20922e-07
1875.75	5.62546e-07
1884.3	6.89083e-07
1892.86	7.97771e-07
1901.42	9.40292e-07
1909.98	1.28241e-06
1918.54	8.8465e-07
1927.09	6.6413e-07
1935.65	6.28479e-07
1944.21	6.40536e-07
1952.77	1.25881e-06
1961.32	1.47337e-06
1969.88	1.19182e-06
1978.44	1.98746e-06
1987	1.36308e-06
1995.55	1.03842e-06
2004.11	1.20574e-06
2012.67	1.30302e-06
2021.23	1.10571e-06
2029.78	1.13037e-06
2038.34	7.56379e-07
2046.9	4.02776e-07
2055.46	2.12768e-07
2064.01	2.89386e-07
2072.57	5.06019e-07
2081.13	5.15127e-07
2089.69	5.22952e-07
2098.25	8.03639e-07
2106.8	4.86719e-07
2115.36	4.77468e-07
2123.92	5.86004e-07
2132.48	7.20503e-07
2141.03	1.34519e-06
2149.59	2.05351e-06
2158.15	2.63096e-06
2166.71	3.02122e-06
2175.26	2.85569e-06
2183.82	1.93717e-06
2192.38	1.24192e-06
2200.94	1.30873e-06
2209.49	1.15273e-06
2218.05	1.6901e-06
2226.61	2.03685e-06
2235.17	2.63606e-06
2243.72	2.96597e-06
2252.28	3.37539e-06
2260.84	2.90391e-06
2269.4	3.62943e-06
2277.96	3.03493e-06
2286.51	3.11172e-06
2295.07	2.17033e-06
2303.63	1.67261e-06
2312.19	1.78927e-06
2320.74	1.28582e-06
2329.3	1.02548e-06
2337.86	1.06718e-06
2346.42	8.4491e-07
2354.97	7.73957e-07
2363.53	6.83612e-07
2372.09	7.03829e-07
2380.65	5.48095e-07
2389.2	5.23512e-07
2397.76	5.34277e-07
2406.32	6.95615e-07
2414.88	8.10719e-07
2423.44	8.59049e-07
2431.99	7.701e-07
2440.55	5.72834e-07
2449.11	3.92548e-07
2457.67	3.13664e-07
2466.22	3.01181e-07
2474.78	3.17335e-07
2483.34	3.49224e-07
2491.9	5.29925e-07
2500.45	6.86312e-07
2509.01	7.67014e-07
2517.57	8.12398e-07
2526.13	1.10232e-06
2534.68	8.64452e-07
2543.24	6.25438e-07
2551.8	6.18938e-07
2560.36	5.37108e-07
2568.91	5.16406e-07
2577.47	6.07935e-07
2586.03	8.95316e-07
2594.59	1.15577e-06
2603.15	1.4511e-06
2611.7	1.52422e-06
2620.26	1.48618e-06
2628.82	1.37224e-06
2637.38	1.25724e-06
2645.93	9.59099e-07
2654.49	8.87079e-07
2663.05	4.79813e-07
2671.61	4.56642e-07
2680.16	3.70011e-07
2688.72	3.01233e-07
2697.28	2.04504e-07
2705.84	4.15189e-07
2714.39	8.25682e-07
2722.95	9.98132e-07
2731.51	1.78873e-06
2740.07	1.58578e-06
2748.62	1.80227e-06
2757.18	1.95855e-06
2765.74	2.37072e-06
2774.3	3.38043e-06
2782.86	4.57753e-06
2791.41	5.44727e-06
2799.97	5.43328e-06
2808.53	8.32355e-06
2817.09	4.49319e-06
2825.64	4.48229e-06
2834.2	4.15066e-06
2842.76	5.0539e-06
2851.32	6.29034e-06
2859.87	8.6614e-06
2868.43	1.66661e-05
2876.99	1.8093e-05
2885.55	2.40017e-05
2894.1	3.01139e-05
2902.66	4.35144e-05
2911.22	4.49838e-05
2919.78	7.15066e-05
2928.34	9.62368e-05
2936.89	8.42792e-05
2945.45	8.29694e-05
2954.01	0.000106887
2962.57	0.000111938
2971.12	0.000139323
2979.68	0.000175322
2988.24	0.000199321
2996.8	0.000195144
3005.35	0.000172101
3013.91	0.000163284
3022.47	0.000138544
3031.03	0.000123199
3039.58	0.000115595
3048.14	0.000110526
3056.7	8.86391e-05
3065.26	7.81148e-05
3073.81	4.36798e-05
3082.37	2.16566e-05
3090.93	9.06547e-06
3099.49	3.92385e-06
3108.05	2.18291e-06
3116.6	1.83333e-06
3125.16	1.93067e-06
3133.72	2.12666e-06
3142.28	2.47309e-06
3150.83	2.76479e-06
3159.39	3.55914e-06
3167.95	3.28264e-06
3176.51	3.59743e-06
3185.06	2.81681e-06
3193.62	2.04393e-06
3202.18	1.14991e-06
3210.74	5.42905e-07
3219.29	4.17644e-07
3227.85	1.03094e-07
3236.41	1.81428e-07
3244.97	1.19729e-07
3253.52	2.52896e-07
3262.08	1.69334e-07
3270.64	5.05598e-08
3279.2	3.13884e-07
3287.76	2.11755e-07
3296.31	3.22392e-07
3304.87	2.31911e-07
3313.43	3.58684e-07
3321.99	5.10737e-07
3330.54	9.68783e-07
3339.1	1.14697e-06
3347.66	9.60158e-07
3356.22	1.19241e-06
3364.77	8.37108e-07
3373.33	8.12158e-07
3381.89	8.1742e-07
3390.45	9.38716e-07
3399	9.96997e-07
3407.56	7.60287e-07
3416.12	8.19777e-07
3424.68	2.92539e-07
3433.23	4.42753e-07
3441.79	2.37302e-07
3450.35	2.72085e-07
3458.91	2.68572e-07
3467.47	3.87678e-07
3476.02	2.24684e-07
3484.58	1.47623e-07
3493.14	1.81508e-07
3501.7	1.16759e-07
3510.25	5.44265e-08
3518.81	2.21063e-07
3527.37	1.30062e-07
3535.93	1.15913e-09
3544.48	1.272e-07
3553.04	3.63387e-08
3561.6	-1.24049e-08
3570.16	1.62263e-07
3578.71	2.05885e-07
3587.27	2.30237e-07
3595.83	2.44904e-07
3604.39	2.12795e-07
3612.95	2.85039e-07
3621.5	2.08142e-07
3630.06	3.0458e-07
3638.62	3.68743e-07
3647.18	8.30091e-07
3655.73	5.28963e-07
3664.29	5.80284e-07
3672.85	6.72441e-07
3681.41	7.67874e-07
3689.96	8.98648e-07
3698.52	8.75916e-07
3707.08	8.14955e-07
3715.64	9.47857e-07
3724.19	1.19532e-06
3732.75	1.57982e-06
3741.31	1.99149e-06
3749.87	2.25576e-06
3758.42	2.35066e-06
3766.98	2.15792e-06
3775.54	1.92574e-06
3784.1	1.6451e-06
3792.66	1.71265e-06
3801.21	2.37062e-06
3809.77	1.53294e-06
3818.33	1.95094e-06
3826.89	1.76414e-06
3835.44	1.74828e-06
3844	1.52388e-06
3852.56	1.52483e-06
3861.12	1.19739e-06
3869.67	1.56701e-06
3878.23	1.44249e-06
3886.79	1.59836e-06
3895.35	1.43355e-06
3903.9	1.63745e-06
3912.46	1.54162e-06
3921.02	1.59885e-06
3929.58	1.99122e-06
3938.13	1.76183e-06
3946.69	2.14953e-06
3955.25	2.12481e-06
3963.81	1.80757e-06
3972.37	1.6309e-06
