Infrared Spectrum: 1,2-Epoxypropane
Formula: C3 H6 O
CAS: 75-56-9
State: gas
Melting point: -104.4 C
Boiling point: 34.3 C
Class: IUPAC A
Instrument: IFS66V (Bruker)
Instrument parameters: KBr Beam splitter; MCT Detector; Multipass cell
Sampling: 1 L/min Flow
Resolution: 1.9290
Temperature: 23 C
Pressure: 101.3 kPa
Origin: NIST, Anayltical Chemistry Division, 301-975-3108
cm-1	(micromol/mol)-1m-1 (base 10)
574.687	-3.52161e-07
583.365	-4.1908e-07
592.043	-3.09056e-07
600.721	-3.63635e-07
609.4	-3.21314e-07
618.078	-2.69907e-07
626.756	-3.29321e-07
635.434	-3.69261e-07
644.112	-2.72319e-07
652.79	-4.05132e-07
661.469	-3.44877e-07
670.147	-2.65172e-07
678.825	-2.37286e-07
687.503	-2.12496e-07
696.181	-9.69178e-08
704.859	1.16227e-07
713.537	7.09634e-07
722.216	2.14198e-06
730.894	5.81546e-06
739.572	1.4034e-05
748.25	2.21593e-05
756.928	3.22238e-05
765.606	3.34802e-05
774.285	3.0642e-05
782.963	1.40023e-05
791.641	1.21601e-05
800.319	2.05401e-05
808.997	4.60035e-05
817.675	9.99564e-05
826.353	0.000148881
835.032	0.000144471
843.71	0.00014925
852.388	0.000120493
861.066	5.15449e-05
869.744	2.35056e-05
878.422	1.425e-05
887.101	1.17802e-05
895.779	1.03123e-05
904.457	1.16588e-05
913.135	1.15152e-05
921.813	1.30171e-05
930.491	2.02704e-05
939.169	3.25771e-05
947.848	4.34671e-05
956.526	3.08969e-05
965.204	4.54851e-05
973.882	3.20269e-05
982.56	1.96432e-05
991.238	1.47282e-05
999.917	1.78073e-05
1008.59	2.6178e-05
1017.27	3.2921e-05
1025.95	2.93289e-05
1034.63	2.76049e-05
1043.31	1.74211e-05
1051.99	9.30347e-06
1060.66	4.31814e-06
1069.34	3.02571e-06
1078.02	4.91779e-06
1086.7	9.38895e-06
1095.38	1.53778e-05
1104.05	2.09189e-05
1112.73	3.31227e-05
1121.41	2.99708e-05
1130.09	2.91201e-05
1138.77	2.33943e-05
1147.45	1.64572e-05
1156.12	1.59851e-05
1164.8	1.11963e-05
1173.48	6.66909e-06
1182.16	3.26618e-06
1190.84	2.0422e-06
1199.51	1.43784e-06
1208.19	1.39325e-06
1216.87	1.55915e-06
1225.55	2.35369e-06
1234.23	5.15641e-06
1242.9	9.8493e-06
1251.58	1.63628e-05
1260.26	2.04355e-05
1268.94	1.68929e-05
1277.62	1.86154e-05
1286.3	1.22469e-05
1294.97	6.671e-06
1303.65	3.2072e-06
1312.33	1.70363e-06
1321.01	1.25559e-06
1329.69	1.41077e-06
1338.36	2.48708e-06
1347.04	4.52039e-06
1355.72	7.57705e-06
1364.4	1.0345e-05
1373.08	2.45588e-05
1381.76	1.81456e-05
1390.43	4.38262e-05
1399.11	7.93145e-05
1407.79	6.50837e-05
1416.47	5.53011e-05
1425.15	8.81626e-05
1433.82	4.35791e-05
1442.5	3.30744e-05
1451.18	2.62867e-05
1459.86	3.13099e-05
1468.54	3.10938e-05
1477.22	3.07034e-05
1485.89	2.71344e-05
1494.57	2.21988e-05
1503.25	2.3164e-05
1511.93	1.57043e-05
1520.61	1.17634e-05
1529.28	1.33613e-05
1537.96	5.86377e-06
1546.64	2.97375e-06
1555.32	1.96394e-06
1564	1.63618e-06
1572.67	2.16285e-06
1581.35	2.52829e-06
1590.03	3.32662e-06
1598.71	2.9759e-06
1607.39	2.78151e-06
1616.07	1.9017e-06
1624.74	1.53914e-06
1633.42	1.84403e-06
1642.1	2.19497e-06
1650.78	2.86877e-06
1659.46	3.01696e-06
1668.13	2.84491e-06
1676.81	2.69632e-06
1685.49	3.02549e-06
1694.17	2.10108e-06
1702.85	1.8791e-06
1711.53	1.90892e-06
1720.2	1.85712e-06
1728.88	1.15895e-06
1737.56	6.32769e-07
1746.24	4.27989e-07
1754.92	2.89873e-07
1763.59	4.65406e-07
1772.27	1.07075e-06
1780.95	8.06448e-07
1789.63	9.52522e-07
1798.31	8.04973e-07
1806.98	7.2711e-07
1815.66	3.25472e-07
1824.34	2.89568e-07
1833.02	3.27791e-07
1841.7	4.15139e-07
1850.38	4.28171e-07
1859.05	4.39984e-07
1867.73	6.63017e-07
1876.41	5.55825e-07
1885.09	6.96712e-07
1893.77	8.11311e-07
1902.44	9.88279e-07
1911.12	1.22507e-06
1919.8	8.75226e-07
1928.48	6.79216e-07
1937.16	5.89353e-07
1945.84	7.42904e-07
1954.51	1.37673e-06
1963.19	1.46295e-06
1971.87	1.3751e-06
1980.55	1.95798e-06
1989.23	1.28513e-06
1997.9	1.10863e-06
2006.58	1.27724e-06
2015.26	1.17752e-06
2023.94	1.16121e-06
2032.62	1.06054e-06
2041.3	6.34486e-07
2049.97	3.07843e-07
2058.65	2.7196e-07
2067.33	3.83437e-07
2076.01	5.41151e-07
2084.69	7.17733e-07
2093.36	6.03184e-07
2102.04	5.59708e-07
2110.72	4.72525e-07
2119.4	4.66561e-07
2128.08	6.18646e-07
2136.75	1.01931e-06
2145.43	1.78425e-06
2154.11	2.17467e-06
2162.79	2.58902e-06
2171.47	2.32875e-06
2180.15	2.62283e-06
2188.82	1.82047e-06
2197.5	1.33997e-06
2206.18	1.56649e-06
2214.86	1.49064e-06
2223.54	1.91929e-06
2232.21	2.20408e-06
2240.89	2.57965e-06
2249.57	3.66356e-06
2258.25	3.60972e-06
2266.93	3.46666e-06
2275.61	3.4144e-06
2284.28	2.95344e-06
2292.96	2.22745e-06
2301.64	1.9869e-06
2310.32	1.70775e-06
2319	1.39591e-06
2327.67	1.09348e-06
2336.35	1.17266e-06
2345.03	9.28608e-07
2353.71	7.78779e-07
2362.39	6.87235e-07
2371.06	6.05868e-07
2379.74	6.02706e-07
2388.42	5.01277e-07
2397.1	5.94276e-07
2405.78	6.75096e-07
2414.46	7.95415e-07
2423.13	8.63855e-07
2431.81	7.41389e-07
2440.49	5.62457e-07
2449.17	4.2402e-07
2457.85	3.32575e-07
2466.52	3.25339e-07
2475.2	3.67854e-07
2483.88	3.89124e-07
2492.56	5.19099e-07
2501.24	6.51402e-07
2509.92	8.05353e-07
2518.59	8.09745e-07
2527.27	1.11239e-06
2535.95	8.32637e-07
2544.63	5.70899e-07
2553.31	6.29711e-07
2561.98	5.00079e-07
2570.66	5.40343e-07
2579.34	6.94004e-07
2588.02	9.68971e-07
2596.7	1.28205e-06
2605.38	1.45919e-06
2614.05	1.66086e-06
2622.73	1.48384e-06
2631.41	1.39229e-06
2640.09	1.11578e-06
2648.77	9.23659e-07
2657.44	7.35588e-07
2666.12	4.78999e-07
2674.8	3.44915e-07
2683.48	2.44559e-07
2692.16	2.19547e-07
2700.83	2.77641e-07
2709.51	4.85722e-07
2718.19	9.40853e-07
2726.87	9.58733e-07
2735.55	1.08772e-06
2744.23	1.69493e-06
2752.9	1.73809e-06
2761.58	2.21695e-06
2770.26	5.08644e-06
2778.94	4.01149e-06
2787.62	5.18272e-06
2796.29	5.71971e-06
2804.97	5.21301e-06
2813.65	4.52304e-06
2822.33	4.38441e-06
2831.01	4.93428e-06
2839.69	4.79599e-06
2848.36	5.80934e-06
2857.04	8.00277e-06
2865.72	1.53766e-05
2874.4	1.72236e-05
2883.08	1.8732e-05
2891.75	2.65237e-05
2900.43	4.00636e-05
2909.11	4.36031e-05
2917.79	6.65029e-05
2926.47	8.41489e-05
2935.14	8.45984e-05
2943.82	8.45445e-05
2952.5	0.000106227
2961.18	0.000109091
2969.86	0.00013876
2978.54	0.000166101
2987.21	0.000197582
2995.89	0.000206643
3004.57	0.000174757
3013.25	0.000163595
3021.93	0.000140025
3030.6	0.000123607
3039.28	0.000116845
3047.96	0.000116222
3056.64	8.75578e-05
3065.32	7.82261e-05
3074	4.37349e-05
3082.67	2.11491e-05
3091.35	8.74211e-06
3100.03	3.77228e-06
3108.71	2.22115e-06
3117.39	1.88507e-06
3126.06	1.95981e-06
3134.74	2.17607e-06
3143.42	2.60092e-06
3152.1	2.86398e-06
3160.78	3.80936e-06
3169.46	3.24795e-06
3178.13	3.1783e-06
3186.81	2.63235e-06
3195.49	1.81642e-06
3204.17	9.59578e-07
3212.85	5.35388e-07
3221.52	2.8805e-07
3230.2	2.46176e-07
3238.88	1.5563e-07
3247.56	1.70801e-07
3256.24	1.55402e-07
3264.91	1.73773e-07
3273.59	1.52438e-07
3282.27	2.20232e-07
3290.95	2.39902e-07
3299.63	2.46014e-07
3308.31	2.67963e-07
3316.98	4.53679e-07
3325.66	7.79289e-07
3334.34	9.44701e-07
3343.02	1.02806e-06
3351.7	1.2045e-06
3360.37	1.05075e-06
3369.05	8.36983e-07
3377.73	8.49045e-07
3386.41	1.03927e-06
3395.09	1.06748e-06
3403.77	9.44705e-07
3412.44	7.92331e-07
3421.12	5.87842e-07
3429.8	5.39735e-07
3438.48	3.87546e-07
3447.16	4.19186e-07
3455.83	2.70317e-07
3464.51	3.05627e-07
3473.19	2.49922e-07
3481.87	1.94656e-07
3490.55	1.29202e-07
3499.22	1.10208e-07
3507.9	1.32645e-07
3516.58	1.62121e-07
3525.26	1.7998e-07
3533.94	1.58745e-07
3542.62	1.40039e-07
3551.29	2.00035e-07
3559.97	1.69714e-07
3568.65	2.1029e-07
3577.33	1.49195e-07
3586.01	2.45041e-07
3594.68	2.25518e-07
3603.36	1.69737e-07
3612.04	3.123e-07
3620.72	2.60455e-07
3629.4	6.44823e-07
3638.08	3.02675e-07
3646.75	5.03569e-07
3655.43	5.43397e-07
3664.11	5.36819e-07
3672.79	6.58131e-07
3681.47	7.45823e-07
3690.14	9.37287e-07
3698.82	8.3199e-07
3707.5	8.58589e-07
3716.18	9.83415e-07
3724.86	1.18717e-06
3733.54	1.58366e-06
3742.21	1.78165e-06
3750.89	2.31555e-06
3759.57	2.41547e-06
3768.25	2.09141e-06
3776.93	1.95917e-06
3785.6	1.77208e-06
3794.28	1.62062e-06
3802.96	1.76338e-06
3811.64	1.48896e-06
3820.32	2.00872e-06
3828.99	1.58674e-06
3837.67	2.05269e-06
3846.35	1.32619e-06
3855.03	1.85573e-06
3863.71	1.3613e-06
3872.39	1.45218e-06
3881.06	1.66374e-06
3889.74	1.6469e-06
3898.42	1.81258e-06
3907.1	1.55185e-06
3915.78	1.60422e-06
3924.45	1.77863e-06
3933.13	1.92197e-06
3941.81	2.3012e-06
3950.49	2.11955e-06
3959.17	1.93301e-06
3967.85	1.69542e-06
