Infrared Spectrum: 1,2-Epoxypropane
Formula: C3 H6 O
CAS: 75-56-9
State: gas
Melting point: -104.4 C
Boiling point: 34.3 C
Class: IUPAC A
Instrument: IFS66V (Bruker)
Instrument parameters: KBr Beam splitter; MCT Detector; Multipass cell
Sampling: 1 L/min Flow
Resolution: 0.4820
Temperature: 23 C
Pressure: 101.3 kPa
Origin: NIST, Anayltical Chemistry Division, 301-975-3108
cm-1	(micromol/mol)-1m-1 (base 10)
574.928	-2.10419e-07
583.606	1.23487e-07
592.284	-2.22379e-07
600.962	-3.0935e-07
609.641	-3.08527e-07
618.319	-1.28423e-07
626.997	-3.05608e-07
635.675	-7.03896e-07
644.353	-1.45562e-07
653.031	-3.16101e-07
661.71	-1.8203e-07
670.388	-2.42976e-07
679.066	-2.76487e-07
687.744	-2.60606e-07
696.422	4.81783e-08
705.1	4.33422e-08
713.778	7.74361e-07
722.457	2.13944e-06
731.135	6.10344e-06
739.813	1.43557e-05
748.491	2.21937e-05
757.169	3.51509e-05
765.847	3.37451e-05
774.526	3.01272e-05
783.204	1.33964e-05
791.882	1.23346e-05
800.56	2.09136e-05
809.238	4.71999e-05
817.916	0.000101295
826.594	0.000150544
835.273	0.000162193
843.951	0.000148789
852.629	0.000119719
861.307	5.03464e-05
869.985	2.30701e-05
878.663	1.39179e-05
887.342	1.091e-05
896.02	1.18176e-05
904.698	1.19576e-05
913.376	1.13835e-05
922.054	1.31679e-05
930.732	2.03036e-05
939.41	3.34312e-05
948.089	4.68633e-05
956.767	3.00616e-05
965.445	4.49557e-05
974.123	3.16136e-05
982.801	1.93574e-05
991.479	1.45927e-05
1000.16	1.81033e-05
1008.84	2.8805e-05
1017.51	3.20335e-05
1026.19	3.32991e-05
1034.87	2.36107e-05
1043.55	1.64873e-05
1052.23	9.18785e-06
1060.9	4.07822e-06
1069.58	2.95033e-06
1078.26	4.97998e-06
1086.94	9.53315e-06
1095.62	1.54463e-05
1104.3	2.0126e-05
1112.97	3.46808e-05
1121.65	3.0129e-05
1130.33	2.91214e-05
1139.01	2.28969e-05
1147.69	1.59231e-05
1156.36	1.59192e-05
1165.04	1.09796e-05
1173.72	6.54096e-06
1182.4	3.22018e-06
1191.08	2.04799e-06
1199.76	1.47266e-06
1208.43	1.17897e-06
1217.11	1.61166e-06
1225.79	2.39151e-06
1234.47	5.22543e-06
1243.15	9.96112e-06
1251.82	1.72034e-05
1260.5	2.15872e-05
1269.18	1.70717e-05
1277.86	1.72737e-05
1286.54	1.21777e-05
1295.21	6.65917e-06
1303.89	3.15692e-06
1312.57	1.74237e-06
1321.25	1.25002e-06
1329.93	1.44821e-06
1338.61	2.59936e-06
1347.28	4.53058e-06
1355.96	7.92933e-06
1364.64	1.08353e-05
1373.32	1.40492e-05
1382	1.85694e-05
1390.67	4.42862e-05
1399.35	7.97853e-05
1408.03	6.67879e-05
1416.71	5.70309e-05
1425.39	8.72193e-05
1434.07	4.19021e-05
1442.74	3.32208e-05
1451.42	2.56093e-05
1460.1	3.10808e-05
1468.78	3.18215e-05
1477.46	3.08617e-05
1486.13	2.66484e-05
1494.81	2.21735e-05
1503.49	2.30457e-05
1512.17	1.62057e-05
1520.85	1.14564e-05
1529.52	1.31848e-05
1538.2	5.52725e-06
1546.88	2.90767e-06
1555.56	1.76807e-06
1564.24	1.64263e-06
1572.92	2.14744e-06
1581.59	2.5418e-06
1590.27	3.46969e-06
1598.95	3.02533e-06
1607.63	2.63875e-06
1616.31	1.49781e-06
1624.98	1.44015e-06
1633.66	1.79202e-06
1642.34	2.20488e-06
1651.02	2.84611e-06
1659.7	3.03152e-06
1668.38	2.95528e-06
1677.05	2.6732e-06
1685.73	2.35509e-06
1694.41	2.15384e-06
1703.09	1.69395e-06
1711.77	1.85681e-06
1720.44	1.85063e-06
1729.12	1.10044e-06
1737.8	7.31894e-07
1746.48	4.14278e-07
1755.16	2.83955e-07
1763.84	4.66433e-07
1772.51	1.37649e-06
1781.19	6.94305e-07
1789.87	9.1552e-07
1798.55	8.25106e-07
1807.23	6.89999e-07
1815.9	3.02584e-07
1824.58	2.34946e-07
1833.26	3.22933e-07
1841.94	4.07467e-07
1850.62	3.87626e-07
1859.29	3.92178e-07
1867.97	7.48522e-07
1876.65	5.58981e-07
1885.33	7.28919e-07
1894.01	8.20386e-07
1902.69	9.95408e-07
1911.36	1.2993e-06
1920.04	9.15044e-07
1928.72	6.45791e-07
1937.4	5.74715e-07
1946.08	7.20835e-07
1954.75	1.40208e-06
1963.43	1.45891e-06
1972.11	1.38463e-06
1980.79	1.8749e-06
1989.47	1.25149e-06
1998.15	1.09111e-06
2006.82	1.24771e-06
2015.5	1.10821e-06
2024.18	1.121e-06
2032.86	1.09366e-06
2041.54	6.04607e-07
2050.21	2.83002e-07
2058.89	2.95454e-07
2067.57	3.81325e-07
2076.25	5.42076e-07
2084.93	8.54461e-07
2093.6	6.22469e-07
2102.28	5.4777e-07
2110.96	5.15135e-07
2119.64	4.5465e-07
2128.32	5.85251e-07
2137	9.99209e-07
2145.67	1.79706e-06
2154.35	2.16037e-06
2163.03	2.66062e-06
2171.71	2.27241e-06
2180.39	2.59469e-06
2189.06	1.75036e-06
2197.74	1.33851e-06
2206.42	1.64085e-06
2215.1	1.49011e-06
2223.78	1.90374e-06
2232.46	2.21184e-06
2241.13	2.61404e-06
2249.81	3.87818e-06
2258.49	3.50297e-06
2267.17	3.47893e-06
2275.85	3.37556e-06
2284.52	2.98021e-06
2293.2	2.21149e-06
2301.88	1.81602e-06
2310.56	1.6719e-06
2319.24	1.39208e-06
2327.92	1.09261e-06
2336.59	1.13526e-06
2345.27	8.62157e-07
2353.95	7.75871e-07
2362.63	6.98164e-07
2371.31	6.47151e-07
2379.98	5.7756e-07
2388.66	4.40787e-07
2397.34	5.94076e-07
2406.02	7.2722e-07
2414.7	7.82918e-07
2423.37	8.71185e-07
2432.05	7.4105e-07
2440.73	5.24857e-07
2449.41	4.07072e-07
2458.09	3.39518e-07
2466.77	3.09229e-07
2475.44	3.75746e-07
2484.12	4.04526e-07
2492.8	5.68845e-07
2501.48	6.39523e-07
2510.16	8.45062e-07
2518.83	7.8959e-07
2527.51	1.12698e-06
2536.19	8.18277e-07
2544.87	5.56943e-07
2553.55	6.38314e-07
2562.23	5.50241e-07
2570.9	6.10061e-07
2579.58	6.63675e-07
2588.26	9.74063e-07
2596.94	1.2605e-06
2605.62	1.44054e-06
2614.29	1.68177e-06
2622.97	1.44845e-06
2631.65	1.40139e-06
2640.33	1.10763e-06
2649.01	9.46053e-07
2657.68	7.16867e-07
2666.36	4.50262e-07
2675.04	2.74647e-07
2683.72	2.75023e-07
2692.4	2.62838e-07
2701.08	2.63386e-07
2709.75	5.07857e-07
2718.43	8.93524e-07
2727.11	9.36534e-07
2735.79	1.0523e-06
2744.47	1.67802e-06
2753.14	1.73451e-06
2761.82	2.21996e-06
2770.5	5.33787e-06
2779.18	4.07286e-06
2787.86	5.11748e-06
2796.54	5.68213e-06
2805.21	5.09176e-06
2813.89	4.54452e-06
2822.57	4.38627e-06
2831.25	4.72309e-06
2839.93	4.89151e-06
2848.6	5.78396e-06
2857.28	7.67228e-06
2865.96	1.53415e-05
2874.64	1.72602e-05
2883.32	1.87751e-05
2892	2.67803e-05
2900.67	4.08889e-05
2909.35	4.36603e-05
2918.03	6.63071e-05
2926.71	8.32027e-05
2935.39	8.42123e-05
2944.06	8.19156e-05
2952.74	0.000106384
2961.42	0.000109271
2970.1	0.000138259
2978.78	0.000168609
2987.45	0.000198245
2996.13	0.000203663
3004.81	0.0001738
3013.49	0.000162911
3022.17	0.000139425
3030.85	0.000123293
3039.52	0.000116263
3048.2	0.000112505
3056.88	8.95084e-05
3065.56	7.7112e-05
3074.24	4.28032e-05
3082.91	2.07296e-05
3091.59	8.487e-06
3100.27	3.6909e-06
3108.95	2.25953e-06
3117.63	1.87752e-06
3126.31	2.01711e-06
3134.98	2.22101e-06
3143.66	2.65019e-06
3152.34	2.89994e-06
3161.02	3.90485e-06
3169.7	3.26816e-06
3178.37	3.08963e-06
3187.05	2.69128e-06
3195.73	1.89642e-06
3204.41	9.98511e-07
3213.09	4.21195e-07
3221.77	3.12553e-07
3230.44	2.77154e-07
3239.12	2.19348e-07
3247.8	2.65923e-07
3256.48	1.87068e-07
3265.16	1.4584e-07
3273.83	1.94937e-07
3282.51	1.58278e-07
3291.19	2.42464e-07
3299.87	2.13513e-07
3308.55	2.64938e-07
3317.22	5.3903e-07
3325.9	8.68736e-07
3334.58	1.01818e-06
3343.26	9.38816e-07
3351.94	1.05857e-06
3360.62	9.64476e-07
3369.29	8.1513e-07
3377.97	9.10396e-07
3386.65	1.02815e-06
3395.33	1.02167e-06
3404.01	8.51654e-07
3412.68	8.36615e-07
3421.36	6.31386e-07
3430.04	6.39737e-07
3438.72	2.91974e-07
3447.4	4.24214e-07
3456.08	2.5348e-07
3464.75	1.62555e-07
3473.43	3.02551e-07
3482.11	3.07122e-07
3490.79	1.4743e-07
3499.47	1.52737e-07
3508.14	1.53086e-07
3516.82	2.21389e-07
3525.5	2.67553e-07
3534.18	1.96655e-07
3542.86	1.13199e-07
3551.53	2.64925e-07
3560.21	2.1832e-07
3568.89	1.83713e-07
3577.57	1.9209e-07
3586.25	1.68775e-07
3594.93	1.54841e-07
3603.6	1.9079e-07
3612.28	2.67954e-07
3620.96	2.08573e-07
3629.64	1.58693e-06
3638.32	3.447e-07
3646.99	6.44831e-07
3655.67	5.37825e-07
3664.35	5.87587e-07
3673.03	6.58376e-07
3681.71	7.16903e-07
3690.39	9.26134e-07
3699.06	7.41429e-07
3707.74	8.78132e-07
3716.42	1.01583e-06
3725.1	1.34619e-06
3733.78	1.54173e-06
3742.45	1.94113e-06
3751.13	2.21406e-06
3759.81	2.7859e-06
3768.49	2.05374e-06
3777.17	1.91706e-06
3785.85	1.79944e-06
3794.52	1.62029e-06
3803.2	1.71966e-06
3811.88	1.43557e-06
3820.56	2.25941e-06
3829.24	1.60378e-06
3837.91	3.96164e-06
3846.59	1.36224e-06
3855.27	1.18143e-06
3863.95	1.30326e-06
3872.63	1.54673e-06
3881.3	1.66438e-06
3889.98	1.61666e-06
3898.66	1.86649e-06
3907.34	1.49979e-06
3916.02	1.58138e-06
3924.7	1.75607e-06
3933.37	1.93197e-06
3942.05	2.30287e-06
3950.73	2.07027e-06
3959.41	1.90477e-06
3968.09	1.70911e-06
