Infrared Spectrum: 1,2-Epoxypropane
Formula: C3 H6 O
CAS: 75-56-9
State: gas
Melting point: -104.4 C
Boiling point: 34.3 C
Class: IUPAC A
Instrument: IFS66V (Bruker)
Instrument parameters: KBr Beam splitter; MCT Detector; Multipass cell
Sampling: 1 L/min Flow
Resolution: 0.2410
Temperature: 23 C
Pressure: 101.3 kPa
Origin: NIST, Anayltical Chemistry Division, 301-975-3108
cm-1	(micromol/mol)-1m-1 (base 10)
575.048	-8.11333e-07
583.606	1.65698e-08
592.163	-1.57523e-07
600.721	-3.84587e-07
609.279	-1.83366e-07
617.836	-2.20705e-07
626.394	-3.34229e-07
634.951	-2.45392e-07
643.509	-3.49969e-07
652.067	-3.70247e-07
660.624	-5.15396e-07
669.182	-3.77158e-07
677.74	-4.18919e-07
686.297	-1.55532e-07
694.855	-2.242e-08
703.412	-1.38564e-08
711.97	4.73862e-07
720.528	1.88467e-06
729.085	4.77502e-06
737.643	1.17584e-05
746.201	2.08172e-05
754.758	2.74065e-05
763.316	2.89445e-05
771.873	3.55474e-05
780.431	1.68536e-05
788.989	1.15206e-05
797.546	1.64956e-05
806.104	3.52283e-05
814.662	7.7542e-05
823.219	0.000137916
831.777	0.000124374
840.334	0.000127933
848.892	0.000142592
857.45	7.54561e-05
866.007	3.16134e-05
874.565	1.68597e-05
883.123	1.22096e-05
891.68	9.92918e-06
900.238	1.10438e-05
908.795	1.16008e-05
917.353	1.15749e-05
925.911	1.61343e-05
934.468	2.49345e-05
943.026	3.83204e-05
951.584	4.30717e-05
960.141	4.4914e-05
968.699	4.06061e-05
977.256	2.64612e-05
985.814	1.67493e-05
994.372	1.5202e-05
1002.93	2.092e-05
1011.49	2.7443e-05
1020.04	2.86235e-05
1028.6	3.56875e-05
1037.16	2.32826e-05
1045.72	1.48368e-05
1054.28	7.62579e-06
1062.83	3.62e-06
1071.39	3.20662e-06
1079.95	5.68773e-06
1088.51	1.04811e-05
1097.06	1.68352e-05
1105.62	2.09583e-05
1114.18	3.31217e-05
1122.74	2.96915e-05
1131.29	2.96915e-05
1139.85	2.32959e-05
1148.41	1.73338e-05
1156.97	1.61822e-05
1165.52	1.05451e-05
1174.08	6.41506e-06
1182.64	3.2146e-06
1191.2	2.07528e-06
1199.75	1.5034e-06
1208.31	1.22567e-06
1216.87	1.54978e-06
1225.43	2.30508e-06
1233.99	4.94612e-06
1242.54	9.37828e-06
1251.1	1.61884e-05
1259.66	2.10131e-05
1268.22	1.54332e-05
1276.77	2.0649e-05
1285.33	1.28382e-05
1293.89	7.19518e-06
1302.45	3.64362e-06
1311	1.85205e-06
1319.56	1.25217e-06
1328.12	1.27727e-06
1336.68	2.33225e-06
1345.23	4.11492e-06
1353.79	6.8456e-06
1362.35	9.44154e-06
1370.91	1.81593e-05
1379.46	1.59806e-05
1388.02	3.39281e-05
1396.58	7.29945e-05
1405.14	5.78697e-05
1413.7	3.30454e-05
1422.25	9.34298e-05
1430.81	5.54162e-05
1439.37	3.33699e-05
1447.93	2.80213e-05
1456.48	3.09097e-05
1465.04	4.1862e-05
1473.6	3.9463e-05
1482.16	2.75183e-05
1490.71	2.41851e-05
1499.27	2.50247e-05
1507.83	1.85696e-05
1516.39	1.45779e-05
1524.94	1.34956e-05
1533.5	1.04243e-05
1542.06	5.0979e-06
1550.62	2.35596e-06
1559.18	1.77211e-06
1567.73	1.77294e-06
1576.29	4.13466e-06
1584.85	2.53849e-06
1593.41	2.17941e-06
1601.96	3.41897e-06
1610.52	2.13693e-06
1619.08	1.45681e-06
1627.64	1.70699e-06
1636.19	2.22294e-06
1644.75	2.14354e-06
1653.31	5.23777e-06
1661.87	2.96766e-06
1670.42	3.07534e-06
1678.98	2.61022e-06
1687.54	2.38835e-06
1696.1	3.38206e-06
1704.65	2.05243e-06
1713.21	2.07827e-06
1721.77	1.75911e-06
1730.33	1.13644e-06
1738.89	6.02058e-07
1747.44	3.9022e-07
1756	2.96773e-07
1764.56	4.34017e-07
1773.12	9.35481e-07
1781.67	8.11531e-07
1790.23	1.01326e-06
1798.79	8.46864e-07
1807.35	7.16799e-07
1815.9	3.08878e-07
1824.46	2.2631e-07
1833.02	3.471e-07
1841.58	3.98148e-07
1850.13	4.26512e-07
1858.69	4.18522e-07
1867.25	6.18953e-07
1875.81	5.46145e-07
1884.36	7.11464e-07
1892.92	8.00412e-07
1901.48	9.52919e-07
1910.04	1.23704e-06
1918.6	8.92887e-07
1927.15	6.80022e-07
1935.71	5.96832e-07
1944.27	6.48196e-07
1952.83	1.2567e-06
1961.38	1.49396e-06
1969.94	1.20319e-06
1978.5	1.98895e-06
1987.06	1.37517e-06
1995.61	1.07374e-06
2004.17	1.21034e-06
2012.73	1.25819e-06
2021.29	1.11263e-06
2029.84	1.13684e-06
2038.4	7.88153e-07
2046.96	4.20643e-07
2055.52	2.26794e-07
2064.08	2.99255e-07
2072.63	4.9331e-07
2081.19	5.29394e-07
2089.75	5.32131e-07
2098.31	7.68755e-07
2106.86	4.99093e-07
2115.42	4.80941e-07
2123.98	5.89925e-07
2132.54	7.17105e-07
2141.09	1.35821e-06
2149.65	2.03138e-06
2158.21	2.72327e-06
2166.77	2.91648e-06
2175.32	2.88232e-06
2183.88	1.95296e-06
2192.44	1.22623e-06
2201	1.3314e-06
2209.55	1.15671e-06
2218.11	1.72314e-06
2226.67	2.02401e-06
2235.23	2.65317e-06
2243.79	2.98538e-06
2252.34	3.368e-06
2260.9	2.95292e-06
2269.46	3.62574e-06
2278.02	2.99223e-06
2286.57	3.12818e-06
2295.13	2.17094e-06
2303.69	1.7166e-06
2312.25	1.79695e-06
2320.8	1.30419e-06
2329.36	9.84805e-07
2337.92	1.05836e-06
2346.48	8.78457e-07
2355.03	8.0254e-07
2363.59	6.41483e-07
2372.15	6.85989e-07
2380.71	5.60484e-07
2389.26	5.147e-07
2397.82	5.6223e-07
2406.38	6.88109e-07
2414.94	8.16977e-07
2423.5	8.65642e-07
2432.05	7.52592e-07
2440.61	5.63603e-07
2449.17	4.17861e-07
2457.73	3.34054e-07
2466.28	3.27823e-07
2474.84	3.3906e-07
2483.4	3.67491e-07
2491.96	5.00536e-07
2500.51	6.76532e-07
2509.07	7.99919e-07
2517.63	8.04169e-07
2526.19	1.08425e-06
2534.74	8.44614e-07
2543.3	6.46873e-07
2551.86	6.28753e-07
2560.42	5.28762e-07
2568.98	5.14757e-07
2577.53	6.3842e-07
2586.09	8.8306e-07
2594.65	1.18043e-06
2603.21	1.47911e-06
2611.76	1.55063e-06
2620.32	1.47781e-06
2628.88	1.42567e-06
2637.44	1.25831e-06
2645.99	9.59594e-07
2654.55	9.04626e-07
2663.11	5.11607e-07
2671.67	4.59185e-07
2680.22	3.49055e-07
2688.78	2.71865e-07
2697.34	2.45009e-07
2705.9	4.23141e-07
2714.45	8.05089e-07
2723.01	9.96806e-07
2731.57	1.78496e-06
2740.13	1.59531e-06
2748.69	1.81527e-06
2757.24	1.92949e-06
2765.8	2.44823e-06
2774.36	3.37387e-06
2782.92	4.53443e-06
2791.47	5.53103e-06
2800.03	5.4128e-06
2808.59	8.38204e-06
2817.15	4.48435e-06
2825.7	4.51963e-06
2834.26	4.14539e-06
2842.82	5.1523e-06
2851.38	6.30262e-06
2859.93	8.87077e-06
2868.49	1.67497e-05
2877.05	1.84065e-05
2885.61	2.45678e-05
2894.16	3.02896e-05
2902.72	4.34546e-05
2911.28	4.52493e-05
2919.84	7.15655e-05
2928.4	9.68677e-05
2936.95	8.46738e-05
2945.51	8.33097e-05
2954.07	0.000106935
2962.63	0.00011217
2971.18	0.000139383
2979.74	0.000175403
2988.3	0.000199311
2996.86	0.000195423
3005.41	0.000172731
3013.97	0.000163312
3022.53	0.000138382
3031.09	0.000122955
3039.64	0.000115013
3048.2	0.000114538
3056.76	8.89323e-05
3065.32	7.80023e-05
3073.88	4.39766e-05
3082.43	2.16453e-05
3090.99	9.09896e-06
3099.55	3.95765e-06
3108.11	2.20856e-06
3116.66	1.91228e-06
3125.22	1.96493e-06
3133.78	2.1345e-06
3142.34	2.48176e-06
3150.89	2.81147e-06
3159.45	3.62596e-06
3168.01	3.26356e-06
3176.57	3.54821e-06
3185.12	2.76115e-06
3193.68	2.03544e-06
3202.24	1.10022e-06
3210.8	5.66916e-07
3219.35	4.0428e-07
3227.91	2.12506e-07
3236.47	2.07558e-07
3245.03	8.66625e-08
3253.59	2.17238e-07
3262.14	1.39183e-07
3270.7	7.76278e-08
3279.26	2.40195e-07
3287.82	1.77243e-07
3296.37	2.5747e-07
3304.93	2.79012e-07
3313.49	4.23469e-07
3322.05	5.43602e-07
3330.6	9.86489e-07
3339.16	1.14381e-06
3347.72	9.71246e-07
3356.28	1.18685e-06
3364.83	9.7924e-07
3373.39	8.52095e-07
3381.95	8.29692e-07
3390.51	9.47948e-07
3399.06	9.54613e-07
3407.62	7.86083e-07
3416.18	8.19179e-07
3424.74	4.65639e-07
3433.3	4.5955e-07
3441.85	3.85823e-07
3450.41	3.91547e-07
3458.97	2.44292e-07
3467.53	3.58923e-07
3476.08	2.19951e-07
3484.64	1.84965e-07
3493.2	1.88416e-07
3501.76	6.19306e-08
3510.31	6.43684e-08
3518.87	1.59591e-07
3527.43	1.12264e-07
3535.99	9.67387e-08
3544.54	1.02752e-07
3553.1	1.18953e-07
3561.66	1.01278e-07
3570.22	1.8586e-07
3578.78	1.90693e-07
3587.33	2.01315e-07
3595.89	2.56461e-07
3604.45	1.76783e-07
3613.01	2.64582e-07
3621.56	1.98523e-07
3630.12	3.07809e-07
3638.68	2.96756e-07
3647.24	6.96772e-07
3655.79	5.45628e-07
3664.35	5.66004e-07
3672.91	6.95996e-07
3681.47	7.62121e-07
3690.02	8.7489e-07
3698.58	8.66443e-07
3707.14	8.21955e-07
3715.7	9.73252e-07
3724.25	1.19827e-06
3732.81	1.60618e-06
3741.37	1.92294e-06
3749.93	2.25214e-06
3758.49	2.3348e-06
3767.04	2.15163e-06
3775.6	1.95222e-06
3784.16	1.69059e-06
3792.72	1.68053e-06
3801.27	2.82506e-06
3809.83	1.47617e-06
3818.39	1.9371e-06
3826.95	1.74222e-06
3835.5	1.72135e-06
3844.06	1.51102e-06
3852.62	1.47013e-06
3861.18	1.25598e-06
3869.73	1.59242e-06
3878.29	1.47346e-06
3886.85	1.62668e-06
3895.41	1.52847e-06
3903.96	1.7965e-06
3912.52	1.59331e-06
3921.08	1.62052e-06
3929.64	1.91903e-06
3938.2	1.80553e-06
3946.75	2.14569e-06
3955.31	2.11395e-06
3963.87	1.83364e-06
3972.43	1.60973e-06
