Infrared Spectrum: 1,2-Epoxypropane
Formula: C3 H6 O
CAS: 75-56-9
State: gas
Melting point: -104.4 C
Boiling point: 34.3 C
Class: IUPAC A
Instrument: IFS66V (Bruker)
Instrument parameters: KBr Beam splitter; MCT Detector; Multipass cell
Sampling: 1 L/min Flow
Resolution: 1.9290
Temperature: 23 C
Pressure: 101.3 kPa
Origin: NIST, Anayltical Chemistry Division, 301-975-3108
cm-1	(micromol/mol)-1m-1 (base 10)
574.687	-4.18178e-07
583.365	-4.11963e-07
592.043	-3.16807e-07
600.721	-3.42834e-07
609.4	-3.14054e-07
618.078	-2.58885e-07
626.756	-3.17607e-07
635.434	-3.57738e-07
644.112	-2.73944e-07
652.79	-3.87722e-07
661.469	-3.44916e-07
670.147	-2.75386e-07
678.825	-2.44273e-07
687.503	-2.16783e-07
696.181	-9.92938e-08
704.859	1.28282e-07
713.537	6.99674e-07
722.216	2.15368e-06
730.894	5.8008e-06
739.572	1.40414e-05
748.25	2.21302e-05
756.928	3.10933e-05
765.606	3.34198e-05
774.285	3.06191e-05
782.963	1.40469e-05
791.641	1.2202e-05
800.319	2.05347e-05
808.997	4.61222e-05
817.675	9.99141e-05
826.353	0.000148777
835.032	0.000148024
843.71	0.000149025
852.388	0.000120467
861.066	5.15818e-05
869.744	2.35831e-05
878.422	1.42295e-05
887.101	1.18147e-05
895.779	1.0519e-05
904.457	1.16473e-05
913.135	1.15065e-05
921.813	1.30382e-05
930.491	2.02711e-05
939.169	3.25702e-05
947.848	4.34466e-05
956.526	3.21758e-05
965.204	4.55079e-05
973.882	3.20329e-05
982.56	1.96504e-05
991.238	1.47536e-05
999.917	1.78151e-05
1008.59	2.61823e-05
1017.27	3.27287e-05
1025.95	2.91212e-05
1034.63	2.76179e-05
1043.31	1.74342e-05
1051.99	9.30345e-06
1060.66	4.32787e-06
1069.34	3.02993e-06
1078.02	4.92265e-06
1086.7	9.38966e-06
1095.38	1.53786e-05
1104.05	2.08546e-05
1112.73	3.28633e-05
1121.41	2.99624e-05
1130.09	2.92578e-05
1138.77	2.32729e-05
1147.45	1.69555e-05
1156.12	1.60514e-05
1164.8	1.11882e-05
1173.48	6.65816e-06
1182.16	3.28345e-06
1190.84	2.05244e-06
1199.51	1.44297e-06
1208.19	1.37431e-06
1216.87	1.56403e-06
1225.55	2.34551e-06
1234.23	5.16958e-06
1242.9	9.84571e-06
1251.58	1.63977e-05
1260.26	2.04076e-05
1268.94	1.72981e-05
1277.62	1.86214e-05
1286.3	1.22432e-05
1294.97	6.67966e-06
1303.65	3.21385e-06
1312.33	1.70497e-06
1321.01	1.25325e-06
1329.69	1.41595e-06
1338.36	2.4936e-06
1347.04	4.52427e-06
1355.72	7.58e-06
1364.4	1.02485e-05
1373.08	2.40567e-05
1381.76	1.82131e-05
1390.43	4.39276e-05
1399.11	7.8895e-05
1407.79	6.68994e-05
1416.47	5.52215e-05
1425.15	8.7997e-05
1433.82	4.37411e-05
1442.5	3.30736e-05
1451.18	2.68105e-05
1459.86	3.21605e-05
1468.54	3.12051e-05
1477.22	3.07347e-05
1485.89	2.78648e-05
1494.57	2.22419e-05
1503.25	2.31556e-05
1511.93	1.56418e-05
1520.61	1.17567e-05
1529.28	1.33299e-05
1537.96	5.92869e-06
1546.64	2.99437e-06
1555.32	1.98813e-06
1564	1.63484e-06
1572.67	2.15899e-06
1581.35	2.53513e-06
1590.03	3.29085e-06
1598.71	2.98035e-06
1607.39	2.7794e-06
1616.07	1.86668e-06
1624.74	1.55134e-06
1633.42	1.87695e-06
1642.1	2.1817e-06
1650.78	2.92453e-06
1659.46	3.00456e-06
1668.13	2.8654e-06
1676.81	2.71613e-06
1685.49	2.99049e-06
1694.17	2.17155e-06
1702.85	1.91636e-06
1711.53	1.8915e-06
1720.2	1.87959e-06
1728.88	1.16544e-06
1737.56	6.38058e-07
1746.24	4.2816e-07
1754.92	3.01026e-07
1763.59	4.81024e-07
1772.27	1.02774e-06
1780.95	8.06311e-07
1789.63	9.68016e-07
1798.31	8.15036e-07
1806.98	7.25607e-07
1815.66	3.22411e-07
1824.34	2.95038e-07
1833.02	3.26334e-07
1841.7	4.18088e-07
1850.38	4.25331e-07
1859.05	4.71187e-07
1867.73	6.6261e-07
1876.41	5.58348e-07
1885.09	6.91393e-07
1893.77	8.14813e-07
1902.44	9.91372e-07
1911.12	1.22174e-06
1919.8	8.85692e-07
1928.48	6.83773e-07
1937.16	5.89144e-07
1945.84	7.45655e-07
1954.51	1.37314e-06
1963.19	1.46611e-06
1971.87	1.37983e-06
1980.55	1.95139e-06
1989.23	1.28819e-06
1997.9	1.11528e-06
2006.58	1.27162e-06
2015.26	1.18197e-06
2023.94	1.15867e-06
2032.62	1.06253e-06
2041.3	6.32705e-07
2049.97	3.09446e-07
2058.65	2.69292e-07
2067.33	3.87251e-07
2076.01	5.37192e-07
2084.69	6.92097e-07
2093.36	5.98735e-07
2102.04	5.59812e-07
2110.72	4.68949e-07
2119.4	4.7057e-07
2128.08	6.17515e-07
2136.75	1.02001e-06
2145.43	1.77546e-06
2154.11	2.18909e-06
2162.79	2.60384e-06
2171.47	2.3326e-06
2180.15	2.61314e-06
2188.82	1.8271e-06
2197.5	1.33712e-06
2206.18	1.57116e-06
2214.86	1.49336e-06
2223.54	1.91405e-06
2232.21	2.20603e-06
2240.89	2.59687e-06
2249.57	3.62436e-06
2258.25	3.62109e-06
2266.93	3.4713e-06
2275.61	3.41318e-06
2284.28	2.95275e-06
2292.96	2.2318e-06
2301.64	1.96951e-06
2310.32	1.71956e-06
2319	1.39313e-06
2327.67	1.10556e-06
2336.35	1.16102e-06
2345.03	9.31104e-07
2353.71	7.79888e-07
2362.39	6.85682e-07
2371.06	6.09162e-07
2379.74	5.98672e-07
2388.42	5.00224e-07
2397.1	5.98858e-07
2405.78	6.74072e-07
2414.46	8.0466e-07
2423.13	8.46338e-07
2431.81	7.39404e-07
2440.49	5.63759e-07
2449.17	4.23021e-07
2457.85	3.30083e-07
2466.52	3.28163e-07
2475.2	3.65447e-07
2483.88	3.86786e-07
2492.56	5.17359e-07
2501.24	6.58682e-07
2509.92	7.94268e-07
2518.59	8.30075e-07
2527.27	1.1101e-06
2535.95	8.36773e-07
2544.63	5.77579e-07
2553.31	6.28945e-07
2561.98	4.96146e-07
2570.66	5.41488e-07
2579.34	6.97638e-07
2588.02	9.66962e-07
2596.7	1.27968e-06
2605.38	1.46067e-06
2614.05	1.64647e-06
2622.73	1.48351e-06
2631.41	1.38311e-06
2640.09	1.11778e-06
2648.77	9.18916e-07
2657.44	7.4134e-07
2666.12	4.80144e-07
2674.8	3.71435e-07
2683.48	2.46663e-07
2692.16	2.1929e-07
2700.83	2.73961e-07
2709.51	4.90211e-07
2718.19	9.40312e-07
2726.87	9.65859e-07
2735.55	1.08388e-06
2744.23	1.71831e-06
2752.9	1.73702e-06
2761.58	2.22264e-06
2770.26	4.94401e-06
2778.94	4.01063e-06
2787.62	5.19522e-06
2796.29	5.71822e-06
2804.97	5.26316e-06
2813.65	4.53868e-06
2822.33	4.38436e-06
2831.01	4.84206e-06
2839.69	4.77345e-06
2848.36	5.8173e-06
2857.04	8.02303e-06
2865.72	1.56289e-05
2874.4	1.72472e-05
2883.08	1.8853e-05
2891.75	2.66235e-05
2900.43	4.00033e-05
2909.11	4.3625e-05
2917.79	6.65285e-05
2926.47	8.47962e-05
2935.14	8.45772e-05
2943.82	8.65031e-05
2952.5	0.000106113
2961.18	0.000109238
2969.86	0.000138307
2978.54	0.000165638
2987.21	0.000197621
2995.89	0.000206483
3004.57	0.00017698
3013.25	0.000163755
3021.93	0.000140137
3030.6	0.000123548
3039.28	0.000116981
3047.96	0.000124969
3056.64	8.69997e-05
3065.32	7.82824e-05
3074	4.37275e-05
3082.67	2.12048e-05
3091.35	8.73462e-06
3100.03	3.79888e-06
3108.71	2.20422e-06
3117.39	1.90447e-06
3126.06	1.94843e-06
3134.74	2.18893e-06
3143.42	2.60693e-06
3152.1	2.87455e-06
3160.78	3.79972e-06
3169.46	3.25311e-06
3178.13	3.18193e-06
3186.81	2.63422e-06
3195.49	1.80862e-06
3204.17	9.65179e-07
3212.85	5.30599e-07
3221.52	2.97836e-07
3230.2	2.35967e-07
3238.88	1.64537e-07
3247.56	1.64561e-07
3256.24	1.63026e-07
3264.91	1.71768e-07
3273.59	1.529e-07
3282.27	2.17296e-07
3290.95	2.47664e-07
3299.63	2.45011e-07
3308.31	2.71604e-07
3316.98	4.42577e-07
3325.66	7.87546e-07
3334.34	9.42859e-07
3343.02	1.06701e-06
3351.7	1.20937e-06
3360.37	1.05946e-06
3369.05	8.35567e-07
3377.73	8.51878e-07
3386.41	1.02629e-06
3395.09	1.054e-06
3403.77	9.35942e-07
3412.44	7.98245e-07
3421.12	5.79638e-07
3429.8	5.40195e-07
3438.48	3.85431e-07
3447.16	4.12034e-07
3455.83	2.69157e-07
3464.51	3.06514e-07
3473.19	2.49008e-07
3481.87	1.96295e-07
3490.55	1.25046e-07
3499.22	1.12614e-07
3507.9	1.3648e-07
3516.58	1.58505e-07
3525.26	1.82521e-07
3533.94	1.59387e-07
3542.62	1.46908e-07
3551.29	1.96401e-07
3559.97	1.69188e-07
3568.65	2.11404e-07
3577.33	1.49244e-07
3586.01	2.40462e-07
3594.68	2.21229e-07
3603.36	1.72247e-07
3612.04	2.9372e-07
3620.72	2.74653e-07
3629.4	5.92016e-07
3638.08	2.9671e-07
3646.75	4.85318e-07
3655.43	5.44856e-07
3664.11	5.32787e-07
3672.79	7.01671e-07
3681.47	7.49542e-07
3690.14	9.91928e-07
3698.82	8.32382e-07
3707.5	8.73558e-07
3716.18	9.84642e-07
3724.86	1.19297e-06
3733.54	1.63471e-06
3742.21	1.82717e-06
3750.89	2.4238e-06
3759.57	2.39626e-06
3768.25	2.11569e-06
3776.93	1.96409e-06
3785.6	1.76147e-06
3794.28	1.6352e-06
3802.96	1.8132e-06
3811.64	1.49281e-06
3820.32	1.99914e-06
3828.99	1.59501e-06
3837.67	1.96183e-06
3846.35	1.32201e-06
3855.03	1.84156e-06
3863.71	1.38952e-06
3872.39	1.47074e-06
3881.06	1.65117e-06
3889.74	1.67278e-06
3898.42	1.80491e-06
3907.1	1.5572e-06
3915.78	1.61135e-06
3924.45	1.76751e-06
3933.13	1.92257e-06
3941.81	2.26408e-06
3950.49	2.12391e-06
3959.17	1.93224e-06
3967.85	1.69865e-06
