Infrared Spectrum: 1,2-Epoxypropane
Formula: C3 H6 O
CAS: 75-56-9
State: gas
Melting point: -104.4 C
Boiling point: 34.3 C
Class: IUPAC A
Instrument: IFS66V (Bruker)
Instrument parameters: KBr Beam splitter; MCT Detector; Multipass cell
Sampling: 1 L/min Flow
Resolution: 1.9290
Temperature: 23 C
Pressure: 101.3 kPa
Origin: NIST, Anayltical Chemistry Division, 301-975-3108
cm-1	(micromol/mol)-1m-1 (base 10)
574.687	-3.27002e-07
583.365	-3.96895e-07
592.043	-2.97305e-07
600.721	-3.27093e-07
609.4	-2.93067e-07
618.078	-2.38293e-07
626.756	-2.96284e-07
635.434	-3.27601e-07
644.112	-2.45974e-07
652.79	-3.49053e-07
661.469	-3.01323e-07
670.147	-2.05094e-07
678.825	-1.86933e-07
687.503	-1.31604e-07
696.181	-1.56612e-08
704.859	2.38611e-07
713.537	8.49247e-07
722.216	2.3298e-06
730.894	5.99904e-06
739.572	1.4087e-05
748.25	2.20635e-05
756.928	3.15462e-05
765.606	3.30978e-05
774.285	3.04203e-05
782.963	1.45165e-05
791.641	1.28368e-05
800.319	2.12883e-05
808.997	4.67071e-05
817.675	9.92716e-05
826.353	0.000146704
835.032	0.000143244
843.71	0.000147165
852.388	0.00011907
861.066	5.22535e-05
869.744	2.43189e-05
878.422	1.47631e-05
887.101	1.21717e-05
895.779	1.05353e-05
904.457	1.18699e-05
913.135	1.17377e-05
921.813	1.33286e-05
930.491	2.04374e-05
939.169	3.24623e-05
947.848	4.29568e-05
956.526	3.16832e-05
965.204	4.49244e-05
973.882	3.19697e-05
982.56	1.98715e-05
991.238	1.50557e-05
999.917	1.79978e-05
1008.59	2.60914e-05
1017.27	3.23453e-05
1025.95	2.9264e-05
1034.63	2.74151e-05
1043.31	1.74682e-05
1051.99	9.47937e-06
1060.66	4.56627e-06
1069.34	3.26896e-06
1078.02	5.12635e-06
1086.7	9.51617e-06
1095.38	1.54229e-05
1104.05	2.09758e-05
1112.73	3.24811e-05
1121.41	2.98381e-05
1130.09	2.915e-05
1138.77	2.32288e-05
1147.45	1.68333e-05
1156.12	1.59507e-05
1164.8	1.12483e-05
1173.48	6.74669e-06
1182.16	3.41511e-06
1190.84	2.14729e-06
1199.51	1.56542e-06
1208.19	1.48698e-06
1216.87	1.68146e-06
1225.55	2.50458e-06
1234.23	5.27872e-06
1242.9	9.8931e-06
1251.58	1.62693e-05
1260.26	2.01126e-05
1268.94	1.73455e-05
1277.62	1.84538e-05
1286.3	1.22464e-05
1294.97	6.78159e-06
1303.65	3.35288e-06
1312.33	1.84962e-06
1321.01	1.39174e-06
1329.69	1.56438e-06
1338.36	2.64279e-06
1347.04	4.68352e-06
1355.72	7.7249e-06
1364.4	1.05338e-05
1373.08	2.3634e-05
1381.76	1.87309e-05
1390.43	4.38055e-05
1399.11	7.78088e-05
1407.79	6.67434e-05
1416.47	5.69045e-05
1425.15	8.64395e-05
1433.82	4.40081e-05
1442.5	3.32866e-05
1451.18	2.67213e-05
1459.86	3.16253e-05
1468.54	3.12978e-05
1477.22	3.07895e-05
1485.89	2.71819e-05
1494.57	2.23929e-05
1503.25	2.30183e-05
1511.93	1.58159e-05
1520.61	1.19276e-05
1529.28	1.32151e-05
1537.96	6.02291e-06
1546.64	3.10685e-06
1555.32	2.08835e-06
1564	1.73308e-06
1572.67	2.23523e-06
1581.35	2.57851e-06
1590.03	3.27731e-06
1598.71	2.99675e-06
1607.39	2.78854e-06
1616.07	1.92616e-06
1624.74	1.57498e-06
1633.42	1.88429e-06
1642.1	2.21835e-06
1650.78	2.88811e-06
1659.46	3.02218e-06
1668.13	2.86318e-06
1676.81	2.69528e-06
1685.49	2.99125e-06
1694.17	2.11099e-06
1702.85	1.92662e-06
1711.53	1.91326e-06
1720.2	1.8754e-06
1728.88	1.1833e-06
1737.56	6.81718e-07
1746.24	4.59021e-07
1754.92	3.24851e-07
1763.59	4.85943e-07
1772.27	1.05457e-06
1780.95	8.19528e-07
1789.63	9.64549e-07
1798.31	8.15623e-07
1806.98	7.33961e-07
1815.66	3.46417e-07
1824.34	3.09957e-07
1833.02	3.45868e-07
1841.7	4.3566e-07
1850.38	4.42514e-07
1859.05	4.57807e-07
1867.73	6.5814e-07
1876.41	5.72747e-07
1885.09	7.02388e-07
1893.77	8.23617e-07
1902.44	9.99698e-07
1911.12	1.2145e-06
1919.8	8.92842e-07
1928.48	6.98202e-07
1937.16	6.06728e-07
1945.84	7.66925e-07
1954.51	1.36875e-06
1963.19	1.48065e-06
1971.87	1.39623e-06
1980.55	1.93038e-06
1989.23	1.29508e-06
1997.9	1.12618e-06
2006.58	1.27562e-06
2015.26	1.18951e-06
2023.94	1.15865e-06
2032.62	1.05741e-06
2041.3	6.44728e-07
2049.97	3.2849e-07
2058.65	2.87057e-07
2067.33	3.97132e-07
2076.01	5.46647e-07
2084.69	7.13996e-07
2093.36	6.10607e-07
2102.04	5.72077e-07
2110.72	4.86704e-07
2119.4	4.90119e-07
2128.08	6.34833e-07
2136.75	1.03533e-06
2145.43	1.77728e-06
2154.11	2.17837e-06
2162.79	2.58274e-06
2171.47	2.34485e-06
2180.15	2.59499e-06
2188.82	1.80911e-06
2197.5	1.35745e-06
2206.18	1.55562e-06
2214.86	1.50972e-06
2223.54	1.92758e-06
2232.21	2.22159e-06
2240.89	2.6039e-06
2249.57	3.61653e-06
2258.25	3.55313e-06
2266.93	3.44846e-06
2275.61	3.39289e-06
2284.28	2.94151e-06
2292.96	2.24326e-06
2301.64	1.9835e-06
2310.32	1.71188e-06
2319	1.40522e-06
2327.67	1.12033e-06
2336.35	1.17134e-06
2345.03	9.41908e-07
2353.71	7.88536e-07
2362.39	7.00013e-07
2371.06	6.12904e-07
2379.74	6.11938e-07
2388.42	5.15147e-07
2397.1	6.06911e-07
2405.78	6.84898e-07
2414.46	7.98285e-07
2423.13	8.61112e-07
2431.81	7.46012e-07
2440.49	5.70898e-07
2449.17	4.39129e-07
2457.85	3.46994e-07
2466.52	3.43156e-07
2475.2	3.80053e-07
2483.88	4.08069e-07
2492.56	5.32026e-07
2501.24	6.71151e-07
2509.92	8.15536e-07
2518.59	8.40279e-07
2527.27	1.10479e-06
2535.95	8.49643e-07
2544.63	5.9658e-07
2553.31	6.45784e-07
2561.98	5.19993e-07
2570.66	5.65005e-07
2579.34	7.11898e-07
2588.02	9.88673e-07
2596.7	1.29259e-06
2605.38	1.47362e-06
2614.05	1.65986e-06
2622.73	1.50015e-06
2631.41	1.40634e-06
2640.09	1.14058e-06
2648.77	9.45739e-07
2657.44	7.65103e-07
2666.12	5.10419e-07
2674.8	3.80333e-07
2683.48	2.80837e-07
2692.16	2.63305e-07
2700.83	3.20447e-07
2709.51	5.35694e-07
2718.19	9.74284e-07
2726.87	1.0299e-06
2735.55	1.16437e-06
2744.23	1.74517e-06
2752.9	1.80356e-06
2761.58	2.29105e-06
2770.26	4.93748e-06
2778.94	4.0712e-06
2787.62	5.21368e-06
2796.29	5.74898e-06
2804.97	5.34159e-06
2813.65	4.73161e-06
2822.33	4.50148e-06
2831.01	5.02357e-06
2839.69	4.94982e-06
2848.36	6.02116e-06
2857.04	8.22838e-06
2865.72	1.53384e-05
2874.4	1.74848e-05
2883.08	1.93804e-05
2891.75	2.69779e-05
2900.43	4.00767e-05
2909.11	4.41806e-05
2917.79	6.6336e-05
2926.47	8.37441e-05
2935.14	8.48208e-05
2943.82	8.56967e-05
2952.5	0.000105806
2961.18	0.000109501
2969.86	0.000137766
2978.54	0.0001651
2987.21	0.000196484
2995.89	0.000207126
3004.57	0.000178128
3013.25	0.000163225
3021.93	0.000140064
3030.6	0.000123557
3039.28	0.000116551
3047.96	0.000117387
3056.64	8.76763e-05
3065.32	7.78861e-05
3074	4.40562e-05
3082.67	2.17374e-05
3091.35	9.27415e-06
3100.03	4.2301e-06
3108.71	2.52642e-06
3117.39	2.14621e-06
3126.06	2.1392e-06
3134.74	2.34454e-06
3143.42	2.71623e-06
3152.1	2.98462e-06
3160.78	3.84629e-06
3169.46	3.34635e-06
3178.13	3.27286e-06
3186.81	2.6906e-06
3195.49	1.87276e-06
3204.17	1.03961e-06
3212.85	5.95551e-07
3221.52	3.53241e-07
3230.2	2.91123e-07
3238.88	2.10241e-07
3247.56	2.09261e-07
3256.24	2.02048e-07
3264.91	2.08663e-07
3273.59	1.95969e-07
3282.27	2.49194e-07
3290.95	2.75628e-07
3299.63	2.72012e-07
3308.31	3.04357e-07
3316.98	4.79257e-07
3325.66	8.0406e-07
3334.34	9.63065e-07
3343.02	1.05157e-06
3351.7	1.20697e-06
3360.37	1.06714e-06
3369.05	8.57203e-07
3377.73	8.73156e-07
3386.41	1.03591e-06
3395.09	1.06999e-06
3403.77	9.5109e-07
3412.44	8.0908e-07
3421.12	6.04567e-07
3429.8	5.54705e-07
3438.48	4.03813e-07
3447.16	4.33593e-07
3455.83	2.88787e-07
3464.51	3.27031e-07
3473.19	2.62917e-07
3481.87	2.1057e-07
3490.55	1.41192e-07
3499.22	1.28757e-07
3507.9	1.402e-07
3516.58	1.7506e-07
3525.26	1.83348e-07
3533.94	1.74882e-07
3542.62	1.49724e-07
3551.29	2.1088e-07
3559.97	1.77657e-07
3568.65	2.21936e-07
3577.33	1.6077e-07
3586.01	2.55507e-07
3594.68	2.28638e-07
3603.36	1.86629e-07
3612.04	3.2205e-07
3620.72	2.73687e-07
3629.4	6.17507e-07
3638.08	3.17458e-07
3646.75	5.13759e-07
3655.43	5.43542e-07
3664.11	5.53259e-07
3672.79	6.87053e-07
3681.47	7.64727e-07
3690.14	9.25046e-07
3698.82	8.45951e-07
3707.5	8.75462e-07
3716.18	9.97182e-07
3724.86	1.20443e-06
3733.54	1.5859e-06
3742.21	1.816e-06
3750.89	2.27961e-06
3759.57	2.41263e-06
3768.25	2.09034e-06
3776.93	1.96969e-06
3785.6	1.77288e-06
3794.28	1.6399e-06
3802.96	1.76154e-06
3811.64	1.52892e-06
3820.32	1.98663e-06
3828.99	1.61028e-06
3837.67	2.02623e-06
3846.35	1.35128e-06
3855.03	1.82863e-06
3863.71	1.37047e-06
3872.39	1.4685e-06
3881.06	1.66588e-06
3889.74	1.64642e-06
3898.42	1.80462e-06
3907.1	1.56855e-06
3915.78	1.6122e-06
3924.45	1.77775e-06
3933.13	1.92044e-06
3941.81	2.2643e-06
3950.49	2.11604e-06
3959.17	1.92942e-06
3967.85	1.70146e-06
