Infrared Spectrum: 1,2-Epoxypropane
Formula: C3 H6 O
CAS: 75-56-9
State: gas
Melting point: -104.4 C
Boiling point: 34.3 C
Class: IUPAC A
Instrument: IFS66V (Bruker)
Instrument parameters: KBr Beam splitter; MCT Detector; Multipass cell
Sampling: 1 L/min Flow
Resolution: 0.1250
Temperature: 23 C
Pressure: 101.3 kPa
Origin: NIST, Anayltical Chemistry Division, 301-975-3108
cm-1	(micromol/mol)-1m-1 (base 10)
574.988	-1.21096e-06
583.546	5.8619e-07
592.103	-4.10477e-07
600.661	-4.76874e-07
609.219	1.59639e-07
617.776	-2.15358e-07
626.334	-1.47775e-07
634.891	-3.57601e-07
643.449	-3.62635e-07
652.007	-4.08838e-07
660.564	-4.53223e-07
669.122	-4.834e-07
677.68	-3.39092e-07
686.237	-8.08337e-08
694.795	-5.21259e-08
703.352	-1.04693e-07
711.91	4.24088e-07
720.468	1.94764e-06
729.025	4.5343e-06
737.583	1.14966e-05
746.141	2.04807e-05
754.698	2.70193e-05
763.256	2.8631e-05
771.813	3.55191e-05
780.371	1.6786e-05
788.929	1.15244e-05
797.486	1.62524e-05
806.044	3.48927e-05
814.602	7.67355e-05
823.159	0.000136813
831.717	0.000121434
840.274	0.000126671
848.832	0.000141871
857.39	7.41809e-05
865.947	3.11651e-05
874.505	1.66552e-05
883.063	1.22181e-05
891.62	9.92696e-06
900.178	1.12224e-05
908.735	1.16373e-05
917.293	1.15042e-05
925.851	1.59286e-05
934.408	2.46169e-05
942.966	3.89886e-05
951.524	4.42444e-05
960.081	4.45822e-05
968.639	4.02753e-05
977.196	2.663e-05
985.754	1.6716e-05
994.312	1.52096e-05
1002.87	2.09101e-05
1011.43	2.81265e-05
1019.98	2.94687e-05
1028.54	3.83937e-05
1037.1	2.27293e-05
1045.66	1.47222e-05
1054.22	7.67323e-06
1062.77	3.62423e-06
1071.33	3.2089e-06
1079.89	5.70914e-06
1088.45	1.0344e-05
1097	1.67528e-05
1105.56	2.06072e-05
1114.12	3.29702e-05
1122.68	2.97422e-05
1131.23	2.95655e-05
1139.79	2.36938e-05
1148.35	1.75318e-05
1156.91	1.6106e-05
1165.46	1.06256e-05
1174.02	6.42039e-06
1182.58	3.18725e-06
1191.14	2.10444e-06
1199.69	1.46198e-06
1208.25	1.22512e-06
1216.81	1.54388e-06
1225.37	2.27606e-06
1233.93	4.84274e-06
1242.48	9.22856e-06
1251.04	1.63101e-05
1259.6	2.09616e-05
1268.16	1.50266e-05
1276.71	2.14325e-05
1285.27	1.28946e-05
1293.83	7.16411e-06
1302.39	3.68398e-06
1310.94	1.82663e-06
1319.5	1.29606e-06
1328.06	1.20354e-06
1336.62	2.29102e-06
1345.17	4.09509e-06
1353.73	6.84203e-06
1362.29	9.37325e-06
1370.85	1.73536e-05
1379.4	1.59101e-05
1387.96	3.36973e-05
1396.52	7.17954e-05
1405.08	5.76372e-05
1413.64	3.12422e-05
1422.19	9.38283e-05
1430.75	5.62228e-05
1439.31	3.25762e-05
1447.87	2.80188e-05
1456.42	3.02128e-05
1464.98	4.3747e-05
1473.54	3.99375e-05
1482.1	2.73615e-05
1490.65	2.39468e-05
1499.21	2.50521e-05
1507.77	1.85807e-05
1516.33	1.47825e-05
1524.88	1.34548e-05
1533.44	1.04017e-05
1542	5.01076e-06
1550.56	2.37819e-06
1559.11	1.70361e-06
1567.67	1.7715e-06
1576.23	5.06008e-06
1584.79	2.55417e-06
1593.35	2.15815e-06
1601.9	3.45165e-06
1610.46	2.13711e-06
1619.02	1.46858e-06
1627.58	1.6551e-06
1636.13	2.27185e-06
1644.69	2.14043e-06
1653.25	5.88492e-06
1661.81	2.96315e-06
1670.36	3.06312e-06
1678.92	2.64594e-06
1687.48	2.38949e-06
1696.04	4.12187e-06
1704.59	2.21061e-06
1713.15	2.11134e-06
1721.71	1.78289e-06
1730.27	1.09744e-06
1738.83	6.04839e-07
1747.38	3.8546e-07
1755.94	2.72484e-07
1764.5	4.51432e-07
1773.06	9.6996e-07
1781.61	8.0212e-07
1790.17	1.01923e-06
1798.73	8.41471e-07
1807.29	7.10637e-07
1815.84	3.1568e-07
1824.4	2.40011e-07
1832.96	3.58159e-07
1841.52	4.16048e-07
1850.07	3.97092e-07
1858.63	4.26049e-07
1867.19	6.21167e-07
1875.75	5.62098e-07
1884.3	6.88765e-07
1892.86	7.97289e-07
1901.42	9.40232e-07
1909.98	1.28323e-06
1918.54	8.84382e-07
1927.09	6.63896e-07
1935.65	6.29422e-07
1944.21	6.40594e-07
1952.77	1.25935e-06
1961.32	1.47299e-06
1969.88	1.19186e-06
1978.44	1.98714e-06
1987	1.36314e-06
1995.55	1.03753e-06
2004.11	1.20568e-06
2012.67	1.30388e-06
2021.23	1.10577e-06
2029.78	1.13039e-06
2038.34	7.55634e-07
2046.9	4.02694e-07
2055.46	2.12597e-07
2064.01	2.88955e-07
2072.57	5.05979e-07
2081.13	5.15124e-07
2089.69	5.22386e-07
2098.25	8.03602e-07
2106.8	4.86699e-07
2115.36	4.7724e-07
2123.92	5.85665e-07
2132.48	7.2063e-07
2141.03	1.34488e-06
2149.59	2.0544e-06
2158.15	2.63003e-06
2166.71	3.02083e-06
2175.26	2.85502e-06
2183.82	1.93668e-06
2192.38	1.24232e-06
2200.94	1.30789e-06
2209.49	1.1524e-06
2218.05	1.68967e-06
2226.61	2.03724e-06
2235.17	2.63573e-06
2243.72	2.96628e-06
2252.28	3.37541e-06
2260.84	2.90323e-06
2269.4	3.62951e-06
2277.96	3.03534e-06
2286.51	3.11191e-06
2295.07	2.17071e-06
2303.63	1.67135e-06
2312.19	1.78887e-06
2320.74	1.28533e-06
2329.3	1.02567e-06
2337.86	1.06769e-06
2346.42	8.43876e-07
2354.97	7.73286e-07
2363.53	6.84272e-07
2372.09	7.03463e-07
2380.65	5.48014e-07
2389.2	5.2358e-07
2397.76	5.33825e-07
2406.32	6.9576e-07
2414.88	8.10627e-07
2423.44	8.58475e-07
2431.99	7.70155e-07
2440.55	5.73137e-07
2449.11	3.91818e-07
2457.67	3.13661e-07
2466.22	3.00542e-07
2474.78	3.16674e-07
2483.34	3.49429e-07
2491.9	5.29659e-07
2500.45	6.86839e-07
2509.01	7.66707e-07
2517.57	8.12088e-07
2526.13	1.10371e-06
2534.68	8.6488e-07
2543.24	6.24845e-07
2551.8	6.19038e-07
2560.36	5.37426e-07
2568.91	5.16516e-07
2577.47	6.07903e-07
2586.03	8.96088e-07
2594.59	1.15553e-06
2603.15	1.45078e-06
2611.7	1.52376e-06
2620.26	1.48582e-06
2628.82	1.37214e-06
2637.38	1.25711e-06
2645.93	9.59583e-07
2654.49	8.86573e-07
2663.05	4.78444e-07
2671.61	4.57018e-07
2680.16	3.70381e-07
2688.72	3.0196e-07
2697.28	2.04171e-07
2705.84	4.14525e-07
2714.39	8.25954e-07
2722.95	9.98495e-07
2731.51	1.78784e-06
2740.07	1.58655e-06
2748.62	1.80267e-06
2757.18	1.95968e-06
2765.74	2.36978e-06
2774.3	3.38165e-06
2782.86	4.57856e-06
2791.41	5.44605e-06
2799.97	5.43345e-06
2808.53	8.32294e-06
2817.09	4.49193e-06
2825.64	4.48249e-06
2834.2	4.15143e-06
2842.76	5.05181e-06
2851.32	6.29053e-06
2859.87	8.65882e-06
2868.43	1.66662e-05
2876.99	1.80907e-05
2885.55	2.40003e-05
2894.1	3.01125e-05
2902.66	4.35156e-05
2911.22	4.49837e-05
2919.78	7.15054e-05
2928.34	9.62379e-05
2936.89	8.4279e-05
2945.45	8.297e-05
2954.01	0.000106887
2962.57	0.000111943
2971.12	0.000139324
2979.68	0.000175328
2988.24	0.000199316
2996.8	0.000195148
3005.35	0.000172097
3013.91	0.000163285
3022.47	0.000138544
3031.03	0.0001232
3039.58	0.000115596
3048.14	0.000110522
3056.7	8.86371e-05
3065.26	7.81066e-05
3073.81	4.36705e-05
3082.37	2.1655e-05
3090.93	9.06364e-06
3099.49	3.92361e-06
3108.05	2.18311e-06
3116.6	1.83134e-06
3125.16	1.93049e-06
3133.72	2.12697e-06
3142.28	2.47402e-06
3150.83	2.7649e-06
3159.39	3.55878e-06
3167.95	3.28246e-06
3176.51	3.59813e-06
3185.06	2.81749e-06
3193.62	2.04491e-06
3202.18	1.15066e-06
3210.74	5.42741e-07
3219.29	4.17973e-07
3227.85	1.01933e-07
3236.41	1.81564e-07
3244.97	1.21511e-07
3253.52	2.53449e-07
3262.08	1.6931e-07
3270.64	4.91001e-08
3279.2	3.14993e-07
3287.76	2.12201e-07
3296.31	3.2283e-07
3304.87	2.30686e-07
3313.43	3.58337e-07
3321.99	5.11034e-07
3330.54	9.68892e-07
3339.1	1.14706e-06
3347.66	9.60069e-07
3356.22	1.19316e-06
3364.77	8.35538e-07
3373.33	8.11457e-07
3381.89	8.16742e-07
3390.45	9.39048e-07
3399	9.97256e-07
3407.56	7.58216e-07
3416.12	8.18965e-07
3424.68	2.89862e-07
3433.23	4.43573e-07
3441.79	2.35249e-07
3450.35	2.70629e-07
3458.91	2.68079e-07
3467.47	3.89397e-07
3476.02	2.23825e-07
3484.58	1.46119e-07
3493.14	1.80959e-07
3501.7	1.15147e-07
3510.25	5.43464e-08
3518.81	2.22398e-07
3527.37	1.28553e-07
3535.93	-1.14776e-09
3544.48	1.27642e-07
3553.04	3.35548e-08
3561.6	-1.38209e-08
3570.16	1.61761e-07
3578.71	2.06166e-07
3587.27	2.31351e-07
3595.83	2.43801e-07
3604.39	2.14382e-07
3612.95	2.84959e-07
3621.5	2.08157e-07
3630.06	3.04139e-07
3638.62	3.71536e-07
3647.18	8.33519e-07
3655.73	5.29033e-07
3664.29	5.80568e-07
3672.85	6.73531e-07
3681.41	7.68527e-07
3689.96	8.9884e-07
3698.52	8.76718e-07
3707.08	8.14557e-07
3715.64	9.48946e-07
3724.19	1.19546e-06
3732.75	1.57955e-06
3741.31	1.99266e-06
3749.87	2.25517e-06
3758.42	2.35059e-06
3766.98	2.15675e-06
3775.54	1.92559e-06
3784.1	1.64506e-06
3792.66	1.71369e-06
3801.21	2.36652e-06
3809.77	1.53427e-06
3818.33	1.95079e-06
3826.89	1.76319e-06
3835.44	1.74851e-06
3844	1.52379e-06
3852.56	1.52657e-06
3861.12	1.1971e-06
3869.67	1.56639e-06
3878.23	1.44206e-06
3886.79	1.59812e-06
3895.35	1.43248e-06
3903.9	1.63689e-06
3912.46	1.54186e-06
3921.02	1.59729e-06
3929.58	1.99135e-06
3938.13	1.76087e-06
3946.69	2.1509e-06
3955.25	2.12431e-06
3963.81	1.80699e-06
3972.37	1.63216e-06
