Infrared Spectrum: 1,2-Epoxypropane
Formula: C3 H6 O
CAS: 75-56-9
State: gas
Melting point: -104.4 C
Boiling point: 34.3 C
Class: IUPAC A
Instrument: IFS66V (Bruker)
Instrument parameters: KBr Beam splitter; MCT Detector; Multipass cell
Sampling: 1 L/min Flow
Resolution: 0.9640
Temperature: 23 C
Pressure: 101.3 kPa
Origin: NIST, Anayltical Chemistry Division, 301-975-3108
cm-1	(micromol/mol)-1m-1 (base 10)
575.169	-3.78917e-07
583.847	-4.53598e-07
592.525	-2.97988e-07
601.203	-4.48688e-07
609.882	-3.46281e-07
618.56	-3.15782e-07
627.238	-2.97663e-07
635.916	-4.11387e-07
644.594	-2.59879e-07
653.272	-4.05778e-07
661.951	-3.30435e-07
670.629	-2.69402e-07
679.307	-2.17483e-07
687.985	-2.1893e-07
696.663	-5.20909e-08
705.341	8.38322e-08
714.019	7.35251e-07
722.698	2.27045e-06
731.376	6.02499e-06
740.054	1.46256e-05
748.732	2.23865e-05
757.41	3.34525e-05
766.088	3.44175e-05
774.767	2.94505e-05
783.445	1.31986e-05
792.123	1.23669e-05
800.801	2.12598e-05
809.479	4.81754e-05
818.157	0.000103336
826.835	0.000149624
835.514	0.000156181
844.192	0.000149563
852.87	0.00011662
861.548	4.897e-05
870.226	2.27545e-05
878.904	1.39399e-05
887.583	1.1768e-05
896.261	9.82429e-06
904.939	1.1675e-05
913.617	1.14864e-05
922.295	1.32833e-05
930.973	2.08004e-05
939.651	3.33063e-05
948.33	4.40714e-05
957.008	3.16528e-05
965.686	4.48242e-05
974.364	3.11439e-05
983.042	1.91459e-05
991.72	1.46938e-05
1000.4	1.82523e-05
1009.08	2.66933e-05
1017.75	3.27637e-05
1026.43	3.19809e-05
1035.11	2.70668e-05
1043.79	1.68658e-05
1052.47	8.95155e-06
1061.15	4.15057e-06
1069.82	3.05649e-06
1078.5	5.07448e-06
1087.18	9.65629e-06
1095.86	1.56841e-05
1104.54	2.04194e-05
1113.21	3.38094e-05
1121.89	3.00066e-05
1130.57	2.92313e-05
1139.25	2.35788e-05
1147.93	1.66331e-05
1156.61	1.61127e-05
1165.28	1.07905e-05
1173.96	6.43067e-06
1182.64	3.17021e-06
1191.32	1.97426e-06
1200	1.44376e-06
1208.67	1.21472e-06
1217.35	1.57959e-06
1226.03	2.42804e-06
1234.71	5.38154e-06
1243.39	1.01612e-05
1252.07	1.67365e-05
1260.74	2.05149e-05
1269.42	1.77858e-05
1278.1	1.83701e-05
1286.78	1.18493e-05
1295.46	6.44445e-06
1304.13	3.06129e-06
1312.81	1.64642e-06
1321.49	1.24762e-06
1330.17	1.44552e-06
1338.85	2.5875e-06
1347.52	4.65943e-06
1356.2	7.75877e-06
1364.88	1.05765e-05
1373.56	1.32609e-05
1382.24	1.86713e-05
1390.92	4.54127e-05
1399.59	7.92373e-05
1408.27	6.8154e-05
1416.95	6.00718e-05
1425.63	8.63772e-05
1434.31	4.15881e-05
1442.98	3.3205e-05
1451.66	2.66081e-05
1460.34	3.23957e-05
1469.02	3.1174e-05
1477.7	3.06106e-05
1486.38	2.82585e-05
1495.05	2.26255e-05
1503.73	2.27758e-05
1512.41	1.57051e-05
1521.09	1.24686e-05
1529.77	1.30251e-05
1538.44	5.68585e-06
1547.12	2.87874e-06
1555.8	1.78643e-06
1564.48	1.7219e-06
1573.16	2.19674e-06
1581.83	2.53807e-06
1590.51	3.51506e-06
1599.19	3.07141e-06
1607.87	2.66941e-06
1616.55	2.42145e-06
1625.23	1.47833e-06
1633.9	1.85197e-06
1642.58	2.22002e-06
1651.26	2.87855e-06
1659.94	3.02147e-06
1668.62	2.87289e-06
1677.29	2.66961e-06
1685.97	2.52293e-06
1694.65	2.11487e-06
1703.33	1.87197e-06
1712.01	1.99374e-06
1720.69	1.81527e-06
1729.36	1.15014e-06
1738.04	6.45356e-07
1746.72	4.41619e-07
1755.4	3.09069e-07
1764.08	4.72663e-07
1772.75	1.36166e-06
1781.43	7.85716e-07
1790.11	9.82946e-07
1798.79	8.44718e-07
1807.47	7.26493e-07
1816.15	3.09236e-07
1824.82	3.53542e-07
1833.5	3.25998e-07
1842.18	4.27433e-07
1850.86	4.33055e-07
1859.54	4.03142e-07
1868.21	6.76328e-07
1876.89	5.63094e-07
1885.57	7.0608e-07
1894.25	8.326e-07
1902.93	1.01911e-06
1911.6	1.26712e-06
1920.28	8.70788e-07
1928.96	6.69031e-07
1937.64	5.85203e-07
1946.32	7.92518e-07
1955	1.42534e-06
1963.67	1.45482e-06
1972.35	1.41756e-06
1981.03	1.85448e-06
1989.71	1.26089e-06
1998.39	1.13435e-06
2007.06	1.2937e-06
2015.74	1.18162e-06
2024.42	1.33933e-06
2033.1	1.0424e-06
2041.78	6.16636e-07
2050.46	3.04135e-07
2059.13	3.14726e-07
2067.81	3.99697e-07
2076.49	5.37144e-07
2085.17	7.09844e-07
2093.85	6.09242e-07
2102.52	5.6654e-07
2111.2	4.66381e-07
2119.88	4.64774e-07
2128.56	6.29175e-07
2137.24	1.05361e-06
2145.91	1.80543e-06
2154.59	2.18698e-06
2163.27	2.64573e-06
2171.95	2.39647e-06
2180.63	2.5294e-06
2189.31	1.86636e-06
2197.98	1.34335e-06
2206.66	1.68793e-06
2215.34	1.53435e-06
2224.02	1.89547e-06
2232.7	2.26366e-06
2241.37	2.63293e-06
2250.05	3.7153e-06
2258.73	4.1549e-06
2267.41	3.50265e-06
2276.09	3.33365e-06
2284.77	3.0141e-06
2293.44	2.21607e-06
2302.12	1.814e-06
2310.8	1.77362e-06
2319.48	1.38655e-06
2328.16	1.1216e-06
2336.83	1.1397e-06
2345.51	9.07536e-07
2354.19	8.20778e-07
2362.87	7.02396e-07
2371.55	6.73244e-07
2380.23	5.8356e-07
2388.9	4.90378e-07
2397.58	5.75456e-07
2406.26	6.94091e-07
2414.94	8.31348e-07
2423.62	8.46079e-07
2432.29	7.68163e-07
2440.97	5.39846e-07
2449.65	4.26887e-07
2458.33	3.24585e-07
2467.01	3.33362e-07
2475.68	3.83e-07
2484.36	3.95156e-07
2493.04	5.3048e-07
2501.72	6.60617e-07
2510.4	8.18306e-07
2519.08	8.30288e-07
2527.75	1.14507e-06
2536.43	8.04169e-07
2545.11	5.77124e-07
2553.79	6.22293e-07
2562.47	4.91878e-07
2571.14	5.63343e-07
2579.82	6.94165e-07
2588.5	9.98091e-07
2597.18	1.28213e-06
2605.86	1.43654e-06
2614.54	1.646e-06
2623.21	1.47593e-06
2631.89	1.38821e-06
2640.57	1.12034e-06
2649.25	9.2054e-07
2657.93	7.08542e-07
2666.6	4.72117e-07
2675.28	3.14298e-07
2683.96	2.53336e-07
2692.64	2.2981e-07
2701.32	2.76148e-07
2709.99	5.15958e-07
2718.67	9.46267e-07
2727.35	9.45258e-07
2736.03	1.16898e-06
2744.71	1.73333e-06
2753.39	1.72762e-06
2762.06	2.2799e-06
2770.74	5.66618e-06
2779.42	4.08782e-06
2788.1	5.23195e-06
2796.78	5.70933e-06
2805.45	5.18894e-06
2814.13	4.57705e-06
2822.81	4.34008e-06
2831.49	4.56038e-06
2840.17	4.90955e-06
2848.85	5.90759e-06
2857.52	7.81299e-06
2866.2	1.61673e-05
2874.88	1.71736e-05
2883.56	1.91987e-05
2892.24	2.72827e-05
2900.91	4.11588e-05
2909.59	4.35392e-05
2918.27	6.6724e-05
2926.95	8.44455e-05
2935.63	8.43991e-05
2944.31	8.19119e-05
2952.98	0.000106591
2961.66	0.000109471
2970.34	0.000139658
2979.02	0.000170018
2987.7	0.000198629
2996.37	0.00019999
3005.05	0.000172384
3013.73	0.000163226
3022.41	0.00013868
3031.09	0.000122968
3039.76	0.000114939
3048.44	0.000128703
3057.12	8.94665e-05
3065.8	7.63746e-05
3074.48	4.20081e-05
3083.16	2.0159e-05
3091.83	8.20553e-06
3100.51	3.67558e-06
3109.19	2.15978e-06
3117.87	1.91055e-06
3126.55	1.95768e-06
3135.22	2.23112e-06
3143.9	2.66534e-06
3152.58	2.90597e-06
3161.26	3.86979e-06
3169.94	3.22651e-06
3178.62	3.13369e-06
3187.29	2.63019e-06
3195.97	1.75808e-06
3204.65	9.31334e-07
3213.33	4.78845e-07
3222.01	2.66267e-07
3230.68	2.07891e-07
3239.36	1.75399e-07
3248.04	1.69915e-07
3256.72	1.70927e-07
3265.4	1.84252e-07
3274.07	1.55615e-07
3282.75	1.58497e-07
3291.43	2.33504e-07
3300.11	2.28237e-07
3308.79	2.76805e-07
3317.47	4.9053e-07
3326.14	8.01651e-07
3334.82	9.6228e-07
3343.5	9.25088e-07
3352.18	1.2001e-06
3360.86	1.05131e-06
3369.53	8.22731e-07
3378.21	8.41608e-07
3386.89	9.99119e-07
3395.57	1.0754e-06
3404.25	9.09116e-07
3412.93	7.76559e-07
3421.6	5.97353e-07
3430.28	5.6403e-07
3438.96	3.73317e-07
3447.64	4.39143e-07
3456.32	2.44084e-07
3464.99	2.54623e-07
3473.67	2.49455e-07
3482.35	2.39046e-07
3491.03	1.44408e-07
3499.71	1.01726e-07
3508.39	1.48298e-07
3517.06	1.72339e-07
3525.74	1.85455e-07
3534.42	1.74275e-07
3543.1	1.09346e-07
3551.78	2.01138e-07
3560.45	1.57212e-07
3569.13	1.17622e-07
3577.81	1.35221e-07
3586.49	3.36629e-07
3595.17	2.58987e-07
3603.84	1.41034e-07
3612.52	4.34141e-07
3621.2	2.11351e-07
3629.88	6.97369e-07
3638.56	3.09969e-07
3647.24	6.3214e-07
3655.91	7.24271e-07
3664.59	5.21045e-07
3673.27	6.80303e-07
3681.95	7.34662e-07
3690.63	9.19525e-07
3699.3	8.10905e-07
3707.98	8.64974e-07
3716.66	9.84101e-07
3725.34	1.20591e-06
3734.02	1.56112e-06
3742.7	1.7829e-06
3751.37	2.28492e-06
3760.05	2.43582e-06
3768.73	2.07297e-06
3777.41	1.91564e-06
3786.09	1.74232e-06
3794.76	1.62723e-06
3803.44	1.75279e-06
3812.12	1.50336e-06
3820.8	2.12012e-06
3829.48	1.56693e-06
3838.16	2.26234e-06
3846.83	1.35599e-06
3855.51	1.38049e-06
3864.19	1.41377e-06
3872.87	1.44441e-06
3881.55	1.59637e-06
3890.22	1.65819e-06
3898.9	1.89335e-06
3907.58	1.52393e-06
3916.26	1.61113e-06
3924.94	1.84078e-06
3933.61	1.90485e-06
3942.29	2.11539e-06
3950.97	2.13385e-06
3959.65	1.90699e-06
3968.33	1.6642e-06
