Infrared Spectrum: 1,2-Epoxypropane
Formula: C3 H6 O
CAS: 75-56-9
State: gas
Melting point: -104.4 C
Boiling point: 34.3 C
Class: IUPAC A
Instrument: IFS66V (Bruker)
Instrument parameters: KBr Beam splitter; MCT Detector; Multipass cell
Sampling: 1 L/min Flow
Resolution: 1.9290
Temperature: 23 C
Pressure: 101.3 kPa
Origin: NIST, Anayltical Chemistry Division, 301-975-3108
cm-1	(micromol/mol)-1m-1 (base 10)
574.687	-3.52974e-07
583.365	-4.18833e-07
592.043	-3.09272e-07
600.721	-3.62118e-07
609.4	-3.19428e-07
618.078	-2.70685e-07
626.756	-3.26862e-07
635.434	-3.70142e-07
644.112	-2.7116e-07
652.79	-4.05551e-07
661.469	-3.4374e-07
670.147	-2.6677e-07
678.825	-2.36243e-07
687.503	-2.14475e-07
696.181	-9.38752e-08
704.859	1.14315e-07
713.537	7.10877e-07
722.216	2.1407e-06
730.894	5.8192e-06
739.572	1.40318e-05
748.25	2.2159e-05
756.928	3.21494e-05
765.606	3.34817e-05
774.285	3.06318e-05
782.963	1.40065e-05
791.641	1.21577e-05
800.319	2.05497e-05
808.997	4.60046e-05
817.675	9.99687e-05
826.353	0.00014884
835.032	0.000145046
843.71	0.000149286
852.388	0.000120466
861.066	5.15667e-05
869.744	2.35015e-05
878.422	1.42582e-05
887.101	1.17724e-05
895.779	1.03387e-05
904.457	1.16558e-05
913.135	1.15172e-05
921.813	1.30169e-05
930.491	2.02728e-05
939.169	3.25739e-05
947.848	4.34665e-05
956.526	3.09866e-05
965.204	4.5487e-05
973.882	3.20255e-05
982.56	1.9646e-05
991.238	1.47284e-05
999.917	1.78099e-05
1008.59	2.61757e-05
1017.27	3.29052e-05
1025.95	2.93253e-05
1034.63	2.7606e-05
1043.31	1.7422e-05
1051.99	9.30406e-06
1060.66	4.31869e-06
1069.34	3.02698e-06
1078.02	4.91804e-06
1086.7	9.38964e-06
1095.38	1.5378e-05
1104.05	2.09224e-05
1112.73	3.31035e-05
1121.41	2.99687e-05
1130.09	2.91635e-05
1138.77	2.33789e-05
1147.45	1.6495e-05
1156.12	1.59985e-05
1164.8	1.11946e-05
1173.48	6.67036e-06
1182.16	3.26513e-06
1190.84	2.04427e-06
1199.51	1.43763e-06
1208.19	1.3927e-06
1216.87	1.55775e-06
1225.55	2.35626e-06
1234.23	5.15547e-06
1242.9	9.85211e-06
1251.58	1.63633e-05
1260.26	2.04381e-05
1268.94	1.69824e-05
1277.62	1.86116e-05
1286.3	1.22488e-05
1294.97	6.67057e-06
1303.65	3.20923e-06
1312.33	1.70335e-06
1321.01	1.25593e-06
1329.69	1.41088e-06
1338.36	2.48784e-06
1347.04	4.52117e-06
1355.72	7.57711e-06
1364.4	1.03398e-05
1373.08	2.44545e-05
1381.76	1.8143e-05
1390.43	4.38394e-05
1399.11	7.92655e-05
1407.79	6.53312e-05
1416.47	5.53478e-05
1425.15	8.81305e-05
1433.82	4.36045e-05
1442.5	3.30651e-05
1451.18	2.63191e-05
1459.86	3.14312e-05
1468.54	3.10912e-05
1477.22	3.07061e-05
1485.89	2.72072e-05
1494.57	2.2201e-05
1503.25	2.31658e-05
1511.93	1.57003e-05
1520.61	1.17667e-05
1529.28	1.33581e-05
1537.96	5.86841e-06
1546.64	2.97467e-06
1555.32	1.96322e-06
1564	1.63463e-06
1572.67	2.16164e-06
1581.35	2.52734e-06
1590.03	3.32231e-06
1598.71	2.97586e-06
1607.39	2.78177e-06
1616.07	1.89666e-06
1624.74	1.53924e-06
1633.42	1.84896e-06
1642.1	2.19517e-06
1650.78	2.87522e-06
1659.46	3.01651e-06
1668.13	2.84443e-06
1676.81	2.69801e-06
1685.49	3.02095e-06
1694.17	2.10656e-06
1702.85	1.88314e-06
1711.53	1.90638e-06
1720.2	1.8585e-06
1728.88	1.16015e-06
1737.56	6.34852e-07
1746.24	4.2852e-07
1754.92	2.89968e-07
1763.59	4.67455e-07
1772.27	1.06668e-06
1780.95	8.07577e-07
1789.63	9.51901e-07
1798.31	8.05415e-07
1806.98	7.26394e-07
1815.66	3.25332e-07
1824.34	2.88915e-07
1833.02	3.28042e-07
1841.7	4.16684e-07
1850.38	4.28454e-07
1859.05	4.40527e-07
1867.73	6.6337e-07
1876.41	5.55349e-07
1885.09	6.96881e-07
1893.77	8.11194e-07
1902.44	9.89929e-07
1911.12	1.22358e-06
1919.8	8.7735e-07
1928.48	6.78953e-07
1937.16	5.89716e-07
1945.84	7.42687e-07
1954.51	1.37669e-06
1963.19	1.46319e-06
1971.87	1.37644e-06
1980.55	1.95626e-06
1989.23	1.28585e-06
1997.9	1.10851e-06
2006.58	1.27736e-06
2015.26	1.17685e-06
2023.94	1.16011e-06
2032.62	1.06014e-06
2041.3	6.3468e-07
2049.97	3.07813e-07
2058.65	2.72056e-07
2067.33	3.83176e-07
2076.01	5.41347e-07
2084.69	7.15747e-07
2093.36	6.03258e-07
2102.04	5.59027e-07
2110.72	4.7294e-07
2119.4	4.66335e-07
2128.08	6.18351e-07
2136.75	1.01873e-06
2145.43	1.78371e-06
2154.11	2.17592e-06
2162.79	2.5931e-06
2171.47	2.32831e-06
2180.15	2.62241e-06
2188.82	1.81986e-06
2197.5	1.3402e-06
2206.18	1.5653e-06
2214.86	1.49158e-06
2223.54	1.91882e-06
2232.21	2.20479e-06
2240.89	2.581e-06
2249.57	3.66156e-06
2258.25	3.60276e-06
2266.93	3.46694e-06
2275.61	3.41384e-06
2284.28	2.95317e-06
2292.96	2.22738e-06
2301.64	1.98541e-06
2310.32	1.70761e-06
2319	1.39612e-06
2327.67	1.09463e-06
2336.35	1.17214e-06
2345.03	9.28024e-07
2353.71	7.79012e-07
2362.39	6.86561e-07
2371.06	6.06208e-07
2379.74	6.01841e-07
2388.42	5.01475e-07
2397.1	5.93448e-07
2405.78	6.75519e-07
2414.46	7.94912e-07
2423.13	8.62797e-07
2431.81	7.40532e-07
2440.49	5.6277e-07
2449.17	4.23577e-07
2457.85	3.33089e-07
2466.52	3.25006e-07
2475.2	3.67945e-07
2483.88	3.88483e-07
2492.56	5.1951e-07
2501.24	6.51564e-07
2509.92	8.04953e-07
2518.59	8.1137e-07
2527.27	1.11256e-06
2535.95	8.32546e-07
2544.63	5.7219e-07
2553.31	6.29166e-07
2561.98	5.00314e-07
2570.66	5.40187e-07
2579.34	6.94329e-07
2588.02	9.68372e-07
2596.7	1.28219e-06
2605.38	1.45895e-06
2614.05	1.66051e-06
2622.73	1.48318e-06
2631.41	1.39216e-06
2640.09	1.11563e-06
2648.77	9.24059e-07
2657.44	7.35544e-07
2666.12	4.79347e-07
2674.8	3.46687e-07
2683.48	2.45126e-07
2692.16	2.19054e-07
2700.83	2.78162e-07
2709.51	4.85412e-07
2718.19	9.41594e-07
2726.87	9.59157e-07
2735.55	1.08887e-06
2744.23	1.69573e-06
2752.9	1.73896e-06
2761.58	2.21663e-06
2770.26	5.07058e-06
2778.94	4.01113e-06
2787.62	5.18407e-06
2796.29	5.71902e-06
2804.97	5.21549e-06
2813.65	4.51684e-06
2822.33	4.38906e-06
2831.01	4.92521e-06
2839.69	4.79684e-06
2848.36	5.80754e-06
2857.04	8.00693e-06
2865.72	1.53784e-05
2874.4	1.72278e-05
2883.08	1.87351e-05
2891.75	2.6525e-05
2900.43	4.0061e-05
2909.11	4.36089e-05
2917.79	6.65012e-05
2926.47	8.42225e-05
2935.14	8.46074e-05
2943.82	8.47703e-05
2952.5	0.000106217
2961.18	0.000109104
2969.86	0.000138713
2978.54	0.000166045
2987.21	0.000197586
2995.89	0.000206666
3004.57	0.000174896
3013.25	0.000163632
3021.93	0.000140015
3030.6	0.000123626
3039.28	0.000116809
3047.96	0.000117402
3056.64	8.75578e-05
3065.32	7.82064e-05
3074	4.3749e-05
3082.67	2.11437e-05
3091.35	8.74901e-06
3100.03	3.76854e-06
3108.71	2.22494e-06
3117.39	1.88222e-06
3126.06	1.96252e-06
3134.74	2.17388e-06
3143.42	2.60518e-06
3152.1	2.862e-06
3160.78	3.81172e-06
3169.46	3.24609e-06
3178.13	3.18122e-06
3186.81	2.63093e-06
3195.49	1.818e-06
3204.17	9.58931e-07
3212.85	5.36118e-07
3221.52	2.86759e-07
3230.2	2.46745e-07
3238.88	1.54672e-07
3247.56	1.72172e-07
3256.24	1.54692e-07
3264.91	1.74757e-07
3273.59	1.51868e-07
3282.27	2.20977e-07
3290.95	2.39419e-07
3299.63	2.4662e-07
3308.31	2.67086e-07
3316.98	4.53828e-07
3325.66	7.79395e-07
3334.34	9.45709e-07
3343.02	1.03001e-06
3351.7	1.20494e-06
3360.37	1.05058e-06
3369.05	8.3751e-07
3377.73	8.48821e-07
3386.41	1.0394e-06
3395.09	1.06546e-06
3403.77	9.44791e-07
3412.44	7.92225e-07
3421.12	5.88462e-07
3429.8	5.38681e-07
3438.48	3.88569e-07
3447.16	4.1816e-07
3455.83	2.71206e-07
3464.51	3.05295e-07
3473.19	2.51118e-07
3481.87	1.94381e-07
3490.55	1.29825e-07
3499.22	1.1003e-07
3507.9	1.32618e-07
3516.58	1.60988e-07
3525.26	1.8042e-07
3533.94	1.5815e-07
3542.62	1.41335e-07
3551.29	1.99232e-07
3559.97	1.7018e-07
3568.65	2.10296e-07
3577.33	1.49841e-07
3586.01	2.44266e-07
3594.68	2.25682e-07
3603.36	1.69369e-07
3612.04	3.12148e-07
3620.72	2.59069e-07
3629.4	6.41051e-07
3638.08	3.02029e-07
3646.75	5.04368e-07
3655.43	5.41983e-07
3664.11	5.37385e-07
3672.79	6.64572e-07
3681.47	7.46003e-07
3690.14	9.397e-07
3698.82	8.32212e-07
3707.5	8.59816e-07
3716.18	9.83994e-07
3724.86	1.18854e-06
3733.54	1.58369e-06
3742.21	1.78861e-06
3750.89	2.31877e-06
3759.57	2.41426e-06
3768.25	2.09394e-06
3776.93	1.95929e-06
3785.6	1.77204e-06
3794.28	1.62102e-06
3802.96	1.76729e-06
3811.64	1.49092e-06
3820.32	2.00893e-06
3828.99	1.58776e-06
3837.67	2.05012e-06
3846.35	1.32678e-06
3855.03	1.85047e-06
3863.71	1.36232e-06
3872.39	1.45602e-06
3881.06	1.66183e-06
3889.74	1.64914e-06
3898.42	1.80965e-06
3907.1	1.55235e-06
3915.78	1.60405e-06
3924.45	1.77812e-06
3933.13	1.92093e-06
3941.81	2.29789e-06
3950.49	2.11949e-06
3959.17	1.93327e-06
3967.85	1.69516e-06
