Infrared Spectrum: 1,2-Epoxypropane
Formula: C3 H6 O
CAS: 75-56-9
State: gas
Melting point: -104.4 C
Boiling point: 34.3 C
Class: IUPAC A
Instrument: IFS66V (Bruker)
Instrument parameters: KBr Beam splitter; MCT Detector; Multipass cell
Sampling: 1 L/min Flow
Resolution: 0.4820
Temperature: 23 C
Pressure: 101.3 kPa
Origin: NIST, Anayltical Chemistry Division, 301-975-3108
cm-1	(micromol/mol)-1m-1 (base 10)
574.928	-2.55444e-07
583.606	-2.69221e-07
592.284	-3.00956e-07
600.962	-3.80016e-07
609.641	-3.28731e-07
618.319	-2.38126e-07
626.997	-3.47707e-07
635.675	-4.62235e-07
644.353	-2.6333e-07
653.031	-4.08353e-07
661.71	-3.35692e-07
670.388	-2.01723e-07
679.066	-2.55393e-07
687.744	-1.75833e-07
696.422	-3.86165e-08
705.1	2.41303e-08
713.778	7.15725e-07
722.457	2.21575e-06
731.135	6.0135e-06
739.813	1.43602e-05
748.491	2.22645e-05
757.169	3.50685e-05
765.847	3.40016e-05
774.526	3.00892e-05
783.204	1.34376e-05
791.882	1.23025e-05
800.56	2.08643e-05
809.238	4.7136e-05
817.916	0.000101438
826.594	0.000149467
835.273	0.000155007
843.951	0.00014926
852.629	0.000118859
861.307	5.02064e-05
869.985	2.31412e-05
878.663	1.40716e-05
887.342	1.16168e-05
896.02	1.12651e-05
904.698	1.17694e-05
913.376	1.14857e-05
922.054	1.3201e-05
930.732	2.04596e-05
939.41	3.30671e-05
948.089	4.46455e-05
956.767	2.96789e-05
965.445	4.50912e-05
974.123	3.16536e-05
982.801	1.9399e-05
991.479	1.46643e-05
1000.16	1.8025e-05
1008.84	2.6929e-05
1017.51	3.28085e-05
1026.19	3.1401e-05
1034.87	2.67818e-05
1043.55	1.70309e-05
1052.23	9.14675e-06
1060.9	4.19359e-06
1069.58	3.01314e-06
1078.26	5.02605e-06
1086.94	9.52426e-06
1095.62	1.54749e-05
1104.3	2.07675e-05
1112.97	3.38791e-05
1121.65	3.01133e-05
1130.33	2.90542e-05
1139.01	2.31532e-05
1147.69	1.60423e-05
1156.36	1.5979e-05
1165.04	1.1038e-05
1173.72	6.54898e-06
1182.4	3.20533e-06
1191.08	2.01066e-06
1199.76	1.47066e-06
1208.43	1.22395e-06
1217.11	1.58587e-06
1225.79	2.39565e-06
1234.47	5.26063e-06
1243.15	9.99004e-06
1251.82	1.67231e-05
1260.5	2.06987e-05
1269.18	1.73099e-05
1277.86	1.83173e-05
1286.54	1.20324e-05
1295.21	6.58329e-06
1303.89	3.12903e-06
1312.57	1.70923e-06
1321.25	1.24802e-06
1329.93	1.42092e-06
1338.61	2.53598e-06
1347.28	4.58084e-06
1355.96	7.72528e-06
1364.64	1.07203e-05
1373.32	1.52367e-05
1382	1.8472e-05
1390.67	4.43319e-05
1399.35	7.99032e-05
1408.03	6.59876e-05
1416.71	5.74834e-05
1425.39	8.7387e-05
1434.07	4.21375e-05
1442.74	3.31805e-05
1451.42	2.60493e-05
1460.1	3.13294e-05
1468.78	3.11468e-05
1477.46	3.06637e-05
1486.13	2.67898e-05
1494.81	2.2368e-05
1503.49	2.29828e-05
1512.17	1.59822e-05
1520.85	1.19711e-05
1529.52	1.31978e-05
1538.2	5.5758e-06
1546.88	2.90593e-06
1555.56	1.80436e-06
1564.24	1.63825e-06
1572.92	2.19205e-06
1581.59	2.53088e-06
1590.27	3.46894e-06
1598.95	3.02521e-06
1607.63	2.70915e-06
1616.31	1.98207e-06
1624.98	1.46578e-06
1633.66	1.82815e-06
1642.34	2.22339e-06
1651.02	2.88828e-06
1659.7	3.03813e-06
1668.38	2.87382e-06
1677.05	2.66306e-06
1685.73	2.52965e-06
1694.41	2.0694e-06
1703.09	1.83627e-06
1711.77	1.91613e-06
1720.44	1.83285e-06
1729.12	1.1255e-06
1737.8	6.63959e-07
1746.48	4.05018e-07
1755.16	3.06044e-07
1763.84	4.56851e-07
1772.51	1.41379e-06
1781.19	7.57485e-07
1789.87	9.30092e-07
1798.55	8.07514e-07
1807.23	7.09476e-07
1815.9	3.12997e-07
1824.58	2.52281e-07
1833.26	3.35177e-07
1841.94	4.29359e-07
1850.62	4.22749e-07
1859.29	3.97324e-07
1867.97	7.10141e-07
1876.65	5.6047e-07
1885.33	7.07731e-07
1894.01	8.17066e-07
1902.69	9.99488e-07
1911.36	1.2726e-06
1920.04	8.72727e-07
1928.72	6.65223e-07
1937.4	5.82483e-07
1946.08	7.72323e-07
1954.75	1.40315e-06
1963.43	1.46845e-06
1972.11	1.38756e-06
1980.79	1.88302e-06
1989.47	1.25782e-06
1998.15	1.10944e-06
2006.82	1.27934e-06
2015.5	1.15711e-06
2024.18	1.16179e-06
2032.86	1.06375e-06
2041.54	6.15157e-07
2050.21	3.0481e-07
2058.89	2.977e-07
2067.57	3.84729e-07
2076.25	5.42133e-07
2084.93	7.9939e-07
2093.6	6.12247e-07
2102.28	5.49123e-07
2110.96	4.85317e-07
2119.64	4.61397e-07
2128.32	6.04571e-07
2137	1.02935e-06
2145.67	1.79873e-06
2154.35	2.16205e-06
2163.03	2.64705e-06
2171.71	2.33044e-06
2180.39	2.58073e-06
2189.06	1.83581e-06
2197.74	1.34361e-06
2206.42	1.64551e-06
2215.1	1.50422e-06
2223.78	1.90441e-06
2232.46	2.22486e-06
2241.13	2.60066e-06
2249.81	3.81246e-06
2258.49	3.59675e-06
2267.17	3.48142e-06
2275.85	3.38557e-06
2284.52	2.98362e-06
2293.2	2.21895e-06
2301.88	1.84337e-06
2310.56	1.70859e-06
2319.24	1.38761e-06
2327.92	1.09008e-06
2336.59	1.14459e-06
2345.27	8.94892e-07
2353.95	7.76902e-07
2362.63	7.10695e-07
2371.31	6.36123e-07
2379.98	5.92475e-07
2388.66	4.78036e-07
2397.34	5.92363e-07
2406.02	6.90675e-07
2414.7	7.85743e-07
2423.37	8.7116e-07
2432.05	7.70096e-07
2440.73	5.23881e-07
2449.41	4.25543e-07
2458.09	3.30491e-07
2466.77	3.23674e-07
2475.44	3.68665e-07
2484.12	4.16826e-07
2492.8	5.43645e-07
2501.48	6.47446e-07
2510.16	8.36221e-07
2518.83	8.18193e-07
2527.51	1.11932e-06
2536.19	8.17791e-07
2544.87	5.69392e-07
2553.55	6.26857e-07
2562.23	5.05522e-07
2570.9	5.63888e-07
2579.58	6.69074e-07
2588.26	9.89107e-07
2596.94	1.27037e-06
2605.62	1.46571e-06
2614.29	1.67704e-06
2622.97	1.48029e-06
2631.65	1.40047e-06
2640.33	1.1124e-06
2649.01	9.26161e-07
2657.68	7.12719e-07
2666.36	4.59238e-07
2675.04	3.09005e-07
2683.72	2.5438e-07
2692.4	2.49622e-07
2701.08	2.64214e-07
2709.75	5.00566e-07
2718.43	9.39242e-07
2727.11	9.53583e-07
2735.79	1.12459e-06
2744.47	1.67858e-06
2753.14	1.72649e-06
2761.82	2.24402e-06
2770.5	5.34529e-06
2779.18	4.06769e-06
2787.86	5.16288e-06
2796.54	5.70655e-06
2805.21	5.13477e-06
2813.89	4.55353e-06
2822.57	4.35884e-06
2831.25	4.79929e-06
2839.93	4.89298e-06
2848.6	5.85652e-06
2857.28	7.77076e-06
2865.96	1.53471e-05
2874.64	1.72003e-05
2883.32	1.89183e-05
2892	2.68028e-05
2900.67	4.0749e-05
2909.35	4.3638e-05
2918.03	6.64366e-05
2926.71	8.33141e-05
2935.39	8.441e-05
2944.06	8.19864e-05
2952.74	0.00010648
2961.42	0.000109205
2970.1	0.000139329
2978.78	0.000168563
2987.45	0.000198096
2996.13	0.000203958
3004.81	0.000172545
3013.49	0.000163124
3022.17	0.000139351
3030.85	0.000123277
3039.52	0.000115822
3048.2	0.000114042
3056.88	8.88728e-05
3065.56	7.73265e-05
3074.24	4.28092e-05
3082.91	2.06571e-05
3091.59	8.44614e-06
3100.27	3.72373e-06
3108.95	2.19733e-06
3117.63	1.90087e-06
3126.31	1.96989e-06
3134.98	2.22979e-06
3143.66	2.62039e-06
3152.34	2.90764e-06
3161.02	3.86034e-06
3169.7	3.24793e-06
3178.37	3.14714e-06
3187.05	2.653e-06
3195.73	1.81466e-06
3204.41	9.64025e-07
3213.09	4.94524e-07
3221.77	2.88239e-07
3230.44	2.10033e-07
3239.12	1.87347e-07
3247.8	2.15159e-07
3256.48	1.82103e-07
3265.16	1.60514e-07
3273.83	1.73383e-07
3282.51	1.54767e-07
3291.19	2.2328e-07
3299.87	2.17844e-07
3308.55	2.73668e-07
3317.22	5.00435e-07
3325.9	7.95785e-07
3334.58	9.72627e-07
3343.26	9.26245e-07
3351.94	1.13873e-06
3360.62	1.03324e-06
3369.29	7.95318e-07
3377.97	8.52378e-07
3386.65	1.04081e-06
3395.33	1.0859e-06
3404.01	9.16403e-07
3412.68	8.02733e-07
3421.36	6.1129e-07
3430.04	5.71114e-07
3438.72	3.87848e-07
3447.4	4.77175e-07
3456.08	2.56271e-07
3464.75	2.62138e-07
3473.43	2.78751e-07
3482.11	2.39122e-07
3490.79	1.3716e-07
3499.47	1.21186e-07
3508.14	1.12897e-07
3516.82	1.92599e-07
3525.5	2.11697e-07
3534.18	1.70265e-07
3542.86	1.0908e-07
3551.53	2.08309e-07
3560.21	1.51081e-07
3568.89	1.48687e-07
3577.57	1.56594e-07
3586.25	2.39416e-07
3594.93	2.11811e-07
3603.6	1.68603e-07
3612.28	3.9118e-07
3620.96	2.08041e-07
3629.64	1.05979e-06
3638.32	3.41759e-07
3646.99	5.93404e-07
3655.67	4.91594e-07
3664.35	5.42879e-07
3673.03	6.71928e-07
3681.71	7.60342e-07
3690.39	8.85541e-07
3699.06	8.0313e-07
3707.74	8.51827e-07
3716.42	1.0145e-06
3725.1	1.26036e-06
3733.78	1.49959e-06
3742.45	1.77887e-06
3751.13	2.17709e-06
3759.81	2.5866e-06
3768.49	2.06845e-06
3777.17	1.93634e-06
3785.85	1.78008e-06
3794.52	1.62062e-06
3803.2	1.76386e-06
3811.88	1.47567e-06
3820.56	2.18309e-06
3829.24	1.57199e-06
3837.91	2.89108e-06
3846.59	1.3827e-06
3855.27	1.38018e-06
3863.95	1.35219e-06
3872.63	1.46952e-06
3881.3	1.65441e-06
3889.98	1.61517e-06
3898.66	1.81603e-06
3907.34	1.50951e-06
3916.02	1.62065e-06
3924.7	1.78941e-06
3933.37	1.91706e-06
3942.05	2.22648e-06
3950.73	2.11489e-06
3959.41	1.91552e-06
3968.09	1.69025e-06
