Infrared Spectrum: 1,2-Epoxypropane
Formula: C3 H6 O
CAS: 75-56-9
State: gas
Melting point: -104.4 C
Boiling point: 34.3 C
Class: IUPAC A
Instrument: IFS66V (Bruker)
Instrument parameters: KBr Beam splitter; MCT Detector; Multipass cell
Sampling: 1 L/min Flow
Resolution: 0.2410
Temperature: 23 C
Pressure: 101.3 kPa
Origin: NIST, Anayltical Chemistry Division, 301-975-3108
cm-1	(micromol/mol)-1m-1 (base 10)
575.048	-1.17101e-06
583.606	3.60295e-07
592.163	4.26937e-08
600.721	-5.80437e-07
609.279	8.91272e-08
617.836	-1.82206e-07
626.394	-4.0646e-07
634.951	-2.21126e-07
643.509	-2.88802e-07
652.067	-4.18128e-07
660.624	-6.57824e-07
669.182	-3.98418e-07
677.74	-5.78163e-07
686.297	-1.80029e-07
694.855	-6.34508e-08
703.412	-5.40154e-08
711.97	4.20343e-07
720.528	1.83075e-06
729.085	4.75932e-06
737.643	1.17396e-05
746.201	2.07059e-05
754.758	2.73124e-05
763.316	2.90253e-05
771.873	3.59866e-05
780.431	1.67655e-05
788.989	1.13624e-05
797.546	1.62251e-05
806.104	3.54155e-05
814.662	7.74722e-05
823.219	0.000137111
831.777	0.0001219
840.334	0.000127541
848.892	0.00014187
857.45	7.52942e-05
866.007	3.14273e-05
874.565	1.67139e-05
883.123	1.20688e-05
891.68	9.88676e-06
900.238	1.08409e-05
908.795	1.16775e-05
917.353	1.14989e-05
925.911	1.64299e-05
934.468	2.45924e-05
943.026	3.86349e-05
951.584	4.25845e-05
960.141	4.46988e-05
968.699	4.03957e-05
977.256	2.65889e-05
985.814	1.64187e-05
994.372	1.55571e-05
1002.93	2.09342e-05
1011.49	2.71128e-05
1020.04	2.96287e-05
1028.6	3.5766e-05
1037.16	2.29455e-05
1045.72	1.47727e-05
1054.28	7.64571e-06
1062.83	3.57246e-06
1071.39	3.14381e-06
1079.95	5.67306e-06
1088.51	1.03486e-05
1097.06	1.68644e-05
1105.62	2.1058e-05
1114.18	3.30381e-05
1122.74	2.97353e-05
1131.29	2.96126e-05
1139.85	2.32891e-05
1148.41	1.73196e-05
1156.97	1.60908e-05
1165.52	1.04639e-05
1174.08	6.42337e-06
1182.64	3.22289e-06
1191.2	2.09945e-06
1199.75	1.54067e-06
1208.31	1.17648e-06
1216.87	1.51231e-06
1225.43	2.20398e-06
1233.99	4.7637e-06
1242.54	9.06409e-06
1251.1	1.62873e-05
1259.66	2.14105e-05
1268.22	1.52743e-05
1276.77	2.15993e-05
1285.33	1.27527e-05
1293.89	7.19608e-06
1302.45	3.66779e-06
1311	1.84082e-06
1319.56	1.2027e-06
1328.12	1.26748e-06
1336.68	2.36045e-06
1345.23	4.16131e-06
1353.79	6.7448e-06
1362.35	9.27565e-06
1370.91	1.79104e-05
1379.46	1.59392e-05
1388.02	3.38705e-05
1396.58	7.31955e-05
1405.14	5.59953e-05
1413.7	3.18701e-05
1422.25	9.43549e-05
1430.81	5.48044e-05
1439.37	3.30571e-05
1447.93	2.79768e-05
1456.48	3.11085e-05
1465.04	4.1878e-05
1473.6	4.00383e-05
1482.16	2.7509e-05
1490.71	2.40527e-05
1499.27	2.49539e-05
1507.83	1.85002e-05
1516.39	1.46645e-05
1524.94	1.34639e-05
1533.5	1.04086e-05
1542.06	5.21816e-06
1550.62	2.34488e-06
1559.18	1.69679e-06
1567.73	1.72729e-06
1576.29	4.22261e-06
1584.85	2.52568e-06
1593.41	2.12475e-06
1601.96	3.40418e-06
1610.52	2.15025e-06
1619.08	1.45837e-06
1627.64	1.67391e-06
1636.19	2.21669e-06
1644.75	2.11309e-06
1653.31	6.04801e-06
1661.87	2.93891e-06
1670.42	3.15659e-06
1678.98	2.62741e-06
1687.54	2.37615e-06
1696.1	2.99218e-06
1704.65	1.96151e-06
1713.21	2.05697e-06
1721.77	1.76396e-06
1730.33	1.13543e-06
1738.89	5.73805e-07
1747.44	3.50573e-07
1756	2.99409e-07
1764.56	4.07602e-07
1773.12	8.77235e-07
1781.67	7.94362e-07
1790.23	1.03511e-06
1798.79	8.6608e-07
1807.35	7.3015e-07
1815.9	3.14565e-07
1824.46	1.93354e-07
1833.02	3.5993e-07
1841.58	3.81564e-07
1850.13	4.15761e-07
1858.69	4.32973e-07
1867.25	6.15327e-07
1875.81	5.38365e-07
1884.36	7.02182e-07
1892.92	7.83989e-07
1901.48	9.59295e-07
1910.04	1.27987e-06
1918.6	9.01953e-07
1927.15	6.32883e-07
1935.71	5.97539e-07
1944.27	6.37091e-07
1952.83	1.25822e-06
1961.38	1.49287e-06
1969.94	1.18629e-06
1978.5	2.00447e-06
1987.06	1.38202e-06
1995.61	1.05116e-06
2004.17	1.23136e-06
2012.73	1.29801e-06
2021.29	1.11441e-06
2029.84	1.16332e-06
2038.4	7.62296e-07
2046.96	4.03251e-07
2055.52	2.12977e-07
2064.08	2.94774e-07
2072.63	4.91369e-07
2081.19	5.21898e-07
2089.75	4.8324e-07
2098.31	7.75976e-07
2106.86	4.98075e-07
2115.42	4.80191e-07
2123.98	5.71178e-07
2132.54	7.13266e-07
2141.09	1.34043e-06
2149.65	2.03402e-06
2158.21	2.69368e-06
2166.77	2.89602e-06
2175.32	2.86679e-06
2183.88	1.93723e-06
2192.44	1.23361e-06
2201	1.29132e-06
2209.55	1.15984e-06
2218.11	1.70363e-06
2226.67	2.01062e-06
2235.23	2.67332e-06
2243.79	2.98046e-06
2252.34	3.35647e-06
2260.9	2.9449e-06
2269.46	3.62207e-06
2278.02	2.97009e-06
2286.57	3.19097e-06
2295.13	2.20143e-06
2303.69	1.67679e-06
2312.25	1.8195e-06
2320.8	1.2764e-06
2329.36	9.51729e-07
2337.92	1.05297e-06
2346.48	8.87803e-07
2355.03	7.85534e-07
2363.59	6.8439e-07
2372.15	6.36404e-07
2380.71	5.75268e-07
2389.26	5.10443e-07
2397.82	5.62534e-07
2406.38	6.69137e-07
2414.94	8.28763e-07
2423.5	8.65098e-07
2432.05	7.33728e-07
2440.61	5.95334e-07
2449.17	3.95655e-07
2457.73	3.54741e-07
2466.28	3.01197e-07
2474.84	3.31037e-07
2483.4	3.94995e-07
2491.96	4.80561e-07
2500.51	7.21113e-07
2509.07	8.45472e-07
2517.63	7.98756e-07
2526.19	1.12031e-06
2534.74	8.03124e-07
2543.3	5.81806e-07
2551.86	6.3842e-07
2560.42	5.31818e-07
2568.98	5.05808e-07
2577.53	6.28534e-07
2586.09	9.31718e-07
2594.65	1.178e-06
2603.21	1.48228e-06
2611.76	1.55968e-06
2620.32	1.45575e-06
2628.88	1.43807e-06
2637.44	1.22889e-06
2645.99	9.65307e-07
2654.55	9.58563e-07
2663.11	4.74645e-07
2671.67	4.4232e-07
2680.22	3.5432e-07
2688.78	2.52485e-07
2697.34	2.71711e-07
2705.9	4.1357e-07
2714.45	7.85954e-07
2723.01	1.00616e-06
2731.57	1.69177e-06
2740.13	1.59355e-06
2748.69	1.87184e-06
2757.24	1.94863e-06
2765.8	2.42526e-06
2774.36	3.37574e-06
2782.92	4.47573e-06
2791.47	5.57911e-06
2800.03	5.44601e-06
2808.59	8.52281e-06
2817.15	4.41528e-06
2825.7	4.52445e-06
2834.26	4.14244e-06
2842.82	5.02276e-06
2851.38	6.30938e-06
2859.93	8.84357e-06
2868.49	1.66849e-05
2877.05	1.81955e-05
2885.61	2.44334e-05
2894.16	3.02341e-05
2902.72	4.33472e-05
2911.28	4.50792e-05
2919.84	7.16353e-05
2928.4	9.73118e-05
2936.95	8.47477e-05
2945.51	8.31343e-05
2954.07	0.000106957
2962.63	0.00011231
2971.18	0.000139926
2979.74	0.000176206
2988.3	0.000199409
2996.86	0.000194857
3005.41	0.000172297
3013.97	0.000163405
3022.53	0.000138508
3031.09	0.000122766
3039.64	0.000114859
3048.2	0.0001127
3056.76	8.91406e-05
3065.32	7.77293e-05
3073.88	4.37179e-05
3082.43	2.14463e-05
3090.99	8.99922e-06
3099.55	3.87449e-06
3108.11	2.10331e-06
3116.66	1.85194e-06
3125.22	1.90056e-06
3133.78	2.10495e-06
3142.34	2.48353e-06
3150.89	2.78506e-06
3159.45	3.68171e-06
3168.01	3.30618e-06
3176.57	3.5564e-06
3185.12	2.7511e-06
3193.68	2.05415e-06
3202.24	1.05976e-06
3210.8	5.79241e-07
3219.35	4.84807e-07
3227.91	1.58433e-07
3236.47	2.22333e-07
3245.03	7.16147e-08
3253.59	1.73351e-07
3262.14	1.32962e-07
3270.7	-2.58479e-08
3279.26	2.29314e-07
3287.82	1.87109e-07
3296.37	2.72501e-07
3304.93	3.30893e-07
3313.49	4.48086e-07
3322.05	4.71364e-07
3330.6	9.46271e-07
3339.16	1.21108e-06
3347.72	9.5378e-07
3356.28	1.08442e-06
3364.83	9.5393e-07
3373.39	8.46484e-07
3381.95	8.34271e-07
3390.51	1.02687e-06
3399.06	1.06296e-06
3407.62	7.20775e-07
3416.18	7.83974e-07
3424.74	3.81915e-07
3433.3	4.40543e-07
3441.85	4.80357e-07
3450.41	4.32846e-07
3458.97	2.94295e-07
3467.53	3.81803e-07
3476.08	2.07609e-07
3484.64	2.04028e-07
3493.2	2.49922e-07
3501.76	-4.19234e-08
3510.31	2.58652e-08
3518.87	2.31716e-07
3527.43	8.38309e-08
3535.99	9.99741e-08
3544.54	3.39673e-08
3553.1	4.21217e-08
3561.66	-2.3119e-09
3570.22	1.95546e-07
3578.78	2.0744e-07
3587.33	1.82531e-07
3595.89	2.11641e-07
3604.45	2.50982e-07
3613.01	2.48138e-07
3621.56	1.66935e-07
3630.12	2.42758e-07
3638.68	3.37158e-07
3647.24	7.3379e-07
3655.79	5.4507e-07
3664.35	5.66692e-07
3672.91	7.77298e-07
3681.47	7.24409e-07
3690.02	9.00755e-07
3698.58	9.06906e-07
3707.14	8.00887e-07
3715.7	1.03863e-06
3724.25	1.2887e-06
3732.81	1.62871e-06
3741.37	1.97177e-06
3749.93	2.23057e-06
3758.49	2.29234e-06
3767.04	2.16033e-06
3775.6	1.95541e-06
3784.16	1.65418e-06
3792.72	1.70774e-06
3801.27	2.67578e-06
3809.83	1.50423e-06
3818.39	1.91955e-06
3826.95	1.77346e-06
3835.5	1.73341e-06
3844.06	1.54424e-06
3852.62	1.47607e-06
3861.18	1.21377e-06
3869.73	1.53313e-06
3878.29	1.41018e-06
3886.85	1.63877e-06
3895.41	1.53477e-06
3903.96	1.79514e-06
3912.52	1.56302e-06
3921.08	1.64824e-06
3929.64	1.94046e-06
3938.2	1.75091e-06
3946.75	2.20448e-06
3955.31	2.10477e-06
3963.87	1.9511e-06
3972.43	1.65927e-06
