Infrared Spectrum: 1,2-Epoxypropane
Formula: C3 H6 O
CAS: 75-56-9
State: gas
Melting point: -104.4 C
Boiling point: 34.3 C
Class: IUPAC A
Instrument: IFS66V (Bruker)
Instrument parameters: KBr Beam splitter; MCT Detector; Multipass cell
Sampling: 1 L/min Flow
Resolution: 0.2410
Temperature: 23 C
Pressure: 101.3 kPa
Origin: NIST, Anayltical Chemistry Division, 301-975-3108
cm-1	(micromol/mol)-1m-1 (base 10)
575.048	-8.74244e-07
583.606	6.68431e-08
592.163	-1.7591e-07
600.721	-3.6823e-07
609.279	-1.89877e-07
617.836	-2.16917e-07
626.394	-3.27095e-07
634.951	-2.40522e-07
643.509	-3.62511e-07
652.067	-3.66788e-07
660.624	-5.36525e-07
669.182	-3.80209e-07
677.74	-4.43437e-07
686.297	-1.61458e-07
694.855	-2.09858e-08
703.412	-3.25576e-08
711.97	4.49885e-07
720.528	1.86919e-06
729.085	4.74746e-06
737.643	1.17471e-05
746.201	2.0819e-05
754.758	2.73994e-05
763.316	2.8978e-05
771.873	3.56116e-05
780.431	1.6732e-05
788.989	1.1452e-05
797.546	1.64005e-05
806.104	3.51379e-05
814.662	7.74864e-05
823.219	0.000138151
831.777	0.00012299
840.334	0.000127331
848.892	0.000142695
857.45	7.54433e-05
866.007	3.14549e-05
874.565	1.67415e-05
883.123	1.21018e-05
891.68	9.89739e-06
900.238	1.09971e-05
908.795	1.15689e-05
917.353	1.1534e-05
925.911	1.61195e-05
934.468	2.48955e-05
943.026	3.83955e-05
951.584	4.30682e-05
960.141	4.49385e-05
968.699	4.05988e-05
977.256	2.64827e-05
985.814	1.67162e-05
994.372	1.5173e-05
1002.93	2.09817e-05
1011.49	2.72967e-05
1020.04	2.88073e-05
1028.6	3.59137e-05
1037.16	2.30293e-05
1045.72	1.48164e-05
1054.28	7.58864e-06
1062.83	3.58256e-06
1071.39	3.17231e-06
1079.95	5.65577e-06
1088.51	1.04628e-05
1097.06	1.68594e-05
1105.62	2.09041e-05
1114.18	3.31996e-05
1122.74	2.96992e-05
1131.29	2.96278e-05
1139.85	2.33631e-05
1148.41	1.73475e-05
1156.97	1.61601e-05
1165.52	1.05349e-05
1174.08	6.40432e-06
1182.64	3.19949e-06
1191.2	2.07212e-06
1199.75	1.49349e-06
1208.31	1.19559e-06
1216.87	1.53383e-06
1225.43	2.28576e-06
1233.99	4.93436e-06
1242.54	9.36433e-06
1251.1	1.62254e-05
1259.66	2.11717e-05
1268.22	1.52023e-05
1276.77	2.0896e-05
1285.33	1.28147e-05
1293.89	7.17346e-06
1302.45	3.62957e-06
1311	1.83146e-06
1319.56	1.23136e-06
1328.12	1.25555e-06
1336.68	2.3237e-06
1345.23	4.10505e-06
1353.79	6.82929e-06
1362.35	9.40894e-06
1370.91	1.79564e-05
1379.46	1.59058e-05
1388.02	3.38613e-05
1396.58	7.31643e-05
1405.14	5.76376e-05
1413.7	3.17826e-05
1422.25	9.3777e-05
1430.81	5.53243e-05
1439.37	3.33801e-05
1447.93	2.7994e-05
1456.48	3.08536e-05
1465.04	4.22669e-05
1473.6	3.98065e-05
1482.16	2.7472e-05
1490.71	2.41469e-05
1499.27	2.50439e-05
1507.83	1.85452e-05
1516.39	1.46263e-05
1524.94	1.3493e-05
1533.5	1.0411e-05
1542.06	5.17949e-06
1550.62	2.33115e-06
1559.18	1.70489e-06
1567.73	1.75984e-06
1576.29	4.29071e-06
1584.85	2.53028e-06
1593.41	2.15617e-06
1601.96	3.42271e-06
1610.52	2.13379e-06
1619.08	1.4455e-06
1627.64	1.7169e-06
1636.19	2.20111e-06
1644.75	2.12699e-06
1653.31	5.43222e-06
1661.87	2.95512e-06
1670.42	3.09653e-06
1678.98	2.60373e-06
1687.54	2.38508e-06
1696.1	3.50279e-06
1704.65	2.07185e-06
1713.21	2.07976e-06
1721.77	1.76296e-06
1730.33	1.12631e-06
1738.89	5.9155e-07
1747.44	3.77323e-07
1756	2.89851e-07
1764.56	4.26e-07
1773.12	8.99906e-07
1781.67	8.08088e-07
1790.23	1.01082e-06
1798.79	8.45638e-07
1807.35	7.14635e-07
1815.9	3.05785e-07
1824.46	2.17068e-07
1833.02	3.46827e-07
1841.58	3.9376e-07
1850.13	4.24447e-07
1858.69	4.09833e-07
1867.25	6.15677e-07
1875.81	5.42292e-07
1884.36	7.16293e-07
1892.92	7.99614e-07
1901.48	9.50899e-07
1910.04	1.24102e-06
1918.6	8.81316e-07
1927.15	6.73817e-07
1935.71	5.9493e-07
1944.27	6.44638e-07
1952.83	1.2564e-06
1961.38	1.49469e-06
1969.94	1.19005e-06
1978.5	1.99807e-06
1987.06	1.37083e-06
1995.61	1.07102e-06
2004.17	1.212e-06
2012.73	1.26102e-06
2021.29	1.10547e-06
2029.84	1.1419e-06
2038.4	7.85733e-07
2046.96	4.2007e-07
2055.52	2.25831e-07
2064.08	2.99282e-07
2072.63	4.91627e-07
2081.19	5.27816e-07
2089.75	5.31516e-07
2098.31	7.77456e-07
2106.86	4.95684e-07
2115.42	4.79194e-07
2123.98	5.8818e-07
2132.54	7.14327e-07
2141.09	1.3576e-06
2149.65	2.0313e-06
2158.21	2.72864e-06
2166.77	2.93014e-06
2175.32	2.89028e-06
2183.88	1.95031e-06
2192.44	1.21678e-06
2201	1.32924e-06
2209.55	1.14639e-06
2218.11	1.7175e-06
2226.67	2.02537e-06
2235.23	2.65716e-06
2243.79	2.97798e-06
2252.34	3.37094e-06
2260.9	2.93637e-06
2269.46	3.63188e-06
2278.02	2.98913e-06
2286.57	3.13888e-06
2295.13	2.16831e-06
2303.69	1.71145e-06
2312.25	1.79954e-06
2320.8	1.2995e-06
2329.36	9.76258e-07
2337.92	1.05624e-06
2346.48	8.75362e-07
2355.03	7.99576e-07
2363.59	6.3834e-07
2372.15	6.84947e-07
2380.71	5.59818e-07
2389.26	5.1412e-07
2397.82	5.56589e-07
2406.38	6.87296e-07
2414.94	8.12916e-07
2423.5	8.70205e-07
2432.05	7.52449e-07
2440.61	5.62869e-07
2449.17	4.17422e-07
2457.73	3.30412e-07
2466.28	3.28628e-07
2474.84	3.34637e-07
2483.4	3.62993e-07
2491.96	4.98667e-07
2500.51	6.76913e-07
2509.07	7.99751e-07
2517.63	7.92981e-07
2526.19	1.08635e-06
2534.74	8.42417e-07
2543.3	6.48217e-07
2551.86	6.25761e-07
2560.42	5.27814e-07
2568.98	5.14516e-07
2577.53	6.33289e-07
2586.09	8.79648e-07
2594.65	1.17644e-06
2603.21	1.47762e-06
2611.76	1.54962e-06
2620.32	1.47636e-06
2628.88	1.42163e-06
2637.44	1.25863e-06
2645.99	9.60899e-07
2654.55	9.03207e-07
2663.11	5.0284e-07
2671.67	4.56124e-07
2680.22	3.47369e-07
2688.78	2.691e-07
2697.34	2.40638e-07
2705.9	4.21832e-07
2714.45	7.99879e-07
2723.01	9.9307e-07
2731.57	1.75615e-06
2740.13	1.58977e-06
2748.69	1.80267e-06
2757.24	1.91916e-06
2765.8	2.427e-06
2774.36	3.37026e-06
2782.92	4.52277e-06
2791.47	5.52679e-06
2800.03	5.39714e-06
2808.59	8.47318e-06
2817.15	4.46647e-06
2825.7	4.49685e-06
2834.26	4.12689e-06
2842.82	5.12771e-06
2851.38	6.27708e-06
2859.93	8.82959e-06
2868.49	1.66693e-05
2877.05	1.82997e-05
2885.61	2.44225e-05
2894.16	3.02551e-05
2902.72	4.34711e-05
2911.28	4.5107e-05
2919.84	7.16325e-05
2928.4	9.72966e-05
2936.95	8.45515e-05
2945.51	8.30773e-05
2954.07	0.000106961
2962.63	0.000112158
2971.18	0.00013964
2979.74	0.000175722
2988.3	0.00019946
2996.86	0.000194789
3005.41	0.000172353
3013.97	0.000163362
3022.53	0.000138377
3031.09	0.000122959
3039.64	0.000115
3048.2	0.000112948
3056.76	8.90664e-05
3065.32	7.80687e-05
3073.88	4.39199e-05
3082.43	2.15728e-05
3090.99	9.02834e-06
3099.55	3.8983e-06
3108.11	2.15682e-06
3116.66	1.88339e-06
3125.22	1.94002e-06
3133.78	2.11209e-06
3142.34	2.46447e-06
3150.89	2.79913e-06
3159.45	3.61902e-06
3168.01	3.2473e-06
3176.57	3.52432e-06
3185.12	2.76326e-06
3193.68	2.03303e-06
3202.24	1.08979e-06
3210.8	5.57004e-07
3219.35	4.02652e-07
3227.91	1.98635e-07
3236.47	2.03377e-07
3245.03	7.40112e-08
3253.59	2.17804e-07
3262.14	1.26332e-07
3270.7	6.67245e-08
3279.26	2.38815e-07
3287.82	1.67247e-07
3296.37	2.48898e-07
3304.93	2.8392e-07
3313.49	4.27045e-07
3322.05	5.28687e-07
3330.6	9.81699e-07
3339.16	1.13222e-06
3347.72	9.72438e-07
3356.28	1.1884e-06
3364.83	9.85759e-07
3373.39	8.48992e-07
3381.95	8.18057e-07
3390.51	9.58465e-07
3399.06	9.54312e-07
3407.62	7.81065e-07
3416.18	8.19161e-07
3424.74	4.47323e-07
3433.3	4.58685e-07
3441.85	3.80106e-07
3450.41	3.83086e-07
3458.97	2.32306e-07
3467.53	3.59561e-07
3476.08	2.10465e-07
3484.64	1.88829e-07
3493.2	1.9353e-07
3501.76	6.14045e-08
3510.31	5.04611e-08
3518.87	1.63824e-07
3527.43	1.04935e-07
3535.99	8.88839e-08
3544.54	9.62798e-08
3553.1	1.13602e-07
3561.66	9.29484e-08
3570.22	1.94346e-07
3578.78	1.88943e-07
3587.33	1.91944e-07
3595.89	2.57462e-07
3604.45	1.73568e-07
3613.01	2.57312e-07
3621.56	1.96718e-07
3630.12	2.85951e-07
3638.68	2.90318e-07
3647.24	7.11502e-07
3655.79	5.3528e-07
3664.35	5.64683e-07
3672.91	6.82273e-07
3681.47	7.62484e-07
3690.02	8.67091e-07
3698.58	8.68917e-07
3707.14	8.1657e-07
3715.7	9.68061e-07
3724.25	1.19391e-06
3732.81	1.59588e-06
3741.37	1.93139e-06
3749.93	2.2105e-06
3758.49	2.32676e-06
3767.04	2.15557e-06
3775.6	1.94742e-06
3784.16	1.68172e-06
3792.72	1.68168e-06
3801.27	2.93196e-06
3809.83	1.46906e-06
3818.39	1.94102e-06
3826.95	1.74525e-06
3835.5	1.7118e-06
3844.06	1.51192e-06
3852.62	1.42903e-06
3861.18	1.24211e-06
3869.73	1.55981e-06
3878.29	1.47362e-06
3886.85	1.61922e-06
3895.41	1.51775e-06
3903.96	1.80195e-06
3912.52	1.59377e-06
3921.08	1.61583e-06
3929.64	1.92464e-06
3938.2	1.80259e-06
3946.75	2.14782e-06
3955.31	2.12058e-06
3963.87	1.83931e-06
3972.43	1.60178e-06
