Infrared Spectrum: 1,2-Epoxypropane
Formula: C3 H6 O
CAS: 75-56-9
State: gas
Melting point: -104.4 C
Boiling point: 34.3 C
Class: IUPAC A
Instrument: IFS66V (Bruker)
Instrument parameters: KBr Beam splitter; MCT Detector; Multipass cell
Sampling: 1 L/min Flow
Resolution: 0.1250
Temperature: 23 C
Pressure: 101.3 kPa
Origin: NIST, Anayltical Chemistry Division, 301-975-3108
cm-1	(micromol/mol)-1m-1 (base 10)
574.988	-1.10422e-06
583.546	4.79495e-07
592.103	-3.83554e-07
600.661	-4.71058e-07
609.219	1.0043e-07
617.776	-2.05679e-07
626.334	-1.64486e-07
634.891	-3.55891e-07
643.449	-3.65722e-07
652.007	-4.07103e-07
660.564	-4.29673e-07
669.122	-4.57577e-07
677.68	-3.3468e-07
686.237	-8.69236e-08
694.795	-5.63932e-08
703.352	-8.33297e-08
711.91	4.44205e-07
720.468	1.94659e-06
729.025	4.58398e-06
737.583	1.15081e-05
746.141	2.05348e-05
754.698	2.70659e-05
763.256	2.86341e-05
771.813	3.54829e-05
780.371	1.68646e-05
788.929	1.15643e-05
797.486	1.63299e-05
806.044	3.49172e-05
814.602	7.68085e-05
823.159	0.000136925
831.717	0.0001226
840.274	0.000127086
848.832	0.000142071
857.39	7.44242e-05
865.947	3.13143e-05
874.505	1.67454e-05
883.063	1.22682e-05
891.62	9.92945e-06
900.178	1.12245e-05
908.735	1.1637e-05
917.293	1.15357e-05
925.851	1.59211e-05
934.408	2.46897e-05
942.966	3.88558e-05
951.524	4.41739e-05
960.081	4.4619e-05
968.639	4.03451e-05
977.196	2.65965e-05
985.754	1.67657e-05
994.312	1.51846e-05
1002.87	2.08799e-05
1011.43	2.81932e-05
1019.98	2.92304e-05
1028.54	3.79935e-05
1037.1	2.29357e-05
1045.66	1.47607e-05
1054.22	7.68654e-06
1062.77	3.64417e-06
1071.33	3.22637e-06
1079.89	5.72151e-06
1088.45	1.03753e-05
1097	1.67401e-05
1105.56	2.06324e-05
1114.12	3.29768e-05
1122.68	2.97311e-05
1131.23	2.96041e-05
1139.79	2.36478e-05
1148.35	1.75073e-05
1156.91	1.61302e-05
1165.46	1.06365e-05
1174.02	6.42594e-06
1182.58	3.19284e-06
1191.14	2.09915e-06
1199.69	1.46567e-06
1208.25	1.24498e-06
1216.81	1.55647e-06
1225.37	2.29283e-06
1233.93	4.87543e-06
1242.48	9.27946e-06
1251.04	1.62771e-05
1259.6	2.08613e-05
1268.16	1.51592e-05
1276.71	2.11685e-05
1285.27	1.29184e-05
1293.83	7.18367e-06
1302.39	3.68474e-06
1310.94	1.83642e-06
1319.5	1.30292e-06
1328.06	1.22291e-06
1336.62	2.28898e-06
1345.17	4.08891e-06
1353.73	6.85365e-06
1362.29	9.40074e-06
1370.85	1.74682e-05
1379.4	1.59395e-05
1387.96	3.37226e-05
1396.52	7.18774e-05
1405.08	5.79329e-05
1413.64	3.1973e-05
1422.19	9.35847e-05
1430.75	5.62289e-05
1439.31	3.26957e-05
1447.87	2.80375e-05
1456.42	3.0287e-05
1464.98	4.34951e-05
1473.54	3.97026e-05
1482.1	2.74064e-05
1490.65	2.40045e-05
1499.21	2.50522e-05
1507.77	1.86083e-05
1516.33	1.4743e-05
1524.88	1.3454e-05
1533.44	1.04145e-05
1542	4.9714e-06
1550.56	2.38695e-06
1559.11	1.74349e-06
1567.67	1.77568e-06
1576.23	4.87149e-06
1584.79	2.55603e-06
1593.35	2.16803e-06
1601.9	3.44455e-06
1610.46	2.14088e-06
1619.02	1.47444e-06
1627.58	1.65843e-06
1636.13	2.28726e-06
1644.69	2.14706e-06
1653.25	5.67543e-06
1661.81	2.9681e-06
1670.36	3.05117e-06
1678.92	2.64468e-06
1687.48	2.39336e-06
1696.04	4.00696e-06
1704.59	2.19682e-06
1713.15	2.10859e-06
1721.71	1.78008e-06
1730.27	1.10716e-06
1738.83	6.0853e-07
1747.38	3.91406e-07
1755.94	2.79889e-07
1764.5	4.56435e-07
1773.06	9.87528e-07
1781.61	8.0417e-07
1790.17	1.01647e-06
1798.73	8.40696e-07
1807.29	7.1366e-07
1815.84	3.17579e-07
1824.4	2.46338e-07
1832.96	3.55354e-07
1841.52	4.18418e-07
1850.07	4.01792e-07
1858.63	4.31746e-07
1867.19	6.22432e-07
1875.75	5.63616e-07
1884.3	6.877e-07
1892.86	8.00062e-07
1901.42	9.41383e-07
1909.98	1.27358e-06
1918.54	8.92181e-07
1927.09	6.69661e-07
1935.65	6.27697e-07
1944.21	6.44095e-07
1952.77	1.25923e-06
1961.32	1.47364e-06
1969.88	1.19541e-06
1978.44	1.98328e-06
1987	1.3674e-06
1995.55	1.04282e-06
2004.11	1.20855e-06
2012.67	1.29823e-06
2021.23	1.11118e-06
2029.78	1.12703e-06
2038.34	7.60572e-07
2046.9	4.02082e-07
2055.46	2.15066e-07
2064.01	2.91236e-07
2072.57	5.06011e-07
2081.13	5.17914e-07
2089.69	5.26864e-07
2098.25	7.9606e-07
2106.8	4.89516e-07
2115.36	4.76367e-07
2123.92	5.89577e-07
2132.48	7.22397e-07
2141.03	1.34724e-06
2149.59	2.05103e-06
2158.15	2.6357e-06
2166.71	3.01307e-06
2175.26	2.85701e-06
2183.82	1.93923e-06
2192.38	1.24481e-06
2200.94	1.31634e-06
2209.49	1.15893e-06
2218.05	1.69399e-06
2226.61	2.03321e-06
2235.17	2.63599e-06
2243.72	2.97232e-06
2252.28	3.37235e-06
2260.84	2.91937e-06
2269.4	3.62532e-06
2277.96	3.03336e-06
2286.51	3.10463e-06
2295.07	2.17057e-06
2303.63	1.68137e-06
2312.19	1.78728e-06
2320.74	1.29004e-06
2329.3	1.02888e-06
2337.86	1.07264e-06
2346.42	8.48775e-07
2354.97	7.77224e-07
2363.53	6.81737e-07
2372.09	7.06967e-07
2380.65	5.50828e-07
2389.2	5.22825e-07
2397.76	5.37651e-07
2406.32	6.95494e-07
2414.88	8.09008e-07
2423.44	8.57803e-07
2431.99	7.69016e-07
2440.55	5.67777e-07
2449.11	3.96798e-07
2457.67	3.18634e-07
2466.22	3.05327e-07
2474.78	3.22812e-07
2483.34	3.52455e-07
2491.9	5.27291e-07
2500.45	6.83855e-07
2509.01	7.69442e-07
2517.57	8.20236e-07
2526.13	1.10028e-06
2534.68	8.64827e-07
2543.24	6.30384e-07
2551.8	6.17679e-07
2560.36	5.33179e-07
2568.91	5.157e-07
2577.47	6.10694e-07
2586.03	8.96928e-07
2594.59	1.16155e-06
2603.15	1.45537e-06
2611.7	1.52533e-06
2620.26	1.4889e-06
2628.82	1.37398e-06
2637.38	1.25579e-06
2645.93	9.58776e-07
2654.49	8.87053e-07
2663.05	4.88559e-07
2671.61	4.56661e-07
2680.16	3.64859e-07
2688.72	3.02051e-07
2697.28	2.04962e-07
2705.84	4.17469e-07
2714.39	8.25742e-07
2722.95	9.95817e-07
2731.51	1.81585e-06
2740.07	1.58723e-06
2748.62	1.8032e-06
2757.18	1.95794e-06
2765.74	2.3902e-06
2774.3	3.37689e-06
2782.86	4.58058e-06
2791.41	5.45332e-06
2799.97	5.44347e-06
2808.53	8.27666e-06
2817.09	4.50193e-06
2825.64	4.49523e-06
2834.2	4.1595e-06
2842.76	5.07731e-06
2851.32	6.29985e-06
2859.87	8.68938e-06
2868.43	1.67159e-05
2876.99	1.8162e-05
2885.55	2.40939e-05
2894.1	3.0137e-05
2902.66	4.35006e-05
2911.22	4.50606e-05
2919.78	7.14772e-05
2928.34	9.60736e-05
2936.89	8.43484e-05
2945.45	8.30928e-05
2954.01	0.000106871
2962.57	0.000111942
2971.12	0.000139209
2979.68	0.000175118
2988.24	0.000199247
2996.8	0.000195438
3005.35	0.000172329
3013.91	0.000163243
3022.47	0.00013854
3031.03	0.000123189
3039.58	0.000115577
3048.14	0.000111393
3056.7	8.85676e-05
3065.26	7.81501e-05
3073.81	4.37703e-05
3082.37	2.17152e-05
3090.93	9.10759e-06
3099.49	3.95308e-06
3108.05	2.20746e-06
3116.6	1.8505e-06
3125.16	1.94356e-06
3133.72	2.14054e-06
3142.28	2.48034e-06
3150.83	2.76739e-06
3159.39	3.56532e-06
3167.95	3.2898e-06
3176.51	3.6053e-06
3185.06	2.80656e-06
3193.62	2.04548e-06
3202.18	1.15797e-06
3210.74	5.53645e-07
3219.29	4.09397e-07
3227.85	1.14122e-07
3236.41	1.84076e-07
3244.97	1.22442e-07
3253.52	2.48636e-07
3262.08	1.75717e-07
3270.64	6.14868e-08
3279.2	3.05105e-07
3287.76	2.14998e-07
3296.31	3.22062e-07
3304.87	2.36032e-07
3313.43	3.57138e-07
3321.99	5.22588e-07
3330.54	9.66894e-07
3339.1	1.14779e-06
3347.66	9.69109e-07
3356.22	1.19569e-06
3364.77	8.40149e-07
3373.33	8.15391e-07
3381.89	8.20484e-07
3390.45	9.31413e-07
3399	9.95766e-07
3407.56	7.65659e-07
3416.12	8.1901e-07
3424.68	3.02899e-07
3433.23	4.40831e-07
3441.79	2.47623e-07
3450.35	2.73927e-07
3458.91	2.77812e-07
3467.47	3.77064e-07
3476.02	2.3615e-07
3484.58	1.44036e-07
3493.14	1.75759e-07
3501.7	1.2266e-07
3510.25	6.49605e-08
3518.81	2.20236e-07
3527.37	1.32347e-07
3535.93	1.18751e-08
3544.48	1.40243e-07
3553.04	4.49506e-08
3561.6	2.18048e-09
3570.16	1.65461e-07
3578.71	2.04677e-07
3587.27	2.28164e-07
3595.83	2.45583e-07
3604.39	2.06803e-07
3612.95	2.9693e-07
3621.5	2.15065e-07
3630.06	3.22704e-07
3638.62	3.63554e-07
3647.18	8.08502e-07
3655.73	5.30251e-07
3664.29	5.79089e-07
3672.85	6.78924e-07
3681.41	7.66675e-07
3689.96	9.02083e-07
3698.52	8.70279e-07
3707.08	8.21398e-07
3715.64	9.49708e-07
3724.19	1.19408e-06
3732.75	1.58044e-06
3741.31	1.97331e-06
3749.87	2.28659e-06
3758.42	2.35562e-06
3766.98	2.1578e-06
3775.54	1.92701e-06
3784.1	1.65468e-06
3792.66	1.70675e-06
3801.21	2.38614e-06
3809.77	1.53211e-06
3818.33	1.94905e-06
3826.89	1.761e-06
3835.44	1.7541e-06
3844	1.52699e-06
3852.56	1.54444e-06
3861.12	1.20669e-06
3869.67	1.5828e-06
3878.23	1.44946e-06
3886.79	1.6014e-06
3895.35	1.44514e-06
3903.9	1.6543e-06
3912.46	1.5494e-06
3921.02	1.60749e-06
3929.58	1.98252e-06
3938.13	1.76993e-06
3946.69	2.13852e-06
3955.25	2.12114e-06
3963.81	1.80304e-06
3972.37	1.63536e-06
