Infrared Spectrum: 1,2-Epoxypropane
Formula: C3 H6 O
CAS: 75-56-9
State: gas
Melting point: -104.4 C
Boiling point: 34.3 C
Class: IUPAC A
Instrument: IFS66V (Bruker)
Instrument parameters: KBr Beam splitter; MCT Detector; Multipass cell
Sampling: 1 L/min Flow
Resolution: 0.4820
Temperature: 23 C
Pressure: 101.3 kPa
Origin: NIST, Anayltical Chemistry Division, 301-975-3108
cm-1	(micromol/mol)-1m-1 (base 10)
574.928	-2.54232e-07
583.606	-1.7697e-07
592.284	-2.80207e-07
600.962	-3.77582e-07
609.641	-3.23053e-07
618.319	-2.10697e-07
626.997	-3.49375e-07
635.675	-5.07763e-07
644.353	-2.50675e-07
653.031	-3.9787e-07
661.71	-3.14252e-07
670.388	-2.07383e-07
679.066	-2.66231e-07
687.744	-1.96721e-07
696.422	-2.56373e-08
705.1	1.26218e-08
713.778	7.18516e-07
722.457	2.20648e-06
731.135	6.03747e-06
739.813	1.43559e-05
748.491	2.22434e-05
757.169	3.51503e-05
765.847	3.39615e-05
774.526	3.00889e-05
783.204	1.34081e-05
791.882	1.23067e-05
800.56	2.08548e-05
809.238	4.71612e-05
817.916	0.000101333
826.594	0.000149612
835.273	0.000157322
843.951	0.000149328
852.629	0.000119084
861.307	5.0249e-05
869.985	2.31412e-05
878.663	1.40609e-05
887.342	1.14513e-05
896.02	1.15593e-05
904.698	1.18378e-05
913.376	1.1481e-05
922.054	1.32124e-05
930.732	2.04333e-05
939.41	3.31718e-05
948.089	4.5225e-05
956.767	2.96443e-05
965.445	4.50572e-05
974.123	3.16665e-05
982.801	1.94062e-05
991.479	1.46483e-05
1000.16	1.80388e-05
1008.84	2.73603e-05
1017.51	3.26382e-05
1026.19	3.18523e-05
1034.87	2.61214e-05
1043.55	1.6926e-05
1052.23	9.15767e-06
1060.9	4.17316e-06
1069.58	2.9993e-06
1078.26	5.02847e-06
1086.94	9.52096e-06
1095.62	1.54504e-05
1104.3	2.06143e-05
1112.97	3.40503e-05
1121.65	3.0126e-05
1130.33	2.90524e-05
1139.01	2.30597e-05
1147.69	1.59859e-05
1156.36	1.59692e-05
1165.04	1.10367e-05
1173.72	6.54304e-06
1182.4	3.20871e-06
1191.08	2.01959e-06
1199.76	1.47449e-06
1208.43	1.2065e-06
1217.11	1.59141e-06
1225.79	2.39487e-06
1234.47	5.25384e-06
1243.15	9.98318e-06
1251.82	1.68471e-05
1260.5	2.09302e-05
1269.18	1.72399e-05
1277.86	1.80911e-05
1286.54	1.20524e-05
1295.21	6.59854e-06
1303.89	3.12928e-06
1312.57	1.71828e-06
1321.25	1.24732e-06
1329.93	1.42215e-06
1338.61	2.54345e-06
1347.28	4.56873e-06
1355.96	7.75969e-06
1364.64	1.07554e-05
1373.32	1.47641e-05
1382	1.84937e-05
1390.67	4.43018e-05
1399.35	7.98992e-05
1408.03	6.60721e-05
1416.71	5.74274e-05
1425.39	8.73661e-05
1434.07	4.20553e-05
1442.74	3.31925e-05
1451.42	2.59818e-05
1460.1	3.12874e-05
1468.78	3.13164e-05
1477.46	3.07119e-05
1486.13	2.67298e-05
1494.81	2.23472e-05
1503.49	2.2992e-05
1512.17	1.60581e-05
1520.85	1.18466e-05
1529.52	1.31969e-05
1538.2	5.5781e-06
1546.88	2.90725e-06
1555.56	1.8008e-06
1564.24	1.635e-06
1572.92	2.19093e-06
1581.59	2.53357e-06
1590.27	3.47736e-06
1598.95	3.02846e-06
1607.63	2.69931e-06
1616.31	1.86851e-06
1624.98	1.45976e-06
1633.66	1.82191e-06
1642.34	2.22284e-06
1651.02	2.89201e-06
1659.7	3.03773e-06
1668.38	2.89436e-06
1677.05	2.66585e-06
1685.73	2.50933e-06
1694.41	2.07874e-06
1703.09	1.81082e-06
1711.77	1.90499e-06
1720.44	1.83418e-06
1729.12	1.12317e-06
1737.8	6.74522e-07
1746.48	4.01487e-07
1755.16	3.05489e-07
1763.84	4.55286e-07
1772.51	1.44736e-06
1781.19	7.38737e-07
1789.87	9.26498e-07
1798.55	8.08964e-07
1807.23	7.03335e-07
1815.9	3.10761e-07
1824.58	2.41813e-07
1833.26	3.36182e-07
1841.94	4.30266e-07
1850.62	4.18695e-07
1859.29	3.96938e-07
1867.97	7.24842e-07
1876.65	5.60081e-07
1885.33	7.13884e-07
1894.01	8.17886e-07
1902.69	1e-06
1911.36	1.28344e-06
1920.04	8.80548e-07
1928.72	6.63345e-07
1937.4	5.82648e-07
1946.08	7.66026e-07
1954.75	1.40463e-06
1963.43	1.46657e-06
1972.11	1.38636e-06
1980.79	1.87981e-06
1989.47	1.25553e-06
1998.15	1.10475e-06
2006.82	1.27526e-06
2015.5	1.14734e-06
2024.18	1.14325e-06
2032.86	1.07261e-06
2041.54	6.11931e-07
2050.21	3.01608e-07
2058.89	2.98411e-07
2067.57	3.87087e-07
2076.25	5.42965e-07
2084.93	8.16359e-07
2093.6	6.15288e-07
2102.28	5.47503e-07
2110.96	4.91582e-07
2119.64	4.60124e-07
2128.32	5.99339e-07
2137	1.026e-06
2145.67	1.79781e-06
2154.35	2.15946e-06
2163.03	2.65617e-06
2171.71	2.31928e-06
2180.39	2.58144e-06
2189.06	1.81637e-06
2197.74	1.34388e-06
2206.42	1.64691e-06
2215.1	1.50075e-06
2223.78	1.90364e-06
2232.46	2.22134e-06
2241.13	2.60436e-06
2249.81	3.83525e-06
2258.49	3.56586e-06
2267.17	3.48112e-06
2275.85	3.38882e-06
2284.52	2.98571e-06
2293.2	2.21662e-06
2301.88	1.8283e-06
2310.56	1.703e-06
2319.24	1.38781e-06
2327.92	1.09001e-06
2336.59	1.13973e-06
2345.27	8.8904e-07
2353.95	7.73845e-07
2362.63	7.12547e-07
2371.31	6.37591e-07
2379.98	5.90818e-07
2388.66	4.69905e-07
2397.34	5.94136e-07
2406.02	6.97012e-07
2414.7	7.83159e-07
2423.37	8.73523e-07
2432.05	7.69262e-07
2440.73	5.20166e-07
2449.41	4.23209e-07
2458.09	3.33577e-07
2466.77	3.20404e-07
2475.44	3.69584e-07
2484.12	4.1748e-07
2492.8	5.52451e-07
2501.48	6.46181e-07
2510.16	8.38771e-07
2518.83	8.14658e-07
2527.51	1.12064e-06
2536.19	8.20117e-07
2544.87	5.69997e-07
2553.55	6.2808e-07
2562.23	5.13831e-07
2570.9	5.69381e-07
2579.58	6.66252e-07
2588.26	9.8771e-07
2596.94	1.26843e-06
2605.62	1.46519e-06
2614.29	1.67999e-06
2622.97	1.47905e-06
2631.65	1.40202e-06
2640.33	1.11094e-06
2649.01	9.28009e-07
2657.68	7.13582e-07
2666.36	4.5634e-07
2675.04	3.00001e-07
2683.72	2.58628e-07
2692.4	2.55111e-07
2701.08	2.62284e-07
2709.75	5.01795e-07
2718.43	9.32664e-07
2727.11	9.52133e-07
2735.79	1.11433e-06
2744.47	1.6779e-06
2753.14	1.72873e-06
2761.82	2.24015e-06
2770.5	5.33051e-06
2779.18	4.06873e-06
2787.86	5.15107e-06
2796.54	5.70248e-06
2805.21	5.12583e-06
2813.89	4.55022e-06
2822.57	4.36199e-06
2831.25	4.76623e-06
2839.93	4.89934e-06
2848.6	5.84781e-06
2857.28	7.75147e-06
2865.96	1.53376e-05
2874.64	1.72132e-05
2883.32	1.89054e-05
2892	2.67898e-05
2900.67	4.07902e-05
2909.35	4.36489e-05
2918.03	6.63926e-05
2926.71	8.32435e-05
2935.39	8.43554e-05
2944.06	8.19258e-05
2952.74	0.000106464
2961.42	0.000109235
2970.1	0.000139084
2978.78	0.000168583
2987.45	0.000198138
2996.13	0.000203877
3004.81	0.000172789
3013.49	0.000163081
3022.17	0.000139362
3030.85	0.0001233
3039.52	0.000115957
3048.2	0.000113353
3056.88	8.90134e-05
3065.56	7.72788e-05
3074.24	4.28056e-05
3082.91	2.06629e-05
3091.59	8.44917e-06
3100.27	3.71468e-06
3108.95	2.20446e-06
3117.63	1.89335e-06
3126.31	1.979e-06
3134.98	2.22857e-06
3143.66	2.6266e-06
3152.34	2.90762e-06
3161.02	3.87026e-06
3169.7	3.24928e-06
3178.37	3.13237e-06
3187.05	2.65624e-06
3195.73	1.82471e-06
3204.41	9.70035e-07
3213.09	4.82326e-07
3221.77	2.91014e-07
3230.44	2.13092e-07
3239.12	1.97091e-07
3247.8	2.30102e-07
3256.48	1.87085e-07
3265.16	1.52112e-07
3273.83	1.75241e-07
3282.51	1.53402e-07
3291.19	2.1999e-07
3299.87	2.15273e-07
3308.55	2.7249e-07
3317.22	5.12567e-07
3325.9	8.09858e-07
3334.58	9.83498e-07
3343.26	9.2653e-07
3351.94	1.11681e-06
3360.62	1.02049e-06
3369.29	7.89633e-07
3377.97	8.5747e-07
3386.65	1.04355e-06
3395.33	1.07703e-06
3404.01	9.03612e-07
3412.68	8.05746e-07
3421.36	6.15899e-07
3430.04	5.8395e-07
3438.72	3.74698e-07
3447.4	4.72017e-07
3456.08	2.55786e-07
3464.75	2.44897e-07
3473.43	2.87393e-07
3482.11	2.48812e-07
3490.79	1.36431e-07
3499.47	1.27402e-07
3508.14	1.18889e-07
3516.82	1.98868e-07
3525.5	2.24467e-07
3534.18	1.74701e-07
3542.86	1.08901e-07
3551.53	2.18079e-07
3560.21	1.63259e-07
3568.89	1.48635e-07
3577.57	1.62894e-07
3586.25	2.1917e-07
3594.93	1.97711e-07
3603.6	1.71913e-07
3612.28	3.71548e-07
3620.96	2.07837e-07
3629.64	1.19615e-06
3638.32	3.45052e-07
3646.99	6.02104e-07
3655.67	4.75493e-07
3664.35	5.49511e-07
3673.03	6.68791e-07
3681.71	7.62384e-07
3690.39	8.93791e-07
3699.06	7.92696e-07
3707.74	8.52035e-07
3716.42	1.02082e-06
3725.1	1.27854e-06
3733.78	1.49835e-06
3742.45	1.80323e-06
3751.13	2.17757e-06
3759.81	2.6375e-06
3768.49	2.07164e-06
3777.17	1.93684e-06
3785.85	1.7863e-06
3794.52	1.62091e-06
3803.2	1.76367e-06
3811.88	1.46911e-06
3820.56	2.21288e-06
3829.24	1.57309e-06
3837.91	3.14574e-06
3846.59	1.38433e-06
3855.27	1.35709e-06
3863.95	1.34379e-06
3872.63	1.48618e-06
3881.3	1.66337e-06
3889.98	1.61441e-06
3898.66	1.82185e-06
3907.34	1.50673e-06
3916.02	1.61868e-06
3924.7	1.77606e-06
3933.37	1.92797e-06
3942.05	2.24194e-06
3950.73	2.10847e-06
3959.41	1.9148e-06
3968.09	1.69179e-06
