Infrared Spectrum: 1,2-Epoxypropane
Formula: C3 H6 O
CAS: 75-56-9
State: gas
Melting point: -104.4 C
Boiling point: 34.3 C
Class: IUPAC A
Instrument: IFS66V (Bruker)
Instrument parameters: KBr Beam splitter; MCT Detector; Multipass cell
Sampling: 1 L/min Flow
Resolution: 0.9640
Temperature: 23 C
Pressure: 101.3 kPa
Origin: NIST, Anayltical Chemistry Division, 301-975-3108
cm-1	(micromol/mol)-1m-1 (base 10)
575.169	-3.73078e-07
583.847	-4.40478e-07
592.525	-2.88345e-07
601.203	-4.08737e-07
609.882	-3.27602e-07
618.56	-2.93496e-07
627.238	-2.7148e-07
635.916	-3.80151e-07
644.594	-2.41715e-07
653.272	-3.74565e-07
661.951	-3.00098e-07
670.629	-2.39007e-07
679.307	-1.85718e-07
687.985	-1.757e-07
696.663	3.48695e-09
705.341	1.53904e-07
714.019	8.19767e-07
722.698	2.37422e-06
731.376	6.14171e-06
740.054	1.4649e-05
748.732	2.23455e-05
757.41	3.27969e-05
766.088	3.4204e-05
774.767	2.93702e-05
783.445	1.35268e-05
792.123	1.27202e-05
800.801	2.16956e-05
809.479	4.85514e-05
818.157	0.000103013
826.835	0.00014847
835.514	0.00015467
844.192	0.00014844
852.87	0.000115888
861.548	4.93748e-05
870.226	2.31256e-05
878.904	1.42071e-05
887.583	1.19282e-05
896.261	1.00291e-05
904.939	1.17481e-05
913.617	1.15934e-05
922.295	1.34203e-05
930.973	2.08888e-05
939.651	3.32271e-05
948.33	4.37893e-05
957.008	3.23559e-05
965.686	4.45924e-05
974.364	3.11217e-05
983.042	1.92728e-05
991.72	1.48511e-05
1000.4	1.83435e-05
1009.08	2.66242e-05
1017.75	3.24254e-05
1026.43	3.16199e-05
1035.11	2.69841e-05
1043.79	1.68948e-05
1052.47	9.04461e-06
1061.15	4.27486e-06
1069.82	3.17791e-06
1078.5	5.17764e-06
1087.18	9.72232e-06
1095.86	1.57217e-05
1104.54	2.05573e-05
1113.21	3.33929e-05
1121.89	2.99114e-05
1130.57	2.92573e-05
1139.25	2.34579e-05
1147.93	1.68349e-05
1156.61	1.611e-05
1165.28	1.08262e-05
1173.96	6.47907e-06
1182.64	3.24526e-06
1191.32	2.04142e-06
1200	1.50882e-06
1208.67	1.28619e-06
1217.35	1.64611e-06
1226.03	2.51172e-06
1234.71	5.44552e-06
1243.39	1.02015e-05
1252.07	1.66937e-05
1260.74	2.03974e-05
1269.42	1.78553e-05
1278.1	1.82766e-05
1286.78	1.18593e-05
1295.46	6.50395e-06
1304.13	3.14361e-06
1312.81	1.72484e-06
1321.49	1.32344e-06
1330.17	1.53136e-06
1338.85	2.67823e-06
1347.52	4.75749e-06
1356.2	7.85286e-06
1364.88	1.06861e-05
1373.56	1.40017e-05
1382.24	1.8998e-05
1390.92	4.55144e-05
1399.59	7.84562e-05
1408.27	6.99131e-05
1416.95	6.03341e-05
1425.63	8.54461e-05
1434.31	4.18839e-05
1442.98	3.32328e-05
1451.66	2.68726e-05
1460.34	3.29394e-05
1469.02	3.13185e-05
1477.7	3.06055e-05
1486.38	2.83678e-05
1495.05	2.26865e-05
1503.73	2.26992e-05
1512.41	1.57126e-05
1521.09	1.24841e-05
1529.77	1.29531e-05
1538.44	5.74171e-06
1547.12	2.93787e-06
1555.8	1.88027e-06
1564.48	1.74794e-06
1573.16	2.21655e-06
1581.83	2.55162e-06
1590.51	3.46576e-06
1599.19	3.06462e-06
1607.87	2.66735e-06
1616.55	2.3756e-06
1625.23	1.50864e-06
1633.9	1.87983e-06
1642.58	2.22603e-06
1651.26	2.88776e-06
1659.94	3.02054e-06
1668.62	2.86627e-06
1677.29	2.67203e-06
1685.97	2.53652e-06
1694.65	2.14696e-06
1703.33	1.89251e-06
1712.01	1.98291e-06
1720.69	1.8173e-06
1729.36	1.15479e-06
1738.04	6.67269e-07
1746.72	4.50995e-07
1755.4	3.27738e-07
1764.08	4.81396e-07
1772.75	1.33095e-06
1781.43	7.93625e-07
1790.11	9.81661e-07
1798.79	8.43002e-07
1807.47	7.22848e-07
1816.15	3.17027e-07
1824.82	3.52348e-07
1833.5	3.31389e-07
1842.18	4.3136e-07
1850.86	4.36948e-07
1859.54	4.16601e-07
1868.21	6.73269e-07
1876.89	5.66826e-07
1885.57	7.05827e-07
1894.25	8.36142e-07
1902.93	1.01934e-06
1911.6	1.25385e-06
1920.28	8.78165e-07
1928.96	6.74284e-07
1937.64	5.91535e-07
1946.32	7.97877e-07
1955	1.41696e-06
1963.67	1.46356e-06
1972.35	1.42813e-06
1981.03	1.84515e-06
1989.71	1.266e-06
1998.39	1.13857e-06
2007.06	1.28757e-06
2015.74	1.18378e-06
2024.42	1.32049e-06
2033.1	1.03955e-06
2041.78	6.19247e-07
2050.46	3.11265e-07
2059.13	3.17402e-07
2067.81	4.05182e-07
2076.49	5.38604e-07
2085.17	7.0093e-07
2093.85	6.10092e-07
2102.52	5.67273e-07
2111.2	4.71716e-07
2119.88	4.74503e-07
2128.56	6.35039e-07
2137.24	1.05655e-06
2145.91	1.79975e-06
2154.59	2.18906e-06
2163.27	2.64346e-06
2171.95	2.39914e-06
2180.63	2.51624e-06
2189.31	1.85424e-06
2197.98	1.35138e-06
2206.66	1.67234e-06
2215.34	1.5439e-06
2224.02	1.90003e-06
2232.7	2.27088e-06
2241.37	2.64692e-06
2250.05	3.67834e-06
2258.73	4.04719e-06
2267.41	3.49247e-06
2276.09	3.32482e-06
2284.77	2.9988e-06
2293.44	2.22066e-06
2302.12	1.82051e-06
2310.8	1.76644e-06
2319.48	1.38991e-06
2328.16	1.12717e-06
2336.83	1.1352e-06
2345.51	9.13287e-07
2354.19	8.22739e-07
2362.87	7.05299e-07
2371.55	6.73461e-07
2380.23	5.86462e-07
2388.9	4.97429e-07
2397.58	5.82707e-07
2406.26	6.99471e-07
2414.94	8.25329e-07
2423.62	8.40806e-07
2432.29	7.64948e-07
2440.97	5.45799e-07
2449.65	4.32292e-07
2458.33	3.32333e-07
2467.01	3.39581e-07
2475.68	3.86752e-07
2484.36	4.00301e-07
2493.04	5.3576e-07
2501.72	6.6962e-07
2510.4	8.2055e-07
2519.08	8.43967e-07
2527.75	1.13767e-06
2536.43	8.1381e-07
2545.11	5.9042e-07
2553.79	6.28333e-07
2562.47	5.01715e-07
2571.14	5.7155e-07
2579.82	7.03764e-07
2588.5	1.00467e-06
2597.18	1.28525e-06
2605.86	1.44371e-06
2614.54	1.6449e-06
2623.21	1.48084e-06
2631.89	1.39287e-06
2640.57	1.12892e-06
2649.25	9.29189e-07
2657.93	7.21984e-07
2666.6	4.86579e-07
2675.28	3.35622e-07
2683.96	2.70742e-07
2692.64	2.47779e-07
2701.32	2.94802e-07
2709.99	5.36408e-07
2718.67	9.64187e-07
2727.35	9.84453e-07
2736.03	1.19846e-06
2744.71	1.75559e-06
2753.39	1.76104e-06
2762.06	2.31099e-06
2770.74	5.51294e-06
2779.42	4.11407e-06
2788.1	5.24844e-06
2796.78	5.71934e-06
2805.45	5.2703e-06
2814.13	4.65156e-06
2822.81	4.41031e-06
2831.49	4.60307e-06
2840.17	4.97951e-06
2848.85	6.00559e-06
2857.52	7.98074e-06
2866.2	1.61028e-05
2874.88	1.73294e-05
2883.56	1.95114e-05
2892.24	2.74894e-05
2900.91	4.1114e-05
2909.59	4.38752e-05
2918.27	6.66961e-05
2926.95	8.45054e-05
2935.63	8.45658e-05
2944.31	8.30712e-05
2952.98	0.000106388
2961.66	0.000109734
2970.34	0.000139028
2979.02	0.00016934
2987.7	0.000198063
2996.37	0.000200967
3005.05	0.000174192
3013.73	0.000163054
3022.41	0.000138692
3031.09	0.00012299
3039.76	0.000114834
3048.44	0.000131416
3057.12	8.94612e-05
3065.8	7.62034e-05
3074.48	4.22406e-05
3083.16	2.04613e-05
3091.83	8.50176e-06
3100.51	3.89413e-06
3109.19	2.32446e-06
3117.87	2.03464e-06
3126.55	2.05916e-06
3135.22	2.309e-06
3143.9	2.73277e-06
3152.58	2.96383e-06
3161.26	3.89101e-06
3169.94	3.27649e-06
3178.62	3.17575e-06
3187.29	2.65625e-06
3195.97	1.79192e-06
3204.65	9.69341e-07
3213.33	5.16752e-07
3222.01	3.02656e-07
3230.68	2.37038e-07
3239.36	2.00764e-07
3248.04	1.96583e-07
3256.72	1.95267e-07
3265.4	2.05755e-07
3274.07	1.77605e-07
3282.75	1.82085e-07
3291.43	2.54017e-07
3300.11	2.48759e-07
3308.79	2.95611e-07
3317.47	5.04237e-07
3326.14	8.18407e-07
3334.82	9.70214e-07
3343.5	9.5752e-07
3352.18	1.20467e-06
3360.86	1.05874e-06
3369.53	8.34358e-07
3378.21	8.55326e-07
3386.89	9.99571e-07
3395.57	1.07371e-06
3404.25	9.17347e-07
3412.93	7.89238e-07
3421.6	6.07392e-07
3430.28	5.64871e-07
3438.96	3.83391e-07
3447.64	4.44877e-07
3456.32	2.61049e-07
3464.99	2.66372e-07
3473.67	2.57583e-07
3482.35	2.43146e-07
3491.03	1.52481e-07
3499.71	1.11936e-07
3508.39	1.52715e-07
3517.06	1.76432e-07
3525.74	1.94117e-07
3534.42	1.81049e-07
3543.1	1.20907e-07
3551.78	2.04121e-07
3560.45	1.63592e-07
3569.13	1.29777e-07
3577.81	1.45666e-07
3586.49	3.32058e-07
3595.17	2.60537e-07
3603.84	1.52764e-07
3612.52	4.26982e-07
3621.2	2.35037e-07
3629.88	6.85113e-07
3638.56	3.14952e-07
3647.24	6.23237e-07
3655.91	7.11796e-07
3664.59	5.34736e-07
3673.27	7.18507e-07
3681.95	7.48171e-07
3690.63	9.19082e-07
3699.3	8.21845e-07
3707.98	8.84858e-07
3716.66	9.97075e-07
3725.34	1.22093e-06
3734.02	1.57983e-06
3742.7	1.81755e-06
3751.37	2.27347e-06
3760.05	2.42292e-06
3768.73	2.08176e-06
3777.41	1.92129e-06
3786.09	1.74657e-06
3794.76	1.6424e-06
3803.44	1.7657e-06
3812.12	1.51794e-06
3820.8	2.09888e-06
3829.48	1.58239e-06
3838.16	2.21788e-06
3846.83	1.36293e-06
3855.51	1.42613e-06
3864.19	1.41382e-06
3872.87	1.46217e-06
3881.55	1.60454e-06
3890.22	1.66796e-06
3898.9	1.87581e-06
3907.58	1.53629e-06
3916.26	1.61747e-06
3924.94	1.83688e-06
3933.61	1.9098e-06
3942.29	2.11037e-06
3950.97	2.12781e-06
3959.65	1.90945e-06
3968.33	1.66983e-06
