Infrared Spectrum: 1,2-Epoxypropane
Formula: C3 H6 O
CAS: 75-56-9
State: gas
Melting point: -104.4 C
Boiling point: 34.3 C
Class: IUPAC A
Instrument: IFS66V (Bruker)
Instrument parameters: KBr Beam splitter; MCT Detector; Multipass cell
Sampling: 1 L/min Flow
Resolution: 0.2410
Temperature: 23 C
Pressure: 101.3 kPa
Origin: NIST, Anayltical Chemistry Division, 301-975-3108
cm-1	(micromol/mol)-1m-1 (base 10)
575.048	-8.62946e-07
583.606	6.18055e-08
592.163	-1.80073e-07
600.721	-3.6767e-07
609.279	-1.91092e-07
617.836	-2.17999e-07
626.394	-3.27783e-07
634.951	-2.40627e-07
643.509	-3.59731e-07
652.067	-3.69564e-07
660.624	-5.34258e-07
669.182	-3.78703e-07
677.74	-4.43089e-07
686.297	-1.62714e-07
694.855	-2.37615e-08
703.412	-3.00447e-08
711.97	4.51624e-07
720.528	1.86877e-06
729.085	4.747e-06
737.643	1.17452e-05
746.201	2.08263e-05
754.758	2.74092e-05
763.316	2.89756e-05
771.873	3.561e-05
780.431	1.6734e-05
788.989	1.14531e-05
797.546	1.64042e-05
806.104	3.51358e-05
814.662	7.7493e-05
823.219	0.000138176
831.777	0.000123101
840.334	0.00012739
848.892	0.000142727
857.45	7.54429e-05
866.007	3.14568e-05
874.565	1.67478e-05
883.123	1.2104e-05
891.68	9.89274e-06
900.238	1.09996e-05
908.795	1.1567e-05
917.353	1.15351e-05
925.911	1.61127e-05
934.468	2.48997e-05
943.026	3.83865e-05
951.584	4.30829e-05
960.141	4.49512e-05
968.699	4.06066e-05
977.256	2.64789e-05
985.814	1.67202e-05
994.372	1.51649e-05
1002.93	2.09779e-05
1011.49	2.73246e-05
1020.04	2.87823e-05
1028.6	3.59072e-05
1037.16	2.30558e-05
1045.72	1.48191e-05
1054.28	7.5892e-06
1062.83	3.58327e-06
1071.39	3.17294e-06
1079.95	5.65682e-06
1088.51	1.04651e-05
1097.06	1.6856e-05
1105.62	2.08995e-05
1114.18	3.3201e-05
1122.74	2.96997e-05
1131.29	2.96297e-05
1139.85	2.33644e-05
1148.41	1.73491e-05
1156.97	1.61625e-05
1165.52	1.05354e-05
1174.08	6.40369e-06
1182.64	3.19929e-06
1191.2	2.07117e-06
1199.75	1.49357e-06
1208.31	1.19683e-06
1216.87	1.53484e-06
1225.43	2.28698e-06
1233.99	4.93865e-06
1242.54	9.36935e-06
1251.1	1.62221e-05
1259.66	2.11556e-05
1268.22	1.51989e-05
1276.77	2.08671e-05
1285.33	1.28179e-05
1293.89	7.17383e-06
1302.45	3.62922e-06
1311	1.83116e-06
1319.56	1.23112e-06
1328.12	1.25623e-06
1336.68	2.3215e-06
1345.23	4.1028e-06
1353.79	6.82991e-06
1362.35	9.41133e-06
1370.91	1.79579e-05
1379.46	1.59065e-05
1388.02	3.38624e-05
1396.58	7.3162e-05
1405.14	5.76787e-05
1413.7	3.17884e-05
1422.25	9.37631e-05
1430.81	5.53357e-05
1439.37	3.33757e-05
1447.93	2.79935e-05
1456.48	3.08553e-05
1465.04	4.2288e-05
1473.6	3.9789e-05
1482.16	2.74734e-05
1490.71	2.41455e-05
1499.27	2.50454e-05
1507.83	1.85475e-05
1516.39	1.46261e-05
1524.94	1.34928e-05
1533.5	1.04133e-05
1542.06	5.17089e-06
1550.62	2.33103e-06
1559.18	1.70555e-06
1567.73	1.7596e-06
1576.29	4.28005e-06
1584.85	2.53067e-06
1593.41	2.15606e-06
1601.96	3.4225e-06
1610.52	2.13414e-06
1619.08	1.44619e-06
1627.64	1.71686e-06
1636.19	2.20236e-06
1644.75	2.12715e-06
1653.31	5.41246e-06
1661.87	2.95551e-06
1670.42	3.09522e-06
1678.98	2.604e-06
1687.54	2.3851e-06
1696.1	3.50243e-06
1704.65	2.07275e-06
1713.21	2.07991e-06
1721.77	1.76283e-06
1730.33	1.12723e-06
1738.89	5.91175e-07
1747.44	3.77935e-07
1756	2.90286e-07
1764.56	4.27313e-07
1773.12	9.00831e-07
1781.67	8.07796e-07
1790.23	1.01041e-06
1798.79	8.45892e-07
1807.35	7.14884e-07
1815.9	3.06157e-07
1824.46	2.17635e-07
1833.02	3.46578e-07
1841.58	3.93785e-07
1850.13	4.24218e-07
1858.69	4.10537e-07
1867.25	6.15484e-07
1875.81	5.42582e-07
1884.36	7.15688e-07
1892.92	7.99449e-07
1901.48	9.50853e-07
1910.04	1.24027e-06
1918.6	8.82126e-07
1927.15	6.73886e-07
1935.71	5.94638e-07
1944.27	6.44625e-07
1952.83	1.25605e-06
1961.38	1.49501e-06
1969.94	1.18934e-06
1978.5	1.99787e-06
1987.06	1.37104e-06
1995.61	1.07093e-06
2004.17	1.21225e-06
2012.73	1.26067e-06
2021.29	1.10527e-06
2029.84	1.14115e-06
2038.4	7.86056e-07
2046.96	4.19834e-07
2055.52	2.25887e-07
2064.08	2.99573e-07
2072.63	4.91833e-07
2081.19	5.27578e-07
2089.75	5.31593e-07
2098.31	7.76849e-07
2106.86	4.95467e-07
2115.42	4.79127e-07
2123.98	5.88524e-07
2132.54	7.13973e-07
2141.09	1.35784e-06
2149.65	2.03093e-06
2158.21	2.73088e-06
2166.77	2.93124e-06
2175.32	2.89081e-06
2183.88	1.95031e-06
2192.44	1.21679e-06
2201	1.32975e-06
2209.55	1.14603e-06
2218.11	1.71792e-06
2226.67	2.02474e-06
2235.23	2.6571e-06
2243.79	2.97864e-06
2252.34	3.37057e-06
2260.9	2.9368e-06
2269.46	3.63152e-06
2278.02	2.98918e-06
2286.57	3.13823e-06
2295.13	2.16824e-06
2303.69	1.71122e-06
2312.25	1.79929e-06
2320.8	1.29955e-06
2329.36	9.77209e-07
2337.92	1.05723e-06
2346.48	8.75507e-07
2355.03	7.99171e-07
2363.59	6.38439e-07
2372.15	6.85579e-07
2380.71	5.59644e-07
2389.26	5.13843e-07
2397.82	5.56598e-07
2406.38	6.87264e-07
2414.94	8.13413e-07
2423.5	8.70374e-07
2432.05	7.52947e-07
2440.61	5.62329e-07
2449.17	4.17632e-07
2457.73	3.30363e-07
2466.28	3.28431e-07
2474.84	3.34669e-07
2483.4	3.63752e-07
2491.96	4.98914e-07
2500.51	6.76614e-07
2509.07	7.99316e-07
2517.63	7.93378e-07
2526.19	1.08607e-06
2534.74	8.42433e-07
2543.3	6.47637e-07
2551.86	6.26072e-07
2560.42	5.27178e-07
2568.98	5.14903e-07
2577.53	6.32883e-07
2586.09	8.79892e-07
2594.65	1.17697e-06
2603.21	1.47795e-06
2611.76	1.54991e-06
2620.32	1.47709e-06
2628.88	1.42134e-06
2637.44	1.25812e-06
2645.99	9.60794e-07
2654.55	9.0315e-07
2663.11	5.03443e-07
2671.67	4.55737e-07
2680.22	3.46586e-07
2688.78	2.69014e-07
2697.34	2.40743e-07
2705.9	4.21409e-07
2714.45	7.9953e-07
2723.01	9.93204e-07
2731.57	1.75967e-06
2740.13	1.58995e-06
2748.69	1.80201e-06
2757.24	1.91808e-06
2765.8	2.42788e-06
2774.36	3.36948e-06
2782.92	4.52366e-06
2791.47	5.5281e-06
2800.03	5.39795e-06
2808.59	8.4707e-06
2817.15	4.46669e-06
2825.7	4.49808e-06
2834.26	4.12628e-06
2842.82	5.12786e-06
2851.38	6.27701e-06
2859.93	8.82914e-06
2868.49	1.66709e-05
2877.05	1.83023e-05
2885.61	2.44265e-05
2894.16	3.02549e-05
2902.72	4.3473e-05
2911.28	4.51072e-05
2919.84	7.16317e-05
2928.4	9.73096e-05
2936.95	8.4548e-05
2945.51	8.30765e-05
2954.07	0.000106962
2962.63	0.000112156
2971.18	0.000139626
2979.74	0.000175701
2988.3	0.000199463
2996.86	0.000194781
3005.41	0.000172352
3013.97	0.00016336
3022.53	0.000138378
3031.09	0.000122956
3039.64	0.000115003
3048.2	0.000112957
3056.76	8.90558e-05
3065.32	7.8078e-05
3073.88	4.39215e-05
3082.43	2.1575e-05
3090.99	9.02936e-06
3099.55	3.89853e-06
3108.11	2.15733e-06
3116.66	1.88224e-06
3125.22	1.93955e-06
3133.78	2.11167e-06
3142.34	2.46339e-06
3150.89	2.7979e-06
3159.45	3.61902e-06
3168.01	3.24839e-06
3176.57	3.52514e-06
3185.12	2.76256e-06
3193.68	2.03289e-06
3202.24	1.08981e-06
3210.8	5.58165e-07
3219.35	4.01889e-07
3227.91	1.97869e-07
3236.47	2.03252e-07
3245.03	7.61585e-08
3253.59	2.16907e-07
3262.14	1.27788e-07
3270.7	6.71183e-08
3279.26	2.38251e-07
3287.82	1.6815e-07
3296.37	2.4936e-07
3304.93	2.84482e-07
3313.49	4.24886e-07
3322.05	5.28871e-07
3330.6	9.80465e-07
3339.16	1.13203e-06
3347.72	9.72691e-07
3356.28	1.18822e-06
3364.83	9.84438e-07
3373.39	8.50316e-07
3381.95	8.17476e-07
3390.51	9.56049e-07
3399.06	9.54997e-07
3407.62	7.80661e-07
3416.18	8.19499e-07
3424.74	4.48172e-07
3433.3	4.57668e-07
3441.85	3.81516e-07
3450.41	3.82993e-07
3458.97	2.33544e-07
3467.53	3.58641e-07
3476.08	2.10684e-07
3484.64	1.88517e-07
3493.2	1.9296e-07
3501.76	6.36845e-08
3510.31	5.07972e-08
3518.87	1.64076e-07
3527.43	1.04794e-07
3535.99	8.98539e-08
3544.54	9.76227e-08
3553.1	1.13688e-07
3561.66	9.32162e-08
3570.22	1.95109e-07
3578.78	1.88224e-07
3587.33	1.92372e-07
3595.89	2.56241e-07
3604.45	1.73147e-07
3613.01	2.58548e-07
3621.56	1.96663e-07
3630.12	2.86405e-07
3638.68	2.90573e-07
3647.24	7.11054e-07
3655.79	5.35106e-07
3664.35	5.63885e-07
3672.91	6.81422e-07
3681.47	7.61344e-07
3690.02	8.68079e-07
3698.58	8.68705e-07
3707.14	8.17619e-07
3715.7	9.67388e-07
3724.25	1.19316e-06
3732.81	1.59459e-06
3741.37	1.93013e-06
3749.93	2.21411e-06
3758.49	2.32635e-06
3767.04	2.15521e-06
3775.6	1.94861e-06
3784.16	1.68309e-06
3792.72	1.68083e-06
3801.27	2.92783e-06
3809.83	1.46872e-06
3818.39	1.94141e-06
3826.95	1.74603e-06
3835.5	1.71086e-06
3844.06	1.51331e-06
3852.62	1.43076e-06
3861.18	1.24209e-06
3869.73	1.56115e-06
3878.29	1.47388e-06
3886.85	1.6188e-06
3895.41	1.51837e-06
3903.96	1.80535e-06
3912.52	1.59402e-06
3921.08	1.61595e-06
3929.64	1.92515e-06
3938.2	1.80288e-06
3946.75	2.14564e-06
3955.31	2.11954e-06
3963.87	1.83925e-06
3972.43	1.60229e-06
