Infrared Spectrum: 1,2-Epoxypropane
Formula: C3 H6 O
CAS: 75-56-9
State: gas
Melting point: -104.4 C
Boiling point: 34.3 C
Class: IUPAC A
Instrument: IFS66V (Bruker)
Instrument parameters: KBr Beam splitter; MCT Detector; Multipass cell
Sampling: 1 L/min Flow
Resolution: 0.1250
Temperature: 23 C
Pressure: 101.3 kPa
Origin: NIST, Anayltical Chemistry Division, 301-975-3108
cm-1	(micromol/mol)-1m-1 (base 10)
3975.02	1.59495e-06
3966.46	1.76494e-06
3957.9	2.04993e-06
3949.34	2.10093e-06
3940.79	2.32492e-06
3932.23	2.01693e-06
3923.67	1.74394e-06
3915.11	1.74694e-06
3906.56	1.57695e-06
3898	1.66294e-06
3889.44	1.64394e-06
3880.88	1.51495e-06
3872.33	1.31696e-06
3863.77	1.27396e-06
3855.21	1.55195e-06
3846.65	1.32396e-06
3838.09	2.28592e-06
3829.54	1.41695e-06
3820.98	1.97393e-06
3812.42	1.64295e-06
3803.86	1.62295e-06
3795.31	1.77094e-06
3786.75	1.82494e-06
3778.19	1.89794e-06
3769.63	2.36792e-06
3761.08	2.28592e-06
3752.52	2.8959e-06
3743.96	2.8959e-06
3735.4	2.17593e-06
3726.85	1.22796e-06
3718.29	1.04896e-06
3709.73	8.9397e-07
3701.17	7.02076e-07
3692.62	9.25669e-07
3684.06	9.87867e-07
3675.5	8.9757e-07
3666.94	4.50185e-07
3658.38	3.89387e-07
3649.83	5.9788e-07
3641.27	2.9059e-07
3632.71	1.51495e-07
3624.15	2.46591e-07
3615.6	1.70494e-07
3607.04	2.59491e-07
3598.48	2.85188e-08
3589.92	1.92193e-07
3581.37	3.39288e-07
3572.81	2.46992e-07
3564.25	1.09096e-07
3555.69	1.63294e-07
3547.14	4.57385e-07
3538.58	3.0329e-07
3530.02	1.40595e-07
3521.46	4.36885e-07
3512.91	1.59895e-07
3504.35	1.22596e-08
3495.79	8.58369e-08
3487.23	-9.85065e-08
3478.67	2.09793e-07
3470.12	1.61395e-07
3461.56	4.76384e-07
3453	3.0349e-07
3444.44	3.93487e-07
3435.89	6.53578e-07
3427.33	4.89083e-07
3418.77	6.0768e-07
3410.21	8.61371e-07
3401.66	8.74271e-07
3393.1	5.51782e-07
3384.54	9.90167e-07
3375.98	6.24079e-07
3367.43	8.15172e-07
3358.87	1.10296e-06
3350.31	1.26796e-06
3341.75	1.56695e-06
3333.2	9.97567e-07
3324.64	8.25172e-07
3316.08	3.54388e-07
3307.52	2.8109e-07
3298.96	6.0118e-07
3290.41	2.12493e-07
3281.85	3.0639e-07
3273.29	2.12293e-07
3264.73	2.68891e-07
3256.18	4.94282e-08
3247.62	2.32792e-07
3239.06	1.74994e-07
3230.5	2.9729e-07
3221.95	3.63688e-07
3213.39	4.12486e-07
3204.83	9.40868e-07
3196.27	1.81294e-06
3187.72	2.70391e-06
3179.16	2.9469e-06
3170.6	3.1499e-06
3162.04	3.95687e-06
3153.48	2.84391e-06
3144.93	3.0679e-06
3136.37	2.29492e-06
3127.81	1.78994e-06
3119.25	1.96193e-06
3110.7	2.07093e-06
3102.14	3.1449e-06
3093.58	6.86677e-06
3085.02	1.64894e-05
3076.47	3.56688e-05
3067.91	6.77177e-05
3059.35	9.21969e-05
3050.79	0.00031389
3042.24	0.000102497
3033.68	0.000121496
3025.12	0.000132296
3016.56	0.000159395
3008.01	0.000176994
2999.45	0.000267791
2990.89	0.000203993
2982.33	0.000187394
2973.77	0.000125496
2965.22	0.000117596
2956.66	0.000107496
2948.1	9.25469e-05
2939.54	9.30169e-05
2930.99	8.28672e-05
2922.43	7.61474e-05
2913.87	5.45482e-05
2905.31	4.51585e-05
2896.76	3.37289e-05
2888.2	2.67791e-05
2879.64	1.90794e-05
2871.08	1.74894e-05
2862.53	1.10396e-05
2853.97	7.38875e-06
2845.41	5.56681e-06
2836.85	4.37885e-06
2828.3	4.11686e-06
2819.74	4.49485e-06
2811.18	5.05983e-06
2802.62	5.17883e-06
2794.06	5.61781e-06
2785.51	4.98983e-06
2776.95	3.73387e-06
2768.39	3.0379e-06
2759.83	2.20293e-06
2751.28	1.71894e-06
2742.72	1.72594e-06
2734.16	8.9707e-07
2725.6	8.58571e-07
2717.05	8.41572e-07
2708.49	5.7268e-07
2699.93	3.0159e-07
2691.37	2.18792e-07
2682.82	1.45195e-07
2674.26	3.0139e-07
2665.7	5.09183e-07
2657.14	7.33875e-07
2648.59	9.65268e-07
2640.03	1.08696e-06
2631.47	1.49195e-06
2622.91	1.47195e-06
2614.35	1.56195e-06
2605.8	1.40095e-06
2597.24	1.25996e-06
2588.68	9.70767e-07
2580.12	7.68974e-07
2571.57	5.8478e-07
2563.01	5.30082e-07
2554.45	6.15779e-07
2545.89	5.56381e-07
2537.34	7.76574e-07
2528.78	1.19396e-06
2520.22	9.71967e-07
2511.66	7.54675e-07
2503.11	8.16172e-07
2494.55	5.12483e-07
2485.99	3.89287e-07
2477.43	4.11486e-07
2468.87	3.28589e-07
2460.32	3.35689e-07
2451.76	4.47585e-07
2443.2	5.48682e-07
2434.64	6.59378e-07
2426.09	7.15576e-07
2417.53	7.14776e-07
2408.97	7.78774e-07
2400.41	6.63578e-07
2391.86	5.24082e-07
2383.3	5.08183e-07
2374.74	6.65877e-07
2366.18	5.78481e-07
2357.63	7.19076e-07
2349.07	8.15172e-07
2340.51	1.09796e-06
2331.95	1.01897e-06
2323.4	1.30896e-06
2314.84	1.53695e-06
2306.28	1.58195e-06
2297.72	2.19293e-06
2289.16	2.45192e-06
2280.61	2.81991e-06
2272.05	3.57888e-06
2263.49	3.0969e-06
2254.93	3.1079e-06
2246.38	3.22489e-06
2237.82	2.58091e-06
2229.26	2.07493e-06
2220.7	1.72694e-06
2212.15	1.32196e-06
2203.59	1.29196e-06
2195.03	1.29596e-06
2186.47	1.53495e-06
2177.92	2.8579e-06
2169.36	1.92694e-06
2160.8	2.40592e-06
2152.24	2.27492e-06
2143.69	1.60095e-06
2135.13	9.33968e-07
2126.57	6.0578e-07
2118.01	3.56488e-07
2109.45	4.99083e-07
2100.9	5.53281e-07
2092.34	5.9658e-07
2083.78	7.10676e-07
2075.22	5.9748e-07
2066.67	3.39588e-07
2058.11	1.93993e-07
2049.55	2.7979e-07
2040.99	6.41478e-07
2032.44	1.06696e-06
2023.88	9.31269e-07
2015.32	1.12896e-06
2006.76	1.20096e-06
1998.21	1.09896e-06
1989.65	1.24496e-06
1981.09	1.84494e-06
1972.53	1.37995e-06
1963.97	1.46795e-06
1955.42	1.37395e-06
1946.86	7.93173e-07
1938.3	5.30282e-07
1929.74	6.95676e-07
1921.19	7.80774e-07
1912.63	1.25196e-06
1904.07	1.10596e-06
1895.51	8.9777e-07
1886.96	7.48275e-07
1878.4	5.43582e-07
1869.84	5.72181e-07
1861.28	3.99686e-07
1852.73	4.68284e-07
1844.17	1.89094e-06
1835.61	3.17189e-07
1827.05	2.26092e-07
1818.5	1.43895e-07
1809.94	6.16279e-07
1801.38	1.19596e-06
1792.82	1.43195e-06
1784.26	9.37268e-07
1775.71	9.89267e-07
1767.15	5.45582e-07
1758.59	3.89387e-07
1750.03	2.82291e-07
1741.48	5.08683e-07
1732.92	9.0137e-07
1724.36	1.55295e-06
1715.8	1.84994e-06
1707.25	1.80594e-06
1698.69	1.91294e-06
1690.13	2.46892e-06
1681.57	2.49892e-06
1673.02	2.76991e-06
1664.46	2.8979e-06
1655.9	2.8559e-06
1647.34	2.80391e-06
1638.79	1.97693e-06
1630.23	1.57595e-06
1621.67	1.46995e-06
1613.11	1.68794e-06
1604.55	3.25289e-06
1596	2.63691e-06
1587.44	2.51591e-06
1578.88	2.47092e-06
1570.32	2.10793e-06
1561.77	1.43695e-06
1553.21	1.89994e-06
1544.65	3.40289e-06
1536.09	7.21676e-06
1527.54	1.40495e-05
1518.98	1.18196e-05
1510.42	1.62095e-05
1501.86	2.43792e-05
1493.31	2.07493e-05
1484.75	2.52591e-05
1476.19	3.18689e-05
1467.63	3.14689e-05
1459.08	2.8459e-05
1450.52	2.52092e-05
1441.96	3.38689e-05
1433.4	4.46385e-05
1424.84	8.8907e-05
1416.29	5.35582e-05
1407.73	6.29279e-05
1399.17	8.02973e-05
1390.61	4.46485e-05
1382.06	1.84794e-05
1373.5	1.21696e-05
1364.94	1.08796e-05
1356.38	7.88774e-06
1347.83	4.80784e-06
1339.27	2.78491e-06
1330.71	1.55595e-06
1322.15	1.40795e-06
1313.6	1.43095e-06
1305.04	2.9039e-06
1296.48	6.0258e-06
1287.92	1.09796e-05
1279.36	1.70294e-05
1270.81	1.77394e-05
1262.25	1.98393e-05
1253.69	1.71094e-05
1245.13	1.16596e-05
1236.58	6.48878e-06
1228.02	3.1249e-06
1219.46	1.55095e-06
1210.9	1.25096e-06
1202.35	1.90294e-06
1193.79	1.80594e-06
1185.23	2.67491e-06
1176.67	5.14583e-06
1168.12	8.79471e-06
1159.56	1.51595e-05
1151	1.74994e-05
1142.44	1.89494e-05
1133.89	2.61291e-05
1125.33	3.0759e-05
1116.77	3.21589e-05
1108.21	3.16689e-05
1099.65	1.83994e-05
1091.1	1.20196e-05
1082.54	7.13676e-06
1073.98	3.36589e-06
1065.42	3.34589e-06
1056.87	6.35479e-06
1048.31	1.23396e-05
1039.75	2.21793e-05
1031.19	2.9249e-05
1022.64	2.40892e-05
1014.08	2.74491e-05
1005.52	2.42692e-05
996.963	1.61495e-05
988.406	1.50995e-05
979.848	2.22693e-05
971.29	3.68088e-05
962.733	4.72684e-05
954.175	3.76587e-05
945.618	4.12186e-05
937.06	2.9199e-05
928.502	1.80794e-05
919.945	1.19396e-05
911.387	1.14596e-05
902.829	1.11696e-05
894.272	2.63491e-05
885.714	1.08596e-05
877.157	1.48395e-05
868.599	2.61691e-05
860.041	5.9258e-05
851.484	0.000128096
842.926	0.000151295
834.368	0.000122696
825.811	0.000151495
817.253	9.64868e-05
808.696	4.42785e-05
800.138	2.04293e-05
791.58	1.24496e-05
783.023	1.35495e-05
774.465	2.9829e-05
765.907	3.38689e-05
757.35	3.53488e-05
748.792	2.25292e-05
740.235	1.48295e-05
731.677	5.82481e-06
723.119	2.54191e-06
714.562	7.96173e-07
706.004	3.47488e-07
697.446	1.62494e-07
688.889	-1.92193e-07
680.331	-1.15496e-07
671.774	2.30592e-07
663.216	-1.71794e-07
654.658	-5.21682e-07
646.101	-4.57085e-07
637.543	-2.64191e-07
628.985	-1.17796e-07
620.428	-4.94883e-07
611.87	-7.56974e-07
603.313	-3.18189e-07
594.755	-4.14286e-07
586.197	-8.24772e-07
577.64	-9.36569e-07
