Infrared Spectrum: Dimethyl methylphosphonate (DMMP)
Formula: C 3 H 9 O 3 P
CAS: 756-79-6
State: liquid
Instrument: Bruker Vertex 70 FTIR
Resolution: 0.48217186
Origin: Pacific Northwest National Laboratory Under IARPA Contract
1/cm	dispersion index
7799.05	1.40095
7780.49	1.40098
7761.93	1.40097
7743.36	1.40095
7724.8	1.40095
7706.24	1.40095
7687.67	1.40093
7669.11	1.40091
7650.55	1.40089
7631.98	1.40087
7613.42	1.40086
7594.86	1.40084
7576.3	1.40082
7557.73	1.4008
7539.17	1.40079
7520.61	1.40077
7502.04	1.40076
7483.48	1.40074
7464.92	1.40073
7446.35	1.40071
7427.79	1.4007
7409.23	1.40068
7390.67	1.40067
7372.1	1.40065
7353.54	1.40064
7334.98	1.40062
7316.41	1.4006
7297.85	1.40058
7279.29	1.40056
7260.72	1.40053
7242.16	1.40051
7223.6	1.40049
7205.04	1.40046
7186.47	1.40044
7167.91	1.40042
7149.35	1.40039
7130.78	1.40037
7112.22	1.40034
7093.66	1.40032
7075.09	1.40029
7056.53	1.40027
7037.97	1.40024
7019.41	1.40021
7000.84	1.40018
6982.28	1.40015
6963.72	1.40012
6945.15	1.40008
6926.59	1.40004
6908.03	1.4
6889.46	1.39999
6870.9	1.39999
6852.34	1.39999
6833.77	1.39994
6815.21	1.39991
6796.65	1.39991
6778.09	1.39992
6759.52	1.39987
6740.96	1.39983
6722.4	1.39978
6703.83	1.39974
6685.27	1.3997
6666.71	1.39966
6648.14	1.39962
6629.58	1.39957
6611.02	1.39953
6592.46	1.39948
6573.89	1.39943
6555.33	1.39938
6536.77	1.39934
6518.2	1.39929
6499.64	1.39924
6481.08	1.39919
6462.51	1.39913
6443.95	1.39907
6425.39	1.39901
6406.83	1.39895
6388.26	1.39889
6369.7	1.39882
6351.14	1.39875
6332.57	1.39867
6314.01	1.39859
6295.45	1.39851
6276.88	1.39842
6258.32	1.39833
6239.76	1.39823
6221.2	1.39811
6202.63	1.39799
6184.07	1.39783
6165.51	1.39763
6146.94	1.39736
6128.38	1.39734
6109.82	1.39786
6091.25	1.39844
6072.69	1.39797
6054.13	1.39768
6035.57	1.39768
6017	1.39749
5998.44	1.3973
5979.88	1.39749
5961.31	1.39726
5942.75	1.39701
5924.19	1.3971
5905.62	1.39713
5887.06	1.3971
5868.5	1.39673
5849.94	1.39655
5831.37	1.39665
5812.81	1.39643
5794.25	1.39642
5775.68	1.39607
5757.12	1.39591
5738.56	1.3956
5719.99	1.39529
5701.43	1.39499
5682.87	1.39461
5664.31	1.39452
5645.74	1.39443
5627.18	1.39428
5608.62	1.39396
5590.05	1.3935
5571.49	1.39295
5552.93	1.39238
5534.36	1.39183
5515.8	1.39107
5497.24	1.39022
5478.68	1.38905
5460.11	1.38753
5441.55	1.38563
5422.99	1.38211
5404.42	1.38004
5385.86	1.38591
5367.3	1.40294
5348.73	1.40398
5330.17	1.39429
5311.61	1.40465
5293.05	1.40047
5274.48	1.39824
5255.92	1.39676
5237.36	1.3955
5218.79	1.39459
5200.23	1.3945
5181.67	1.39346
5163.1	1.3925
5144.54	1.39196
5125.98	1.3914
5107.41	1.39063
5088.85	1.38974
5070.29	1.38886
5051.73	1.38826
5033.16	1.3872
5014.6	1.38641
4996.04	1.38594
4977.47	1.3843
4958.91	1.38373
4940.35	1.3827
4921.78	1.38164
4903.22	1.38046
4884.66	1.3787
4866.1	1.37754
4847.53	1.37472
4828.97	1.37282
4810.41	1.37335
4791.84	1.37033
4773.28	1.36792
4754.72	1.36647
4736.15	1.36148
4717.59	1.35675
4699.03	1.35176
4680.47	1.3456
4661.9	1.33619
4643.34	1.32068
4624.78	1.3441
4606.21	1.34569
4587.65	1.31323
4569.09	1.26061
4550.52	1.3125
4531.96	1.07028
4513.4	1.53342
4494.84	1.35545
4476.27	1.36462
4457.71	1.27128
4439.15	1.04386
4420.58	1.29465
4402.02	1.73083
4383.46	1.51375
4364.89	1.32554
4346.33	1.62189
4327.77	1.46397
4309.21	1.49466
4290.64	1.73107
4272.08	1.5435
4253.52	1.57331
4234.95	1.50952
4216.39	1.48496
4197.83	1.46586
4179.26	1.44088
4160.7	1.37103
4142.14	1.50077
4123.58	1.50628
4105.01	1.58778
4086.45	7.82877e-05
4067.89	3.77136e-05
4049.32	3.58931e-05
4030.76	7.25666e-05
4012.2	6.7105e-05
3993.63	2.601e-05
3975.07	1.59694e-05
3956.51	1.84146e-05
3937.95	2.40838e-05
3919.38	2.75691e-05
3900.82	3.1212e-05
3882.26	3.4853e-05
3863.69	4.10951e-05
3845.13	4.7858e-05
3826.57	5.51401e-05
3808	6.21626e-05
3789.44	6.89256e-05
3770.88	7.59481e-05
3752.32	8.37511e-05
3733.75	8.97317e-05
3715.19	9.20732e-05
3696.63	9.31132e-05
3678.06	9.38937e-05
3659.5	8.89513e-05
3640.94	8.03696e-05
3622.37	7.20457e-05
3603.81	6.42427e-05
3585.25	5.87811e-05
3566.68	5.6701e-05
3548.12	5.90407e-05
3529.56	6.16417e-05
3511	6.42427e-05
3492.43	6.52827e-05
3473.87	6.55441e-05
3455.31	6.7105e-05
3436.74	7.07461e-05
3418.18	7.41275e-05
3399.62	7.77686e-05
3381.05	8.14096e-05
3362.49	8.47911e-05
3343.93	8.84321e-05
3325.37	9.20732e-05
3306.8	9.64947e-05
3288.24	0.000104038
3269.68	0.000114702
3251.11	0.000125886
3232.55	0.000138889
3213.99	0.000182847
3195.42	0.000283502
3176.86	0.000322517
3158.3	0.000288704
3139.74	0.000235905
3121.17	0.000283502
3102.61	0.000345924
3084.05	0.000286103
3065.48	0.000208074
3046.92	0.000169321
3028.36	0.000153976
3009.79	0.000148253
2991.23	0.00014149
2972.67	0.000131348
2954.11	0.000119642
2935.54	0.000110799
2916.98	0.00010846
2898.42	0.000107939
2879.85	0.0001095
2861.29	0.000113921
2842.73	0.000118864
2824.16	0.000121465
2805.6	0.000122243
2787.04	0.000122243
2768.48	0.000112881
2749.91	0.000102477
2731.35	9.70156e-05
2712.79	9.46742e-05
2694.22	9.20732e-05
2675.66	9.20732e-05
2657.1	9.49337e-05
2638.53	9.85748e-05
2619.97	0.000106118
2601.41	0.000120423
2582.85	0.00013551
2564.28	0.000159178
2545.72	0.000185446
2527.16	0.000211716
2508.59	0.000262695
2490.03	0.000335522
2471.47	0.000486376
2452.9	0.000897323
2434.34	0.00209115
2415.78	0.00309511
2397.22	0.00260094
2378.65	0.000923333
2360.09	0.000964947
2341.53	0.00101176
2322.96	0.000988356
2304.4	0.00125365
2285.84	0.00157617
2267.27	0.00100136
2248.71	0.00113921
2230.15	0.00183366
2211.59	0.00163339
2193.02	0.00143312
2174.46	0.000790685
2155.9	0.00136549
2137.33	0.00130827
2118.77	0.00143051
2100.21	0.000756873
2081.64	0.000525389
2063.08	0.000561803
2044.52	0.000358929
2025.95	0.000514985
2007.39	0.000603417
1988.83	0.000853108
1970.27	0.00164899
1951.7	0.00170622
1933.14	0.00170882
1914.58	0.00126926
1896.01	0.000980553
1877.45	0.000931136
1858.89	0.00120423
1840.32	0.00144092
1821.76	0.00177644
1803.2	0.00230443
1784.64	0.00301709
1766.07	0.00452563
1747.51	0.00738666
1728.95	0.0118603
1710.38	0.0314713
1691.82	0.0468169
1673.26	0.0572206
1654.69	0.0267897
1636.13	0.016516
1617.57	0.0125885
1599.01	0.00356328
1580.44	0.00190649
1561.88	0.00150854
1543.32	0.00131347
1524.75	0.00208595
1506.19	0.00262695
1487.63	0.00109239
1469.06	0.000920732
1450.5	0.00164899
1431.94	0.00125365
1413.38	0.000933737
1394.81	0.000691849
1376.25	0.000886919
1357.69	0.00145913
1339.12	0.00103257
1320.56	0.00210156
1302	0.00218219
1283.43	0.00120423
1264.87	0.00306911
1246.31	0.00280901
1227.75	0.00270498
1209.18	0.00291305
1190.62	0.00314713
1172.06	0.00306911
1153.49	0.00267897
1134.93	0.00658037
1116.37	0.00910328
1097.8	0.00410948
1079.24	0.00743868
1060.68	0.00520187
1042.12	0.00301709
1023.55	0.00543596
1004.99	0.0086091
986.426	0.0125365
967.863	0.0178424
949.3	0.0327718
930.737	0.114441
912.174	0.0702253
893.611	0.0233564
875.048	0.0246309
856.485	0.397943
837.922	0.152155
819.359	0.847905
800.796	0.135509
782.233	0.121724
763.67	0.0782882
745.107	0.172442
726.544	1.36549
707.981	0.629427
689.418	0.0741267
670.855	0.0850506
652.292	0.590413
633.729	0.0556601
615.166	0.309512
596.603	0.538394
578.04	0.0366732
559.477	0.11028
540.914	0.0108979
522.351	0.0069445
503.788	0.00808891
485.225	0.0104818
466.662	0.0253851
448.099	0.49938
429.536	0.22316
410.973	0.275699
