Infrared Spectrum: PHOSPHONIC ACID, METHYL-, DIMETHYL ESTER
Formula: C3 H9 O3 P
CAS: 756-79-6
State: LIQUID (NEAT)
Class: COBLENTZ III
Instrument: BECKMAN IR-9 (GRATING)
Instrument parameters: ORDER CHANGES AT 670, 1200, 2000 CM^-^1
Sampling: TRANSMISSION
Path length: CAPILLARY, KBr CRYSTALS
Resolution: 4
Origin: DOW CHEMICAL COMPANY
1/CM	TRANSMITTANCE
402.841	0.725
411.364	0.688
419.886	0.648
428.409	0.68
436.932	0.769
445.455	0.805
453.977	0.81
462.5	0.802
471.023	0.777
479.546	0.824
488.068	0.84
496.591	0.646
505.114	0.597
513.636	0.833
522.159	0.914
530.682	0.942
539.205	0.96
547.727	0.962
556.25	0.968
564.773	0.969
573.296	0.97
581.818	0.97
590.341	0.972
598.864	0.974
607.386	0.98
615.909	0.985
624.432	0.993
632.955	1.002
641.477	1.01
650	1.018
658.523	1.026
667.046	1.02
675.568	1.034
684.091	1.032
692.614	1.022
701.136	0.985
709.659	0.838
718.182	0.857
726.705	0.986
735.227	1.006
743.75	1.004
752.273	0.994
760.796	0.977
769.318	0.953
777.841	0.845
786.364	0.448
794.886	0.485
803.409	0.734
811.932	0.609
820.455	0.262
828.977	0.436
837.5	0.801
846.023	0.902
854.546	0.934
863.068	0.938
871.591	0.93
880.114	0.882
888.636	0.709
897.159	0.498
905.682	0.429
914.205	0.285
922.727	0.3681
931.25	0.672
939.773	0.833
948.296	0.877
956.818	0.897
965.341	0.901
973.864	0.893
982.386	0.874
990.909	0.85
999.432	0.792
1007.95	0.64
1016.48	0.368
1025	0.113
1033.52	0.049
1042.05	0.054
1050.57	0.085
1059.09	0.077
1067.61	0.1
1076.14	0.293
1084.66	0.536
1093.18	0.648
1101.7	0.721
1110.23	0.76
1118.75	0.789
1127.27	0.812
1135.8	0.829
1144.32	0.834
1152.84	0.832
1161.36	0.798
1169.89	0.745
1178.41	0.618
1186.93	0.525
1195.45	0.596
1203.98	0.674
1212.5	0.666
1221.02	0.552
1229.55	0.358
1238.07	0.193
1246.59	0.13
1255.11	0.154
1263.64	0.2441
1272.16	0.606
1280.68	0.764
1289.2	0.814
1297.73	0.829
1306.25	0.6839
1314.77	0.398
1323.3	0.608
1331.82	0.812
1340.34	0.881
1348.86	0.905
1357.39	0.916
1365.91	0.92
1374.43	0.921
1382.95	0.916
1391.48	0.913
1400	0.912
1408.52	0.892
1417.05	0.828
1425.57	0.818
1434.09	0.857
1442.61	0.842
1451.14	0.786
1459.66	0.756
1468.18	0.73
1476.7	0.778
1485.23	0.842
1493.75	0.87
1502.27	0.889
1510.8	0.9
1519.32	0.909
1527.84	0.914
1536.36	0.913
1544.89	0.92
1553.41	0.926
1561.93	0.928
1570.45	0.93
1578.98	0.93
1587.5	0.932
1596.02	0.934
1604.55	0.93
1613.07	0.93
1621.59	0.916
1630.11	0.905
1638.64	0.906
1647.16	0.896
1655.68	0.896
1664.2	0.901
1672.73	0.91
1681.25	0.933
1689.77	0.938
1698.3	0.945
1706.82	0.954
1715.34	0.954
1723.86	0.952
1732.39	0.941
1740.91	0.934
1749.43	0.934
1757.95	0.945
1766.48	0.948
1775	0.95
1783.52	0.954
1792.05	0.956
1800.57	0.961
1809.09	0.956
1817.61	0.95
1826.14	0.945
1834.66	0.944
1843.18	0.938
1851.7	0.936
1860.23	0.941
1868.75	0.946
1877.27	0.954
1885.8	0.957
1894.32	0.957
1902.84	0.961
1911.36	0.966
1919.89	0.962
1928.41	0.965
1936.93	0.961
1945.45	0.961
1953.98	0.961
1962.5	0.958
1971.02	0.961
1979.55	0.962
1988.07	0.961
1996.59	0.965
2005.11	0.966
2013.64	0.956
2022.16	0.954
2030.68	0.952
2039.2	0.953
2047.73	0.952
2056.25	0.952
2064.77	0.952
2073.3	0.95
2081.82	0.949
2090.34	0.946
2098.86	0.948
2107.39	0.9479
2115.91	0.944
2124.43	0.941
2132.95	0.941
2141.48	0.942
2150	0.945
2158.52	0.948
2167.05	0.9491
2175.57	0.953
2184.09	0.952
2192.61	0.9499
2201.14	0.948
2209.66	0.945
2218.18	0.945
2226.7	0.945
2235.23	0.946
2243.75	0.9462
2252.27	0.949
2260.8	0.948
2269.32	0.95
2277.84	0.9489
2286.36	0.949
2294.89	0.949
2303.41	0.949
2311.93	0.9499
2320.45	0.9477
2328.98	0.945
2337.5	0.942
2346.02	0.942
2354.55	0.941
2363.07	0.9397
2371.59	0.9372
2380.11	0.9425
2388.64	0.948
2397.16	0.944
2405.68	0.945
2414.2	0.9452
2422.73	0.946
2431.25	0.948
2439.77	0.949
2448.3	0.9482
2456.82	0.95
2465.34	0.946
2473.86	0.946
2482.39	0.948
2490.91	0.945
2499.43	0.945
2507.95	0.946
2516.48	0.949
2525	0.95
2533.52	0.949
2542.05	0.9483
2550.57	0.948
2559.09	0.9493
2567.61	0.948
2576.14	0.948
2584.66	0.946
2593.18	0.9447
2601.7	0.944
2610.23	0.942
2618.75	0.942
2627.27	0.9367
2635.8	0.933
2644.32	0.936
2652.84	0.937
2661.36	0.94
2669.89	0.94
2678.41	0.9413
2686.93	0.9413
2695.45	0.94
2703.98	0.94
2712.5	0.942
2721.02	0.941
2729.55	0.941
2738.07	0.9376
2746.59	0.937
2755.11	0.937
2763.64	0.936
2772.16	0.936
2780.68	0.933
2789.2	0.933
2797.73	0.933
2806.25	0.9296
2814.77	0.9256
2823.3	0.9198
2831.82	0.9126
2840.34	0.9
2848.86	0.8507
2857.39	0.7564
2865.91	0.8255
2874.43	0.8628
2882.95	0.8741
2891.48	0.878
2900	0.8732
2908.52	0.8593
2917.05	0.8389
2925.57	0.8059
2934.09	0.7764
2942.61	0.7804
2951.14	0.7229
2959.66	0.6266
2968.18	0.6784
2976.7	0.7539
2985.23	0.7645
2993.75	0.7417
3002.27	0.7285
3010.8	0.7444
3019.32	0.7728
3027.84	0.8064
3036.36	0.8339
3044.89	0.855
3053.41	0.871
3061.93	0.879
3070.45	0.882
3078.98	0.8895
3087.5	0.894
3096.02	0.899
3104.55	0.903
3113.07	0.9085
3121.59	0.909
3130.11	0.9125
3138.64	0.914
3147.16	0.916
3155.68	0.917
3164.2	0.92
3172.73	0.921
3181.25	0.921
3189.77	0.92
3198.3	0.9174
3206.82	0.916
3215.34	0.914
3223.86	0.9124
3232.39	0.91
3240.91	0.909
3249.43	0.9054
3257.95	0.904
3266.48	0.901
3275	0.8974
3283.52	0.8948
3292.05	0.892
3300.57	0.889
3309.09	0.886
3317.61	0.885
3326.14	0.884
3334.66	0.881
3343.18	0.88
3351.7	0.876
3360.23	0.872
3368.75	0.8667
3377.27	0.8604
3385.8	0.8533
3394.32	0.842
3402.84	0.8323
3411.36	0.8213
3419.89	0.811
3428.41	0.802
3436.93	0.7933
3445.45	0.782
3453.98	0.7726
3462.5	0.7589
3471.02	0.756
3479.55	0.754
3488.07	0.754
3496.59	0.754
3505.11	0.754
3513.64	0.754
3522.16	0.754
3530.68	0.754
3539.2	0.7567
3547.73	0.7655
3556.25	0.7855
3564.77	0.805
3573.3	0.8275
3581.82	0.847
3590.34	0.8563
3598.86	0.8688
3607.39	0.8761
3615.91	0.8848
3624.43	0.8888
3632.95	0.8915
3641.48	0.8978
3650	0.9048
3658.52	0.9116
3667.05	0.92
3675.57	0.9284
3684.09	0.9338
3692.61	0.938
3701.14	0.9448
3709.66	0.9442
3718.18	0.9448
3726.7	0.946
3735.23	0.946
3743.75	0.946
3752.27	0.946
3760.8	0.946
3769.32	0.9477
3777.84	0.948
3786.36	0.949
3794.89	0.95
