Infrared Spectrum: tert-Butylamine
Formula: C 4 H 11 N
CAS: 75-64-9
State: liquid
Instrument: Bruker Tensor 27 FTIR
Resolution: 0.4821395
Origin: Pacific Northwest National Laboratory Under IARPA Contract
1/cm	dispersion index
7797.62	1.3629
7779.06	1.3629
7760.5	1.3629
7741.94	1.36289
7723.38	1.36289
7704.81	1.36288
7686.25	1.36287
7667.69	1.36287
7649.13	1.36286
7630.57	1.36285
7612.01	1.36284
7593.44	1.36283
7574.88	1.36283
7556.32	1.36283
7537.76	1.36282
7519.2	1.36281
7500.64	1.36281
7482.07	1.3628
7463.51	1.36279
7444.95	1.36278
7426.39	1.36278
7407.83	1.36277
7389.26	1.36275
7370.7	1.36275
7352.14	1.36274
7333.58	1.36272
7315.02	1.36271
7296.46	1.3627
7277.89	1.36268
7259.33	1.36267
7240.77	1.36265
7222.21	1.36264
7203.65	1.36262
7185.09	1.36258
7166.52	1.36254
7147.96	1.36261
7129.4	1.36269
7110.84	1.36269
7092.28	1.36266
7073.71	1.36262
7055.15	1.3626
7036.59	1.36258
7018.03	1.36256
6999.47	1.36254
6980.91	1.36253
6962.34	1.36251
6943.78	1.36249
6925.22	1.36246
6906.66	1.36244
6888.1	1.3624
6869.54	1.36235
6850.97	1.36238
6832.41	1.36242
6813.85	1.36241
6795.29	1.36238
6776.73	1.36237
6758.16	1.36237
6739.6	1.36234
6721.04	1.36232
6702.48	1.36231
6683.92	1.36227
6665.36	1.36225
6646.79	1.36222
6628.23	1.36219
6609.67	1.36216
6591.11	1.36213
6572.55	1.3621
6553.99	1.36208
6535.42	1.36205
6516.86	1.36201
6498.3	1.36198
6479.74	1.36194
6461.18	1.3619
6442.61	1.36186
6424.05	1.3618
6405.49	1.36175
6386.93	1.3617
6368.37	1.36164
6349.81	1.36186
6331.24	1.36172
6312.68	1.36165
6294.12	1.3616
6275.56	1.36152
6257	1.36144
6238.44	1.36143
6219.87	1.36138
6201.31	1.36131
6182.75	1.36129
6164.19	1.36118
6145.63	1.36105
6127.06	1.36089
6108.5	1.36063
6089.94	1.36089
6071.38	1.36071
6052.82	1.36104
6034.26	1.3611
6015.69	1.3609
5997.13	1.36097
5978.57	1.36106
5960.01	1.36105
5941.45	1.36093
5922.89	1.36079
5904.32	1.36069
5885.76	1.36049
5867.2	1.36035
5848.64	1.36016
5830.08	1.36007
5811.51	1.35986
5792.95	1.35972
5774.39	1.35951
5755.83	1.35925
5737.27	1.35901
5718.71	1.3587
5700.14	1.35836
5681.58	1.35797
5663.02	1.35751
5644.46	1.35693
5625.9	1.35618
5607.34	1.35533
5588.77	1.35403
5570.21	1.35656
5551.65	1.35474
5533.09	1.35685
5514.53	1.35662
5495.96	1.35567
5477.4	1.35523
5458.84	1.35233
5440.28	1.34833
5421.72	1.34157
5403.16	1.32552
5384.59	1.29373
5366.03	1.3962
5347.47	1.38752
5328.91	1.40294
5310.35	1.38474
5291.79	1.37826
5273.22	1.37393
5254.66	1.37263
5236.1	1.37108
5217.54	1.36962
5198.98	1.36861
5180.41	1.36771
5161.85	1.36703
5143.29	1.36634
5124.73	1.36579
5106.17	1.36525
5087.61	1.36484
5069.04	1.36438
5050.48	1.364
5031.92	1.36388
5013.36	1.36336
4994.8	1.36289
4976.24	1.36238
4957.67	1.36187
4939.11	1.36175
4920.55	1.36148
4901.99	1.36089
4883.43	1.36046
4864.86	1.35989
4846.3	1.35927
4827.74	1.35836
4809.18	1.35743
4790.62	1.35656
4772.06	1.35516
4753.49	1.35286
4734.93	1.34949
4716.37	1.34621
4697.81	1.35408
4679.25	1.35962
4660.69	1.35514
4642.12	1.34081
4623.56	1.36554
4605	1.34834
4586.44	1.32243
4567.88	1.37536
4549.31	1.35682
4530.75	1.33243
4512.19	1.3528
4493.63	1.39066
4475.07	1.37239
4456.51	1.36662
4437.94	1.36043
4419.38	1.34941
4400.82	1.35512
4382.26	1.34086
4363.7	1.33096
4345.14	1.30822
4326.57	1.35088
4308.01	1.43877
4289.45	1.43178
4270.89	1.40446
4252.33	1.40428
4233.76	1.3966
4215.2	1.39108
4196.64	1.387
4178.08	1.38378
4159.52	1.37858
4140.96	1.36785
4122.39	1.41603
4103.83	1.39288
4085.27	0.000120267
4066.71	0.000112471
4048.15	0.000115812
4029.58	0.000116926
4011.02	0.00012138
3992.46	0.000123607
3973.9	0.000128062
3955.34	0.000124721
3936.78	0.000122494
3918.21	0.000126948
3899.65	0.000164809
3881.09	0.000227171
3862.53	0.000229398
3843.97	0.000221603
3825.41	0.000244988
3806.84	0.000233853
3788.28	0.000237192
3769.72	0.000209354
3751.16	0.000183741
3732.6	0.000173719
3714.03	0.000139197
3695.47	0.000148106
3676.91	0.00016147
3658.35	0.000129176
3639.79	0.000120267
3621.23	0.000119153
3602.66	0.000130289
3584.1	0.000144765
3565.54	0.000151447
3546.98	0.000248329
3528.42	0.000221603
3509.86	0.000193763
3491.29	0.000297326
3472.73	0.000831846
3454.17	0.00174832
3435.61	0.00173719
3417.05	0.00088641
3398.48	0.000370822
3379.92	0.000209354
3361.36	0.000188195
3342.8	0.000192649
3324.24	0.000213807
3305.68	0.000194876
3287.11	0.000191536
3268.55	0.000164809
3249.99	0.000135858
3231.43	0.000122494
3212.87	0.000123607
3194.31	0.000155902
3175.74	0.000312916
3157.18	0.00128062
3138.62	0.00139198
3120.06	0.000814027
3101.5	0.00067483
3082.93	0.000742758
3064.37	0.00064365
3045.81	0.000412024
3027.25	0.000485521
3008.69	0.00040423
2990.13	0.000248329
2971.56	0.000246101
2953	0.000185969
2934.44	0.000163696
2915.88	0.000173719
2897.32	0.000162582
2878.76	0.000188195
2860.19	0.000232739
2841.63	0.000214921
2823.07	0.000207127
2804.51	0.000201558
2785.95	0.000183741
2767.38	0.000201558
2748.82	0.000217148
2730.26	0.00031737
2711.7	0.000561244
2693.14	0.000890865
2674.58	0.00163696
2656.01	0.00258351
2637.45	0.000520042
2618.89	0.00070267
2600.33	0.000527838
2581.77	0.00056904
2563.21	0.00062806
2544.64	0.00188195
2526.08	0.000842981
2507.52	0.0013697
2488.96	0.00142538
2470.4	0.000880843
2451.83	0.000902001
2433.27	0.00122494
2414.71	0.00243874
2396.15	0.00712692
2377.59	0.00570154
2359.03	0.00985519
2340.46	0.00752781
2321.9	0.00597993
2303.34	0.00717146
2284.78	0.00717146
2266.22	0.00526724
2247.66	0.00370823
2229.09	0.00335188
2210.53	0.00190422
2191.97	0.00178173
2173.41	0.00165924
2154.85	0.001804
2136.28	0.00203785
2117.72	0.00144766
2099.16	0.00157015
2080.6	0.00112472
2062.04	0.000948771
2043.48	0.00114699
2024.91	0.00120267
2006.35	0.00131403
1987.79	0.00168151
1969.23	0.00213808
1950.67	0.0031403
1932.11	0.00508907
1913.54	0.0102449
1894.98	0.0173719
1876.42	0.0605788
1857.86	0.0347437
1839.3	0.0614697
1820.73	0.0417593
1802.17	0.0339642
1783.61	0.0290645
1765.05	0.0122494
1746.49	0.00806233
1727.93	0.00904228
1709.36	0.0248329
1690.8	0.332961
1672.24	0.667035
1653.68	0.338529
1635.12	0.381958
1616.56	0.0504452
1597.99	0.0184854
1579.43	0.00998882
1560.87	0.0170378
1542.31	0.00832959
1523.75	0.00370823
1505.18	0.00381958
1486.62	0.00293985
1468.06	0.00236079
1449.5	0.00163696
1430.94	0.00191536
1412.38	0.00162583
1393.81	0.0023942
1375.25	0.00194877
1356.69	0.00334074
1338.13	0.00456568
1319.57	0.00148106
1301.01	0.00120267
1282.44	0.00146993
1263.88	0.00325166
1245.32	0.00409798
1226.76	0.00434297
1208.2	0.00242761
1189.63	0.00328506
1171.07	0.00262805
1152.51	0.00200445
1133.95	0.00144766
1115.39	0.0028285
1096.83	0.00399776
1078.26	0.00429842
1059.7	0.00555677
1041.14	0.0216035
1022.58	0.0698215
1004.02	0.174832
985.455	0.134743
966.894	0.0572381
948.332	0.0548995
929.77	0.227171
911.208	0.0406457
892.647	0.268373
874.085	0.0985519
855.523	0.0477726
836.961	0.0701556
818.399	0.5412
799.838	0.233852
781.276	0.0486635
762.714	0.0721601
744.152	0.0341869
725.591	0.0804006
707.029	0.0603561
688.467	0.0526724
669.905	0.171491
651.344	0.396435
632.782	1.09242
614.22	1.20267
595.658	0.3608
577.096	0.113585
558.535	0.0563472
539.973	0.023942
521.411	0.010089
502.849	0.00739418
484.288	0.00574608
465.726	0.0023942
447.164	0.0310689
428.602	0.487749
410.041	0.013363
