Infrared Spectrum: Dichlorodifluoromethane
Formula: C Cl2 F2
CAS: 75-71-8
State: gas
Melting point: -158 C
Boiling point: -29.8 C
Class: IUPAC A
Instrument: IFS66V (Bruker)
Instrument parameters: KBr Beam Splitter; MCT Detector; Multipass cell
Sampling: 1 L/min Flow
Resolution: 0.4820
Temperature: 23 C
Pressure: 101.3 Pa
Origin: NIST, Analytical Chemistry Division, 301-975-3108
cm-1	(micromol/mol)-1m-1 (base 10)
575.17	-3.52598e-06
583.848	2.88944e-06
592.526	-2.72306e-06
601.205	-8.68517e-07
609.883	-2.36998e-07
618.561	-1.44438e-06
627.239	1.79707e-07
635.917	-5.85172e-07
644.595	3.20743e-06
653.274	2.63013e-05
661.952	5.46004e-05
670.63	7.37097e-05
679.308	4.73696e-05
687.986	6.49301e-06
696.664	-8.24396e-07
705.343	1.00976e-06
714.021	1.22779e-06
722.699	1.33245e-06
731.377	1.43736e-06
740.055	6.66858e-07
748.734	1.16231e-06
757.412	1.03615e-06
766.09	8.41683e-07
774.768	-3.08935e-07
783.446	-4.65439e-07
792.124	2.21813e-07
800.803	-3.45554e-07
809.481	1.35113e-07
818.159	1.22597e-06
826.837	1.98717e-06
835.515	3.16479e-06
844.193	6.64424e-06
852.872	1.98172e-05
861.55	6.94296e-05
870.228	0.000204757
878.906	0.0003981
887.584	0.000506622
896.263	0.000331173
904.941	0.000473119
913.619	0.00158322
922.297	0.002617
930.975	0.00190319
939.653	9.32105e-05
948.332	2.41291e-06
957.01	2.99971e-07
965.688	-1.25822e-07
974.366	-1.50175e-07
983.044	-2.41043e-07
991.723	-6.30333e-07
1000.4	-7.07145e-07
1009.08	-6.16014e-07
1017.76	-6.24243e-07
1026.44	-9.15308e-09
1035.11	-2.83564e-07
1043.79	1.36874e-07
1052.47	2.69674e-06
1061.15	1.32598e-05
1069.83	4.77204e-05
1078.5	0.000215115
1087.18	0.000822553
1095.86	0.00146713
1104.54	0.00148314
1113.22	0.00101654
1121.9	0.000338315
1130.57	0.000258081
1139.25	0.000309499
1147.93	0.000889738
1156.61	0.0010566
1165.29	0.000614485
1173.96	0.000397309
1182.64	5.20924e-05
1191.32	8.07616e-06
1200	8.6036e-06
1208.68	8.30827e-06
1217.36	4.45225e-06
1226.03	8.01624e-06
1234.71	1.19472e-05
1243.39	1.95992e-05
1252.07	8.5039e-06
1260.75	1.39657e-06
1269.42	1.83294e-07
1278.1	-5.84844e-07
1286.78	-1.81577e-07
1295.46	4.93204e-07
1304.14	8.97628e-08
1312.82	1.30139e-06
1321.49	1.99785e-06
1330.17	2.32151e-06
1338.85	3.23492e-06
1347.53	3.83705e-06
1356.21	5.86063e-06
1364.88	5.16814e-06
1373.56	7.04723e-06
1382.24	7.0534e-06
1390.92	5.13467e-06
1399.6	1.13517e-06
1408.28	1.97322e-07
1416.95	5.97933e-08
1425.63	-4.03158e-08
1434.31	3.23414e-08
1442.99	1.40861e-08
1451.67	-5.25509e-07
1460.34	-1.85063e-07
1469.02	1.3431e-06
1477.7	1.60935e-06
1486.38	6.54947e-07
1495.06	-6.70838e-08
1503.73	-3.41873e-07
1512.41	-2.37667e-07
1521.09	-1.28688e-06
1529.77	4.73436e-07
1538.45	3.99367e-07
1547.13	3.76666e-07
1555.8	5.36372e-07
1564.48	7.82203e-07
1573.16	2.10907e-06
1581.84	4.15821e-06
1590.52	3.77229e-06
1599.19	3.19374e-06
1607.87	-6.01208e-08
1616.55	-1.73448e-06
1625.23	-3.72337e-07
1633.91	-9.26149e-08
1642.59	-1.46748e-07
1651.26	-2.03463e-07
1659.94	-3.3905e-07
1668.62	-4.06781e-07
1677.3	-6.10521e-08
1685.98	-2.32014e-07
1694.65	-1.82159e-07
1703.33	-4.67571e-07
1712.01	-9.2775e-08
1720.69	-2.54664e-07
1729.37	-1.38075e-07
1738.05	-4.69296e-09
1746.72	1.68354e-06
1755.4	2.98405e-06
1764.08	3.13056e-06
1772.76	7.04111e-07
1781.44	3.83513e-07
1790.11	1.11444e-06
1798.79	2.25947e-06
1807.47	2.38172e-06
1816.15	1.77519e-06
1824.83	1.58496e-06
1833.51	1.91826e-06
1842.18	1.40543e-06
1850.86	8.44004e-07
1859.54	-7.62711e-07
1868.22	-7.69572e-07
1876.9	-3.57421e-07
1885.57	-1.81083e-07
1894.25	-2.20874e-07
1902.93	-4.47322e-07
1911.61	-1.34313e-08
1920.29	-6.80442e-08
1928.97	-2.44499e-07
1937.64	-2.11801e-07
1946.32	-2.06374e-07
1955	-1.53478e-07
1963.68	1.31308e-07
1972.36	1.97592e-07
1981.03	8.22904e-08
1989.71	3.53194e-07
1998.39	4.70511e-07
2007.07	5.64166e-07
2015.75	6.91225e-07
2024.43	3.63948e-07
2033.1	2.17549e-09
2041.78	2.33746e-07
2050.46	2.17098e-07
2059.14	3.13453e-07
2067.82	3.68743e-08
2076.49	1.10077e-07
2085.17	2.57276e-07
2093.85	-2.64428e-07
2102.53	1.02285e-07
2111.21	-3.3993e-08
2119.89	-2.38831e-07
2128.56	-1.04729e-07
2137.24	1.01659e-07
2145.92	-6.13722e-08
2154.6	-3.59713e-07
2163.28	8.78201e-09
2171.95	1.02926e-06
2180.63	3.38035e-06
2189.31	7.08092e-06
2197.99	6.06793e-06
2206.67	3.82491e-06
2215.35	1.96222e-06
2224.02	4.36563e-06
2232.7	1.05971e-05
2241.38	1.58202e-05
2250.06	3.68939e-05
2258.74	8.48206e-06
2267.41	2.0988e-06
2276.09	1.82212e-06
2284.77	6.10419e-07
2293.45	1.35091e-06
2302.13	3.97855e-06
2310.81	3.66077e-06
2319.48	4.646e-06
2328.16	1.3633e-06
2336.84	-2.93233e-07
2345.52	-6.1306e-07
2354.2	1.50749e-07
2362.87	1.07006e-06
2371.55	1.10708e-06
2380.23	3.09379e-07
2388.91	-2.14952e-07
2397.59	4.07509e-07
2406.27	1.85295e-07
2414.94	1.84066e-07
2423.62	-8.03987e-09
2432.3	2.44754e-07
2440.98	3.19652e-07
2449.66	5.9343e-07
2458.33	1.61845e-07
2467.01	1.82785e-07
2475.69	1.87507e-07
2484.37	6.02008e-08
2493.05	9.8683e-08
2501.73	-4.30573e-07
2510.4	4.0868e-07
2519.08	-5.98661e-08
2527.76	-2.83491e-07
2536.44	1.90694e-07
2545.12	4.94688e-08
2553.79	1.84706e-07
2562.47	9.84429e-08
2571.15	2.19725e-07
2579.83	1.95314e-07
2588.51	6.38904e-07
2597.19	-1.87427e-07
2605.86	-3.65832e-08
2614.54	1.35696e-07
2623.22	-2.76688e-07
2631.9	3.6979e-07
2640.58	9.32334e-08
2649.25	1.13962e-07
2657.93	2.77692e-07
2666.61	1.2914e-07
2675.29	9.09924e-08
2683.97	2.965e-07
2692.65	2.07596e-07
2701.32	-1.72235e-07
2710	1.96238e-07
2718.68	3.03485e-07
2727.36	9.60855e-08
2736.04	-3.88184e-07
2744.71	-1.47424e-07
2753.39	2.06454e-07
2762.07	2.19485e-07
2770.75	-2.87136e-07
2779.43	-3.45336e-07
2788.11	-3.29293e-07
2796.78	-1.99491e-07
2805.46	-3.0462e-07
2814.14	-2.6979e-07
2822.82	-3.80697e-07
2831.5	-5.24447e-07
2840.17	-3.98981e-07
2848.85	-1.08644e-07
2857.53	-1.17011e-07
2866.21	5.6963e-07
2874.89	-3.11059e-07
2883.57	-5.8702e-08
2892.24	-5.26135e-07
2900.92	-1.69805e-07
2909.6	-3.53449e-07
2918.28	8.41312e-08
2926.96	-6.21806e-07
2935.63	2.17695e-07
2944.31	-4.05078e-07
2952.99	-1.95882e-07
2961.67	-4.41269e-07
2970.35	5.89784e-08
2979.03	-5.22701e-07
2987.7	7.05326e-08
2996.38	-3.6175e-07
3005.06	-5.11132e-08
3013.74	-3.07865e-07
3022.42	4.56999e-07
3031.09	9.31097e-08
3039.77	-1.42535e-08
3048.45	3.24076e-07
3057.13	-1.76492e-07
3065.81	-3.9308e-07
3074.49	-3.63948e-07
3083.16	7.93946e-08
3091.84	4.35608e-08
3100.52	2.75655e-07
3109.2	-1.19761e-07
3117.88	1.05559e-07
3126.55	-1.77408e-07
3135.23	1.16916e-07
3143.91	1.31505e-07
3152.59	-1.789e-07
3161.27	-3.20212e-08
3169.95	2.88089e-07
3178.62	4.96784e-07
3187.3	-3.85259e-07
3195.98	-3.60994e-07
3204.66	-3.13133e-07
3213.34	4.63329e-08
3222.01	-8.75822e-07
3230.69	-1.00167e-07
3239.37	-7.5788e-07
3248.05	-5.18772e-09
3256.73	-4.08535e-07
3265.4	-1.78623e-08
3274.08	-2.43655e-07
3282.76	6.6362e-07
3291.44	-4.01826e-07
3300.12	1.9936e-07
3308.8	-3.61547e-07
3317.47	4.06686e-07
3326.15	3.02299e-07
3334.83	-2.32458e-07
3343.51	-5.85361e-07
3352.19	-7.77357e-08
3360.86	4.38257e-07
3369.54	5.41894e-07
3378.22	-2.09408e-07
3386.9	1.32036e-07
3395.58	-9.70532e-08
3404.26	-4.07807e-07
3412.93	4.81716e-07
3421.61	-4.91764e-07
3430.29	-9.0534e-07
3438.97	6.09306e-07
3447.65	-5.90265e-07
3456.32	-1.05981e-07
3465	5.24672e-07
3473.68	-2.42469e-07
3482.36	-9.69797e-07
3491.04	1.461e-07
3499.72	2.96071e-07
3508.39	-7.82327e-07
3517.07	-6.34378e-07
3525.75	1.7225e-07
3534.43	6.06163e-07
3543.11	4.8069e-07
3551.78	-5.25029e-08
3560.46	3.10746e-07
3569.14	-5.38715e-07
3577.82	3.97948e-07
3586.5	9.54089e-08
3595.18	7.6672e-07
3603.85	2.0398e-07
3612.53	-2.30166e-07
3621.21	2.33389e-07
3629.89	1.14814e-08
3638.57	1.81585e-07
3647.24	-3.12012e-07
3655.92	-5.06192e-07
3664.6	5.33578e-07
3673.28	-4.98152e-07
3681.96	-2.66262e-07
3690.64	2.20314e-08
3699.31	1.17237e-07
3707.99	-1.47075e-07
3716.67	1.12369e-07
3725.35	1.62747e-07
3734.03	5.85695e-07
3742.7	3.14552e-07
3751.38	2.01346e-07
3760.06	-7.43088e-08
3768.74	1.01614e-06
3777.42	6.37551e-07
3786.1	-5.02837e-08
3794.77	1.90469e-07
3803.45	8.97482e-08
3812.13	7.38882e-07
3820.81	-3.08178e-07
3829.49	1.17018e-07
3838.16	-9.5518e-07
3846.84	2.37318e-07
3855.52	4.16509e-07
3864.2	1.60404e-07
3872.88	2.51011e-07
3881.56	-1.75829e-07
3890.23	-1.17993e-07
3898.91	1.23152e-07
3907.59	1.54809e-07
3916.27	3.2596e-08
3924.95	3.78005e-07
3933.62	3.73428e-07
3942.3	-5.82727e-08
3950.98	8.35201e-07
3959.66	-1.2393e-07
3968.34	4.96653e-07
