Infrared Spectrum: Dichlorodifluoromethane
Formula: C Cl2 F2
CAS: 75-71-8
State: gas
Melting point: -158 C
Boiling point: -29.8 C
Class: IUPAC A
Instrument: IFS66V (Bruker)
Instrument parameters: KBr Beam Splitter; MCT Detector; Multipass cell
Sampling: 1 L/min Flow
Resolution: 0.4820
Temperature: 23 C
Pressure: 101.3 Pa
Origin: NIST, Analytical Chemistry Division, 301-975-3108
cm-1	(micromol/mol)-1m-1 (base 10)
575.17	-5.68211e-06
583.848	3.01031e-07
592.526	-3.04295e-06
601.205	-1.08984e-06
609.883	-2.94536e-06
618.561	-1.19027e-07
627.239	9.48129e-07
635.917	-3.28965e-06
644.595	2.20561e-06
653.274	2.46536e-05
661.952	5.38259e-05
670.63	7.31804e-05
679.308	4.82692e-05
687.986	5.61612e-06
696.664	-2.32524e-06
705.343	4.30768e-07
714.021	2.45388e-07
722.699	7.92011e-08
731.377	1.51853e-06
740.055	-6.41728e-07
748.734	8.91525e-07
757.412	5.28827e-07
766.09	-5.64317e-07
774.768	-1.4478e-06
783.446	-1.19771e-06
792.124	7.08779e-08
800.803	-1.24424e-06
809.481	1.54648e-07
818.159	-6.11928e-07
826.837	1.70654e-07
835.515	2.05018e-06
844.193	4.84493e-06
852.872	1.80235e-05
861.55	6.68407e-05
870.228	0.000201656
878.906	0.000393476
887.584	0.000513401
896.263	0.000325938
904.941	0.0004631
913.619	0.00156729
922.297	0.00261121
930.975	0.0019202
939.653	0.000101738
948.332	8.18386e-06
957.01	4.48325e-06
965.688	2.72497e-06
974.366	2.20337e-06
983.044	2.36497e-06
991.723	1.49581e-06
1000.4	9.72472e-07
1009.08	1.59153e-06
1017.76	5.75914e-07
1026.44	1.70289e-06
1035.11	7.83237e-07
1043.79	7.31057e-07
1052.47	3.98345e-06
1061.15	1.44684e-05
1069.83	4.85925e-05
1078.5	0.000217183
1087.18	0.000824233
1095.86	0.00146807
1104.54	0.00146989
1113.22	0.00101673
1121.9	0.000340562
1130.57	0.000259695
1139.25	0.000310092
1147.93	0.000893633
1156.61	0.00100282
1165.29	0.000612817
1173.96	0.000396907
1182.64	5.18858e-05
1191.32	8.57579e-06
1200	8.36435e-06
1208.68	9.45621e-06
1217.36	4.94845e-06
1226.03	8.5803e-06
1234.71	1.16604e-05
1243.39	1.95289e-05
1252.07	8.94347e-06
1260.75	2.16976e-06
1269.42	-1.34335e-07
1278.1	-8.12673e-08
1286.78	-1.59057e-07
1295.46	1.03535e-06
1304.14	-1.21166e-07
1312.82	1.59243e-06
1321.49	2.3596e-06
1330.17	2.76923e-06
1338.85	4.40635e-06
1347.53	4.47331e-06
1356.21	4.92896e-06
1364.88	5.26211e-06
1373.56	6.85784e-06
1382.24	7.15282e-06
1390.92	5.16283e-06
1399.6	1.24554e-06
1408.28	1.06809e-06
1416.95	1.6431e-07
1425.63	1.95304e-07
1434.31	2.82566e-07
1442.99	-3.16048e-08
1451.67	-5.84455e-07
1460.34	-5.43989e-07
1469.02	1.65999e-06
1477.7	2.45931e-06
1486.38	7.33632e-07
1495.06	8.79462e-08
1503.73	-3.74485e-07
1512.41	-3.37554e-07
1521.09	-1.50667e-06
1529.77	7.3631e-07
1538.45	1.90836e-07
1547.13	4.14456e-07
1555.8	8.97666e-07
1564.48	1.01447e-06
1573.16	2.50931e-06
1581.84	4.36692e-06
1590.52	3.63625e-06
1599.19	3.56334e-06
1607.87	1.2121e-08
1616.55	-1.94055e-06
1625.23	-3.75299e-07
1633.91	-1.36954e-07
1642.59	-6.04303e-08
1651.26	5.20198e-08
1659.94	-7.86045e-08
1668.62	-1.31803e-07
1677.3	6.20309e-08
1685.98	-2.92402e-07
1694.65	-1.06048e-07
1703.33	-5.69512e-07
1712.01	2.40732e-07
1720.69	-5.29555e-07
1729.37	5.96737e-08
1738.05	7.66838e-08
1746.72	1.74995e-06
1755.4	2.94092e-06
1764.08	3.20845e-06
1772.76	-1.24251e-07
1781.44	-1.58708e-07
1790.11	1.2538e-06
1798.79	2.34673e-06
1807.47	2.43808e-06
1816.15	2.04357e-06
1824.83	1.91402e-06
1833.51	2.04075e-06
1842.18	1.7436e-06
1850.86	1.09233e-06
1859.54	-5.35782e-07
1868.22	-8.9314e-07
1876.9	-1.79894e-07
1885.57	-1.1181e-07
1894.25	-2.72889e-07
1902.93	-7.3596e-07
1911.61	3.83128e-08
1920.29	4.71554e-07
1928.97	-5.2775e-07
1937.64	-1.46703e-07
1946.32	-4.12812e-07
1955	-1.23392e-07
1963.68	2.95385e-07
1972.36	1.23392e-08
1981.03	2.41328e-07
1989.71	8.22262e-07
1998.39	7.29878e-07
2007.07	7.8587e-07
2015.75	7.31421e-07
2024.43	2.30328e-07
2033.1	-1.07852e-07
2041.78	8.98524e-08
2050.46	3.36972e-07
2059.14	5.24898e-07
2067.82	-7.62618e-08
2076.49	7.62327e-08
2085.17	5.76365e-07
2093.85	-1.32196e-07
2102.53	4.07515e-07
2111.21	-1.40708e-08
2119.89	-5.98046e-08
2128.56	9.58911e-09
2137.24	4.61834e-07
2145.92	3.07594e-07
2154.6	-3.38325e-07
2163.28	-5.28783e-08
2171.95	1.55007e-06
2180.63	3.77828e-06
2189.31	7.23102e-06
2197.99	6.49317e-06
2206.67	3.65614e-06
2215.35	1.91958e-06
2224.02	4.50839e-06
2232.7	1.04601e-05
2241.38	1.57833e-05
2250.06	3.40582e-05
2258.74	7.73729e-06
2267.41	1.69342e-06
2276.09	2.0178e-06
2284.77	6.54766e-07
2293.45	1.67155e-06
2302.13	4.44399e-06
2310.81	3.40031e-06
2319.48	4.15734e-06
2328.16	1.11711e-06
2336.84	-4.70536e-07
2345.52	-2.54526e-07
2354.2	4.92886e-07
2362.87	1.48145e-06
2371.55	1.58424e-06
2380.23	7.04268e-09
2388.91	-4.67625e-07
2397.59	8.35708e-07
2406.27	2.36556e-07
2414.94	3.81702e-07
2423.62	9.32865e-08
2432.3	1.0759e-07
2440.98	2.83366e-07
2449.66	7.71116e-07
2458.33	-1.59668e-07
2467.01	1.85074e-07
2475.69	6.79532e-09
2484.37	1.17019e-07
2493.05	2.32365e-07
2501.73	-6.27032e-07
2510.4	4.04547e-07
2519.08	-1.89163e-07
2527.76	-9.72996e-07
2536.44	2.27985e-07
2545.12	-4.04867e-07
2553.79	2.18236e-07
2562.47	-4.7752e-07
2571.15	1.54473e-07
2579.83	3.75227e-07
2588.51	1.40647e-06
2597.19	-4.39673e-07
2605.86	-4.64206e-07
2614.54	4.1872e-07
2623.22	-6.44187e-07
2631.9	6.97037e-07
2640.58	-5.6826e-07
2649.25	1.42221e-07
2657.93	2.91253e-07
2666.61	1.70989e-07
2675.29	-1.30217e-07
2683.97	-1.12697e-07
2692.65	1.09715e-07
2701.32	4.012e-07
2710	1.38235e-07
2718.68	3.29406e-07
2727.36	-2.36308e-08
2736.04	-6.52903e-07
2744.71	4.57483e-08
2753.39	1.49512e-07
2762.07	7.25804e-08
2770.75	-9.74917e-09
2779.43	-1.13236e-07
2788.11	-3.81615e-07
2796.78	-2.02986e-07
2805.46	-9.23159e-07
2814.14	-1.73244e-07
2822.82	-5.53447e-07
2831.5	-7.48693e-07
2840.17	-3.32287e-07
2848.85	-1.73302e-07
2857.53	-6.43591e-08
2866.21	7.4814e-07
2874.89	-3.98552e-07
2883.57	1.26157e-08
2892.24	-1.17827e-06
2900.92	-6.14314e-07
2909.6	3.7821e-07
2918.28	7.42101e-10
2926.96	-1.11391e-06
2935.63	4.33547e-07
2944.31	-3.32214e-07
2952.99	-1.73273e-07
2961.67	-1.64426e-07
2970.35	4.77578e-07
2979.03	-1.21926e-06
2987.7	1.71018e-07
2996.38	-5.46259e-07
3005.06	1.89454e-08
3013.74	-1.08348e-06
3022.42	6.28079e-07
3031.09	2.46683e-07
3039.77	5.90771e-08
3048.45	1.01831e-06
3057.13	-6.67382e-07
3065.81	-1.08987e-07
3074.49	-5.47627e-07
3083.16	3.7594e-07
3091.84	4.95811e-07
3100.52	8.55293e-07
3109.2	4.38276e-08
3117.88	-4.61412e-08
3126.55	-6.36781e-07
3135.23	-1.64354e-07
3143.91	6.56468e-07
3152.59	-7.18819e-09
3161.27	1.72313e-07
3169.95	5.67111e-07
3178.62	1.30652e-06
3187.3	-6.45279e-07
3195.98	-3.63426e-07
3204.66	-5.8917e-07
3213.34	-4.70856e-07
3222.01	-1.37408e-06
3230.69	-4.77244e-07
3239.37	-1.3596e-06
3248.05	3.30599e-07
3256.73	1.29024e-07
3265.4	-3.3476e-07
3274.08	-1.09723e-06
3282.76	1.03682e-06
3291.44	-1.19371e-06
3300.12	6.36897e-08
3308.8	-1.35464e-06
3317.47	1.00815e-06
3326.15	4.18021e-07
3334.83	-2.25089e-07
3343.51	-1.65455e-06
3352.19	-3.25972e-07
3360.86	1.59949e-06
3369.54	4.12012e-07
3378.22	-4.73111e-07
3386.9	5.92473e-07
3395.58	-2.18309e-07
3404.26	-1.90982e-07
3412.93	1.44675e-06
3421.61	0
3430.29	-1.49957e-06
3438.97	9.73957e-07
3447.65	-1.80416e-06
3456.32	9.54982e-08
3465	1.74597e-07
3473.68	-1.36088e-06
3482.36	-1.85457e-06
3491.04	1.50612e-06
3499.72	7.7033e-07
3508.39	-1.60754e-06
3517.07	-5.71491e-07
3525.75	1.04692e-06
3534.43	1.33599e-06
3543.11	1.76314e-07
3551.78	-1.00227e-07
3560.46	5.50217e-07
3569.14	-1.26701e-06
3577.82	-3.09878e-07
3586.5	5.35681e-07
3595.18	7.24494e-07
3603.85	-1.47547e-07
3612.53	-1.10633e-06
3621.21	-7.81098e-08
3629.89	4.63915e-07
3638.57	5.07408e-07
3647.24	-2.87091e-07
3655.92	-1.21879e-07
3664.6	7.18034e-07
3673.28	-3.62887e-07
3681.96	-1.3722e-06
3690.64	1.37361e-07
3699.31	-3.06793e-07
3707.99	-6.51506e-07
3716.67	-2.40746e-07
3725.35	-6.74904e-07
3734.03	1.32881e-06
3742.7	-3.40639e-08
3751.38	7.06131e-07
3760.06	-9.05581e-07
3768.74	7.26997e-07
3777.42	1.83619e-07
3786.1	-1.13527e-06
3794.77	7.51923e-07
3803.45	-2.09651e-07
3812.13	7.26517e-07
3820.81	-7.48896e-07
3829.49	-8.86301e-08
3838.16	-2.58062e-07
3846.84	-3.94914e-08
3855.52	8.9413e-07
3864.2	-2.06755e-07
3872.88	-1.65023e-07
3881.56	-9.29896e-07
3890.23	-5.55848e-09
3898.91	8.96574e-07
3907.59	-2.63053e-07
3916.27	-1.00635e-07
3924.95	8.39418e-07
3933.62	4.03878e-07
3942.3	-4.80096e-07
3950.98	4.40386e-07
3959.66	-9.60075e-08
3968.34	1.125e-06
