Infrared Spectrum: Dichlorodifluoromethane
Formula: C Cl2 F2
CAS: 75-71-8
State: gas
Melting point: -158 C
Boiling point: -29.8 C
Class: IUPAC A
Instrument: IFS66V (Bruker)
Instrument parameters: KBr Beam Splitter; MCT Detector; Multipass cell
Sampling: 1 L/min Flow
Resolution: 0.4820
Temperature: 23 C
Pressure: 101.3 Pa
Origin: NIST, Analytical Chemistry Division, 301-975-3108
cm-1	(micromol/mol)-1m-1 (base 10)
575.17	-3.91421e-06
583.848	2.92473e-06
592.526	-2.82495e-06
601.205	-8.75866e-07
609.883	-6.66036e-07
618.561	-1.15017e-06
627.239	3.63693e-07
635.917	-1.00368e-06
644.595	2.97413e-06
653.274	2.61969e-05
661.952	5.45429e-05
670.63	7.34453e-05
679.308	4.76667e-05
687.986	6.39493e-06
696.664	-1.07919e-06
705.343	9.74076e-07
714.021	1.20831e-06
722.699	1.22013e-06
731.377	1.53217e-06
740.055	5.86488e-07
748.734	1.15188e-06
757.412	9.85179e-07
766.09	6.79052e-07
774.768	-4.23552e-07
783.446	-5.08309e-07
792.124	3.40054e-07
800.803	-3.88773e-07
809.481	2.22068e-07
818.159	1.09983e-06
826.837	1.79813e-06
835.515	3.10279e-06
844.193	6.47821e-06
852.872	1.97575e-05
861.55	6.91584e-05
870.228	0.000204456
878.906	0.000397604
887.584	0.00050893
896.263	0.000330769
904.941	0.000472121
913.619	0.00158269
922.297	0.00256591
930.975	0.00190538
939.653	9.38426e-05
948.332	2.9135e-06
957.01	6.48996e-07
965.688	5.75014e-08
974.366	3.05588e-08
983.044	7.82159e-09
991.723	-4.64166e-07
1000.4	-5.8806e-07
1009.08	-4.19979e-07
1017.76	-5.51593e-07
1026.44	1.73574e-07
1035.11	-2.11532e-07
1043.79	1.08753e-07
1052.47	2.80923e-06
1061.15	1.33387e-05
1069.83	4.77803e-05
1078.5	0.000215308
1087.18	0.00082279
1095.86	0.00146721
1104.54	0.00147734
1113.22	0.00101641
1121.9	0.000338836
1130.57	0.000257473
1139.25	0.000309482
1147.93	0.000890473
1156.61	0.00104666
1165.29	0.000614184
1173.96	0.000397246
1182.64	5.20278e-05
1191.32	8.12759e-06
1200	8.52052e-06
1208.68	8.53887e-06
1217.36	4.515e-06
1226.03	8.1055e-06
1234.71	1.18486e-05
1243.39	1.95555e-05
1252.07	8.54154e-06
1260.75	1.53464e-06
1269.42	1.66305e-07
1278.1	-5.56046e-07
1286.78	-2.10179e-07
1295.46	5.7265e-07
1304.14	2.47381e-09
1312.82	1.30864e-06
1321.49	2.04219e-06
1330.17	2.38196e-06
1338.85	3.43047e-06
1347.53	3.88425e-06
1356.21	5.68975e-06
1364.88	5.13845e-06
1373.56	6.97309e-06
1382.24	7.0497e-06
1390.92	5.13601e-06
1399.6	1.16454e-06
1408.28	2.62973e-07
1416.95	1.06395e-07
1425.63	-3.86787e-08
1434.31	7.3472e-08
1442.99	-4.27095e-09
1451.67	-5.43095e-07
1460.34	-2.969e-07
1469.02	1.42255e-06
1477.7	1.76678e-06
1486.38	6.5772e-07
1495.06	-5.0553e-08
1503.73	-3.80566e-07
1512.41	-2.59037e-07
1521.09	-1.41798e-06
1529.77	4.84269e-07
1538.45	4.35128e-07
1547.13	3.72497e-07
1555.8	5.97912e-07
1564.48	8.06643e-07
1573.16	2.14544e-06
1581.84	4.17514e-06
1590.52	3.61615e-06
1599.19	3.22638e-06
1607.87	-4.37791e-08
1616.55	-1.84803e-06
1625.23	-3.5804e-07
1633.91	-1.12449e-07
1642.59	-1.55129e-07
1651.26	-1.36627e-07
1659.94	-3.31788e-07
1668.62	-3.73305e-07
1677.3	-4.84138e-08
1685.98	-2.56577e-07
1694.65	-1.59349e-07
1703.33	-5.02939e-07
1712.01	-3.36074e-08
1720.69	-3.52663e-07
1729.37	-1.10106e-07
1738.05	-1.78114e-08
1746.72	1.69573e-06
1755.4	3.00431e-06
1764.08	3.1298e-06
1772.76	5.19361e-07
1781.44	2.90796e-07
1790.11	1.12503e-06
1798.79	2.26294e-06
1807.47	2.35321e-06
1816.15	1.78952e-06
1824.83	1.63691e-06
1833.51	1.90402e-06
1842.18	1.45242e-06
1850.86	8.76186e-07
1859.54	-7.25807e-07
1868.22	-7.87151e-07
1876.9	-3.25931e-07
1885.57	-1.79045e-07
1894.25	-2.32705e-07
1902.93	-5.31672e-07
1911.61	-2.03289e-08
1920.29	-1.89173e-10
1928.97	-2.96849e-07
1937.64	-2.08418e-07
1946.32	-2.65898e-07
1955	-1.70547e-07
1963.68	1.5155e-07
1972.36	1.67251e-07
1981.03	1.13366e-07
1989.71	4.31563e-07
1998.39	5.18786e-07
2007.07	5.91145e-07
2015.75	6.86729e-07
2024.43	3.62405e-07
2033.1	-2.64261e-08
2041.78	2.10361e-07
2050.46	2.36743e-07
2059.14	3.53965e-07
2067.82	1.55923e-08
2076.49	8.55573e-08
2085.17	3.05711e-07
2093.85	-2.71413e-07
2102.53	1.66778e-07
2111.21	-1.1576e-08
2119.89	-2.20518e-07
2128.56	-1.11023e-07
2137.24	1.50684e-07
2145.92	-9.61146e-09
2154.6	-4.10594e-07
2163.28	-2.07945e-08
2171.95	1.10147e-06
2180.63	3.41807e-06
2189.31	7.1237e-06
2197.99	6.11205e-06
2206.67	3.80885e-06
2215.35	1.95978e-06
2224.02	4.39648e-06
2232.7	1.05861e-05
2241.38	1.58133e-05
2250.06	3.70026e-05
2258.74	8.35735e-06
2267.41	2.01928e-06
2276.09	1.85869e-06
2284.77	6.3563e-07
2293.45	1.3685e-06
2302.13	4.04298e-06
2310.81	3.57392e-06
2319.48	4.54431e-06
2328.16	1.30051e-06
2336.84	-2.94521e-07
2345.52	-5.74963e-07
2354.2	2.1378e-07
2362.87	1.16839e-06
2371.55	1.22983e-06
2380.23	2.52634e-07
2388.91	-2.75087e-07
2397.59	5.07501e-07
2406.27	1.73676e-07
2414.94	1.94776e-07
2423.62	-1.45518e-09
2432.3	2.36409e-07
2440.98	3.30537e-07
2449.66	6.5697e-07
2458.33	1.11918e-07
2467.01	1.72533e-07
2475.69	1.4594e-07
2484.37	6.80297e-08
2493.05	1.15578e-07
2501.73	-5.02808e-07
2510.4	4.29649e-07
2519.08	-1.06781e-07
2527.76	-3.94303e-07
2536.44	1.88882e-07
2545.12	-3.90789e-08
2553.79	1.95074e-07
2562.47	2.94383e-08
2571.15	1.96253e-07
2579.83	2.17717e-07
2588.51	8.06715e-07
2597.19	-2.15978e-07
2605.86	-1.35354e-07
2614.54	1.93401e-07
2623.22	-3.14748e-07
2631.9	4.50007e-07
2640.58	-8.54191e-09
2649.25	1.20249e-07
2657.93	2.80915e-07
2666.61	1.57603e-07
2675.29	6.59779e-08
2683.97	2.29315e-07
2692.65	1.89814e-07
2701.32	-8.36656e-08
2710	2.04809e-07
2718.68	3.0748e-07
2727.36	9.47904e-08
2736.04	-4.48319e-07
2744.71	-1.01688e-07
2753.39	2.27408e-07
2762.07	2.6811e-07
2770.75	-2.91596e-07
2779.43	-3.19274e-07
2788.11	-3.88868e-07
2796.78	-1.55857e-07
2805.46	-4.20132e-07
2814.14	-2.45591e-07
2822.82	-4.203e-07
2831.5	-5.38933e-07
2840.17	-3.86954e-07
2848.85	-7.68408e-08
2857.53	-1.36634e-07
2866.21	6.33847e-07
2874.89	-3.26593e-07
2883.57	-5.85637e-08
2892.24	-6.30828e-07
2900.92	-2.44914e-07
2909.6	-2.4682e-07
2918.28	1.19579e-07
2926.96	-7.11605e-07
2935.63	2.91058e-07
2944.31	-4.08767e-07
2952.99	-1.92127e-07
2961.67	-3.90316e-07
2970.35	1.18386e-07
2979.03	-6.28769e-07
2987.7	6.76731e-08
2996.38	-4.25342e-07
3005.06	2.44689e-08
3013.74	-4.44892e-07
3022.42	5.12194e-07
3031.09	1.297e-07
3039.77	2.21842e-08
3048.45	4.5315e-07
3057.13	-2.7799e-07
3065.81	-3.49738e-07
3074.49	-4.21689e-07
3083.16	1.26601e-07
3091.84	1.3077e-07
3100.52	3.85062e-07
3109.2	-8.0406e-08
3117.88	1.23756e-07
3126.55	-2.99869e-07
3135.23	8.73981e-08
3143.91	2.42608e-07
3152.59	-1.69856e-07
3161.27	3.7791e-08
3169.95	3.3117e-07
3178.62	6.42695e-07
3187.3	-4.95343e-07
3195.98	-3.1987e-07
3204.66	-3.77445e-07
3213.34	6.40279e-10
3222.01	-9.90563e-07
3230.69	-1.246e-07
3239.37	-8.68837e-07
3248.05	1.8197e-08
3256.73	-3.71762e-07
3265.4	-3.19485e-08
3274.08	-4.08011e-07
3282.76	7.2054e-07
3291.44	-5.6183e-07
3300.12	1.69681e-07
3308.8	-5.3774e-07
3317.47	5.5689e-07
3326.15	3.18764e-07
3334.83	-2.41174e-07
3343.51	-7.77997e-07
3352.19	-1.40403e-07
3360.86	6.29991e-07
3369.54	6.02103e-07
3378.22	-2.47453e-07
3386.9	2.01659e-07
3395.58	-8.75655e-08
3404.26	-3.95285e-07
3412.93	7.0446e-07
3421.61	-4.61481e-07
3430.29	-1.01706e-06
3438.97	7.15672e-07
3447.65	-7.92426e-07
3456.32	-1.01768e-07
3465	5.36205e-07
3473.68	-4.32931e-07
3482.36	-1.1268e-06
3491.04	3.61183e-07
3499.72	3.67338e-07
3508.39	-9.10186e-07
3517.07	-5.96224e-07
3525.75	3.4303e-07
3534.43	7.87965e-07
3543.11	4.04438e-07
3551.78	-4.94761e-09
3560.46	3.62012e-07
3569.14	-6.69892e-07
3577.82	3.11809e-07
3586.5	1.00022e-07
3595.18	8.17797e-07
3603.85	1.06992e-07
3612.53	-4.27634e-07
3621.21	1.78602e-07
3629.89	7.17695e-08
3638.57	2.32108e-07
3647.24	-3.23909e-07
3655.92	-4.33724e-07
3664.6	5.62449e-07
3673.28	-5.22752e-07
3681.96	-4.69878e-07
3690.64	8.07552e-08
3699.31	5e-08
3707.99	-2.87842e-07
3716.67	-2.55893e-08
3725.35	-2.33556e-09
3734.03	6.90992e-07
3742.7	2.74025e-07
3751.38	2.88628e-07
3760.06	-2.36023e-07
3768.74	9.46667e-07
3777.42	5.94507e-07
3786.1	-2.4188e-07
3794.77	2.75713e-07
3803.45	2.63751e-08
3812.13	8.17986e-07
3820.81	-4.08294e-07
3829.49	9.26004e-08
3838.16	-8.67375e-07
3846.84	2.13824e-07
3855.52	5.3058e-07
3864.2	1.00859e-07
3872.88	1.74396e-07
3881.56	-3.30137e-07
3890.23	-9.55398e-08
3898.91	2.95642e-07
3907.59	6.13577e-08
3916.27	3.73617e-08
3924.95	4.80049e-07
3933.62	3.95911e-07
3942.3	-1.55937e-07
3950.98	8.16203e-07
3959.66	-1.47563e-07
3968.34	5.88198e-07
