Infrared Spectrum: Dichlorodifluoromethane
Formula: C Cl2 F2
CAS: 75-71-8
State: gas
Melting point: -158 C
Boiling point: -29.8 C
Class: IUPAC A
Instrument: IFS66V (Bruker)
Instrument parameters: KBr Beam Splitter; MCT Detector; Multipass cell
Sampling: 1 L/min Flow
Resolution: 0.9640
Temperature: 23 C
Pressure: 101.3 Pa
Origin: NIST, Analytical Chemistry Division, 301-975-3108
cm-1	(micromol/mol)-1m-1 (base 10)
575.17	-2.9326e-06
583.848	1.64849e-06
592.526	-2.6714e-06
601.205	-6.80253e-07
609.883	2.04889e-07
618.561	-1.6749e-06
627.239	-1.55384e-07
635.917	-2.59517e-07
644.595	3.59013e-06
653.274	2.60387e-05
661.952	5.46145e-05
670.63	7.4275e-05
679.308	4.6711e-05
687.986	6.58772e-06
696.664	-4.56905e-07
705.343	9.61758e-07
714.021	1.0419e-06
722.699	1.27067e-06
731.377	1.27897e-06
740.055	5.64952e-07
748.734	1.19857e-06
757.412	1.03984e-06
766.09	9.73064e-07
774.768	-3.01164e-07
783.446	-5.4308e-07
792.124	-1.01564e-07
800.803	-4.75131e-07
809.481	-6.24854e-08
818.159	9.5761e-07
826.837	1.97406e-06
835.515	3.18616e-06
844.194	6.66661e-06
852.872	1.95647e-05
861.55	6.95067e-05
870.228	0.000204796
878.906	0.000398372
887.584	0.000502409
896.263	0.000330933
904.941	0.000473311
913.619	0.0015801
922.297	0.00284563
930.975	0.00190058
939.653	9.40416e-05
948.332	2.56395e-06
957.01	4.7898e-07
965.688	8.0777e-08
974.366	-5.37907e-08
983.044	-2.44594e-07
991.723	-5.1616e-07
1000.4	-5.34568e-07
1009.08	-5.4869e-07
1017.76	-5.07931e-07
1026.44	-2.81723e-08
1035.11	-1.43895e-07
1043.79	3.86867e-07
1052.47	2.75451e-06
1061.15	1.34276e-05
1069.83	4.77862e-05
1078.5	0.000215323
1087.18	0.000822444
1095.86	0.00146705
1104.54	0.00149981
1113.22	0.00101678
1121.9	0.000337048
1130.57	0.000261586
1139.25	0.000309837
1147.93	0.000888545
1156.61	0.00105989
1165.29	0.000614176
1173.96	0.000397013
1182.64	5.20829e-05
1191.32	7.96687e-06
1200	8.66053e-06
1208.68	7.89373e-06
1217.36	4.36602e-06
1226.03	7.85114e-06
1234.71	1.2126e-05
1243.39	1.94556e-05
1252.07	8.4757e-06
1260.75	1.25125e-06
1269.42	7.02779e-08
1278.1	-5.14763e-07
1286.78	-1.45925e-07
1295.46	3.61983e-07
1304.14	2.91938e-07
1312.82	1.30623e-06
1321.49	1.90113e-06
1330.17	2.27597e-06
1338.85	3.00688e-06
1347.53	3.85864e-06
1356.21	6.00774e-06
1364.88	5.2464e-06
1373.56	7.16443e-06
1382.24	7.06342e-06
1390.92	5.07149e-06
1399.6	1.02891e-06
1408.28	2.21384e-07
1416.95	-1.78187e-08
1425.63	-1.2078e-09
1434.31	-1.26892e-08
1442.99	1.26964e-08
1451.67	-5.1915e-07
1460.34	-3.93626e-09
1469.02	1.2016e-06
1477.7	1.44224e-06
1486.38	6.32749e-07
1495.06	-8.14755e-08
1503.73	-2.52612e-07
1512.41	-2.08775e-07
1521.09	-8.85673e-07
1529.77	5.16036e-07
1538.45	1.54024e-07
1547.13	3.88264e-07
1555.8	4.77641e-07
1564.48	7.61459e-07
1573.16	2.10605e-06
1581.84	4.19517e-06
1590.52	4.31382e-06
1599.19	3.21893e-06
1607.87	-1.14384e-07
1616.55	-1.42992e-06
1625.23	-3.85615e-07
1633.91	-6.9674e-08
1642.59	-1.11299e-07
1651.26	-3.43663e-07
1659.94	-2.57276e-07
1668.62	-4.54533e-07
1677.3	-8.64668e-08
1685.98	-1.86656e-07
1694.65	-2.89828e-07
1703.33	-4.04947e-07
1712.01	-1.85892e-07
1720.69	-8.20649e-08
1729.37	-1.85303e-07
1738.05	6.33658e-08
1746.72	1.63679e-06
1755.4	2.90065e-06
1764.08	3.14e-06
1772.76	9.96849e-07
1781.44	4.69179e-07
1790.11	1.11916e-06
1798.79	2.26607e-06
1807.47	2.44496e-06
1816.15	1.82008e-06
1824.83	1.53546e-06
1833.51	1.98258e-06
1842.18	1.37225e-06
1850.86	8.00691e-07
1859.54	-7.96864e-07
1868.22	-7.50938e-07
1876.9	-3.92295e-07
1885.57	-1.59677e-07
1894.25	-2.01935e-07
1902.93	-3.0008e-07
1911.61	5.8862e-09
1920.29	-1.05384e-07
1928.97	-1.88926e-07
1937.64	-1.92615e-07
1946.32	-8.78929e-08
1955	-9.23239e-08
1963.68	9.9236e-08
1972.36	2.19718e-07
1981.03	1.31694e-08
1989.71	2.66771e-07
1998.39	3.80428e-07
2007.07	5.60812e-07
2015.75	6.87063e-07
2024.43	3.13788e-07
2033.1	6.03318e-08
2041.78	2.39239e-07
2050.46	1.82014e-07
2059.14	2.23232e-07
2067.82	4.53143e-08
2076.49	1.61358e-07
2085.17	2.11605e-07
2093.85	-1.88024e-07
2102.53	-1.69892e-08
2111.21	-7.82814e-08
2119.89	-2.38962e-07
2128.56	-6.88009e-08
2137.24	4.61874e-08
2145.92	-8.07043e-08
2154.6	-2.24643e-07
2163.28	2.56403e-08
2171.95	9.70212e-07
2180.63	3.40461e-06
2189.31	6.96845e-06
2197.99	6.06918e-06
2206.67	3.80386e-06
2215.35	1.9512e-06
2224.02	4.30205e-06
2232.7	1.05288e-05
2241.38	1.58261e-05
2250.06	3.49221e-05
2258.74	8.58729e-06
2267.41	2.1717e-06
2276.09	1.76448e-06
2284.77	5.22853e-07
2293.45	1.35402e-06
2302.13	3.93876e-06
2310.81	3.88949e-06
2319.48	4.75987e-06
2328.16	1.50244e-06
2336.84	-2.90367e-07
2345.52	-6.08505e-07
2354.2	3.92389e-08
2362.87	8.86707e-07
2371.55	8.50276e-07
2380.23	3.45773e-07
2388.91	-7.55166e-08
2397.59	2.4081e-07
2406.27	2.11845e-07
2414.94	2.06461e-07
2423.62	-6.31548e-09
2432.3	2.13344e-07
2440.98	2.69565e-07
2449.66	4.2249e-07
2458.33	1.83433e-07
2467.01	1.99709e-07
2475.69	2.16858e-07
2484.37	6.3475e-08
2493.05	7.83833e-08
2501.73	-2.75102e-07
2510.4	3.60353e-07
2519.08	6.1183e-08
2527.76	-1.664e-07
2536.44	1.86831e-07
2545.12	1.17848e-07
2553.79	1.70394e-07
2562.47	1.24964e-07
2571.15	2.56585e-07
2579.83	1.36714e-07
2588.51	3.89093e-07
2597.19	-1.49542e-07
2605.86	9.94324e-08
2614.54	6.99068e-08
2623.22	-2.8838e-07
2631.9	2.33716e-07
2640.58	1.54562e-07
2649.25	1.08302e-07
2657.93	2.55231e-07
2666.61	3.07916e-08
2675.29	1.08105e-07
2683.97	3.11117e-07
2692.65	2.20955e-07
2701.32	-2.65265e-07
2710	1.73501e-07
2718.68	2.43641e-07
2727.36	7.55748e-08
2736.04	-2.73094e-07
2744.71	-1.89348e-07
2753.39	1.22548e-07
2762.07	6.40643e-08
2770.75	-2.13235e-07
2779.43	-3.36467e-07
2788.11	-1.60535e-07
2796.78	-3.3448e-07
2805.46	-1.49854e-07
2814.14	-2.97977e-07
2822.82	-2.96886e-07
2831.5	-5.95998e-07
2840.17	-3.78172e-07
2848.85	-2.08913e-07
2857.53	-4.41356e-08
2866.21	4.24425e-07
2874.89	-2.85303e-07
2883.57	-6.67564e-08
2892.24	-4.51601e-07
2900.92	-1.34466e-07
2909.6	-4.22781e-07
2918.28	-4.55471e-08
2926.96	-5.09546e-07
2935.63	3.6314e-08
2944.31	-3.36183e-07
2952.99	-2.19812e-07
2961.67	-4.78711e-07
2970.35	-1.90338e-08
2979.03	-4.22075e-07
2987.7	9.21565e-08
2996.38	-2.29104e-07
3005.06	-2.30508e-07
3013.74	-1.82953e-07
3022.42	3.66138e-07
3031.09	9.65657e-08
3039.77	-1.41756e-07
3048.45	1.52743e-07
3057.13	-7.14275e-08
3065.81	-4.40228e-07
3074.49	-2.15752e-07
3083.16	-4.43102e-09
3091.84	5.00582e-09
3100.52	1.57167e-07
3109.2	-1.78434e-07
3117.88	2.66589e-08
3126.55	3.64595e-08
3135.23	1.34088e-07
3143.91	3.03623e-08
3152.59	-1.43408e-07
3161.27	-1.69179e-07
3169.95	2.31345e-07
3178.62	3.12987e-07
3187.3	-1.00829e-07
3195.98	-4.70904e-07
3204.66	-2.05995e-07
3213.34	-1.47046e-08
3222.01	-6.76651e-07
3230.69	-1.19528e-07
3239.37	-5.69237e-07
3248.05	-5.58062e-09
3256.73	-3.78849e-07
3265.41	-9.64421e-08
3274.08	-9.85521e-08
3282.76	5.74403e-07
3291.44	-1.33571e-07
3300.12	1.9821e-07
3308.8	-2.47788e-07
3317.47	2.40898e-07
3326.15	3.207e-07
3334.83	-2.0219e-07
3343.51	-3.60936e-07
3352.19	-3.47788e-08
3360.86	2.24214e-07
3369.54	2.68728e-07
3378.22	-1.67426e-07
3386.9	1.7826e-08
3395.58	-1.69579e-07
3404.26	-3.60434e-07
3412.93	1.0916e-07
3421.61	-4.07647e-07
3430.29	-6.97897e-07
3438.97	3.96442e-07
3447.65	-3.62711e-07
3456.32	-2.50073e-08
3465	3.24971e-07
3473.68	-5.98516e-08
3482.36	-7.96682e-07
3491.04	-4.26004e-08
3499.72	2.56606e-07
3508.39	-6.43932e-07
3517.07	-7.14588e-07
3525.75	-3.82931e-08
3534.43	3.73836e-07
3543.11	6.00043e-07
3551.78	-1.40258e-07
3560.46	2.10688e-07
3569.14	-3.35128e-07
3577.82	3.92702e-07
3586.5	2.22548e-07
3595.18	5.66858e-07
3603.85	3.50196e-07
3612.53	4.11525e-08
3621.21	2.59058e-07
3629.89	2.1151e-08
3638.57	1.66633e-07
3647.24	-2.64712e-07
3655.92	-6.05369e-07
3664.6	5.08811e-07
3673.28	-4.08425e-07
3681.96	-1.67346e-10
3690.64	-1.24512e-07
3699.31	2.37747e-07
3707.99	1.30843e-07
3716.67	3.887e-07
3725.35	3.64064e-07
3734.03	4.79649e-07
3742.7	2.96347e-07
3751.38	4.44849e-08
3760.06	1.54024e-07
3768.74	1.06918e-06
3777.42	6.04191e-07
3786.1	1.703e-07
3794.77	1.69696e-07
3803.45	2.39122e-07
3812.13	4.797e-07
3820.81	-1.26841e-07
3829.49	1.29176e-07
3838.16	-9.42549e-07
3846.84	1.80595e-07
3855.52	2.29438e-07
3864.2	1.73632e-07
3872.88	3.19237e-07
3881.56	3.02241e-08
3890.23	-1.75728e-07
3898.91	-1.32014e-07
3907.59	2.85805e-07
3916.27	2.711e-08
3924.95	2.08782e-07
3933.62	3.20445e-07
3942.3	9.08687e-08
3950.98	7.0486e-07
3959.66	-3.75727e-08
3968.34	4.37885e-07
