Infrared Spectrum: Carbon tetrafluoride
Formula: C F4
CAS: 75-73-0
State: gas
Melting point: -150 C
Boiling point: -129 C
Class: IUPAC A
Instrument: IFS66V (Bruker)
Instrument parameters: KBr Beam Splitter; MCT Detector; Multipass cell
Sampling: 1 L/min Flow
Resolution: 0.9640
Temperature: 23 C
Pressure: 101.3 Pa
Origin: NIST, Analytical Chemistry Division, 301-975-3108
cm-1	(micromol/mol)-1m-1 (base 10)
575.168	-9.8166e-05
583.846	-1.38856e-05
592.524	-7.72919e-06
601.202	-1.39324e-05
609.881	-1.22483e-05
618.559	-4.14882e-06
627.237	-3.70531e-05
635.915	-3.44386e-05
644.593	-2.10367e-05
653.271	-3.31803e-06
661.949	-3.26544e-05
670.628	-2.69938e-05
679.306	-2.82625e-05
687.984	-4.18186e-05
696.662	-4.25142e-05
705.34	-1.41492e-05
714.018	-2.50729e-05
722.697	-2.43905e-05
731.375	-3.35175e-05
740.053	-3.03785e-05
748.731	-2.83062e-05
757.409	-2.78235e-05
766.087	-2.52915e-05
774.765	-2.59334e-05
783.444	-3.7428e-05
792.122	-3.30979e-05
800.8	-2.98051e-05
809.478	-2.58177e-05
818.156	-3.64724e-05
826.834	-3.16416e-05
835.512	-4.07992e-05
844.191	-3.42493e-05
852.869	-2.90788e-05
861.547	-2.36919e-05
870.225	-3.40229e-05
878.903	-2.37912e-05
887.581	-3.44826e-05
896.26	-2.23148e-05
904.938	-3.02388e-05
913.616	-3.62427e-05
922.294	-3.45247e-05
930.972	-2.99948e-05
939.65	-3.94812e-05
948.328	-2.38026e-05
957.007	-3.58208e-05
965.685	-2.76771e-05
974.363	-2.15599e-05
983.041	-2.64145e-05
991.719	-3.08642e-05
1000.4	-2.3201e-05
1009.08	-2.67311e-05
1017.75	-2.5823e-05
1026.43	-2.88284e-05
1035.11	-3.33872e-05
1043.79	-2.43955e-05
1052.47	-2.32447e-05
1061.14	-1.93554e-05
1069.82	-2.39213e-05
1078.5	-2.74052e-05
1087.18	-3.35988e-05
1095.86	-2.3682e-05
1104.54	-1.93806e-05
1113.21	-3.21826e-05
1121.89	-2.43805e-05
1130.57	-3.40975e-05
1139.25	-2.69436e-05
1147.93	-2.79103e-05
1156.6	-2.89793e-05
1165.28	-2.83046e-05
1173.96	-2.39928e-05
1182.64	-3.02381e-05
1191.32	-3.15093e-05
1199.99	-2.2051e-05
1208.67	-1.94438e-05
1217.35	-2.21224e-05
1226.03	-1.86072e-05
1234.71	3.69153e-05
1243.39	0.000342804
1252.06	0.000208342
1260.74	0.000680133
1269.42	0.00111565
1278.1	0.010781
1286.78	0.00513041
1295.45	-5.39963e-06
1304.13	-4.02212e-05
1312.81	-3.26714e-05
1321.49	-4.11259e-05
1330.17	-3.51986e-05
1338.85	-2.87805e-05
1347.52	-3.82553e-05
1356.2	6.79858e-07
1364.88	-3.47979e-05
1373.56	-2.83478e-05
1382.24	-3.56119e-05
1390.91	-3.57302e-05
1399.59	-2.31231e-05
1408.27	-3.01949e-05
1416.95	-3.08471e-05
1425.63	-2.65139e-05
1434.3	-3.39233e-05
1442.98	-3.37202e-05
1451.66	-3.03941e-05
1460.34	-2.87639e-05
1469.02	-2.8304e-05
1477.7	-2.59553e-05
1486.37	-2.56129e-05
1495.05	-2.5055e-05
1503.73	-2.37057e-05
1512.41	-7.41662e-06
1521.09	3.02177e-05
1529.76	-1.11907e-05
1538.44	9.90587e-05
1547.12	-2.52672e-05
1555.8	-9.55229e-06
1564.48	-1.42229e-05
1573.16	-2.77712e-05
1581.83	-2.97033e-05
1590.51	-3.61865e-05
1599.19	-2.71856e-05
1607.87	-2.63596e-05
1616.55	8.89874e-06
1625.22	-3.34091e-05
1633.9	-2.65805e-05
1642.58	-2.52617e-05
1651.26	-2.72254e-05
1659.94	-2.48474e-05
1668.61	-2.0177e-05
1677.29	-2.81913e-05
1685.97	-2.43115e-05
1694.65	-1.78008e-05
1703.33	-2.51417e-05
1712.01	-3.07835e-05
1720.68	-2.5901e-05
1729.36	-2.49022e-05
1738.04	-2.69815e-05
1746.72	-2.62919e-05
1755.4	-3.07382e-05
1764.07	-3.46141e-05
1772.75	-2.07712e-06
1781.43	-2.77393e-05
1790.11	-2.7886e-05
1798.79	-2.78164e-05
1807.47	-2.43564e-05
1816.14	-2.2991e-05
1824.82	-2.19703e-05
1833.5	-2.68601e-05
1842.18	-3.10143e-05
1850.86	-3.32583e-05
1859.53	-3.18951e-05
1868.21	-2.66961e-05
1876.89	-2.91456e-05
1885.57	-2.45579e-05
1894.25	-2.6062e-05
1902.92	-2.79719e-05
1911.6	-2.19662e-05
1920.28	-2.50085e-05
1928.96	-2.51869e-05
1937.64	-2.82515e-05
1946.32	-2.75917e-05
1954.99	-2.90081e-05
1963.67	-2.53861e-05
1972.35	-2.93626e-05
1981.03	-2.91876e-05
1989.71	-2.97607e-05
1998.38	-3.17395e-05
2007.06	-2.77289e-05
2015.74	-2.4935e-05
2024.42	-3.10853e-05
2033.1	-3.15553e-05
2041.78	-2.94988e-05
2050.45	-2.63611e-05
2059.13	-3.06123e-05
2067.81	-2.7955e-05
2076.49	-3.46672e-05
2085.17	-3.06076e-05
2093.84	-2.67555e-05
2102.52	-2.99053e-05
2111.2	-2.73563e-05
2119.88	-2.90444e-05
2128.56	-2.74734e-05
2137.23	-2.78749e-05
2145.91	-2.32109e-05
2154.59	-3.08295e-05
2163.27	-2.4822e-05
2171.95	-1.61109e-05
2180.63	2.57633e-05
2189.3	9.48658e-06
2197.98	-2.47863e-05
2206.66	-2.94798e-05
2215.34	-2.93111e-05
2224.02	-2.45497e-05
2232.69	-2.90256e-05
2241.37	-2.45758e-05
2250.05	-2.68554e-05
2258.73	-2.64319e-05
2267.41	-2.63579e-05
2276.09	-2.67028e-05
2284.76	-2.78337e-05
2293.44	-2.57221e-05
2302.12	-2.48103e-05
2310.8	-2.07647e-05
2319.48	-2.02956e-05
2328.15	-1.8714e-05
2336.83	-1.68732e-05
2345.51	-1.9525e-05
2354.19	-1.66203e-05
2362.87	-8.48326e-06
2371.54	-1.93454e-05
2380.22	-2.26227e-05
2388.9	-2.82468e-05
2397.58	-2.4073e-05
2406.26	-3.18104e-05
2414.94	-2.75118e-05
2423.61	-2.52501e-05
2432.29	-2.72962e-05
2440.97	-3.03109e-05
2449.65	-2.50039e-05
2458.33	-2.37045e-05
2467	-2.82374e-05
2475.68	-2.74553e-05
2484.36	-2.85007e-05
2493.04	-3.06505e-05
2501.72	-2.57466e-05
2510.4	-3.07324e-05
2519.07	-2.62774e-05
2527.75	-2.56175e-05
2536.43	-1.66215e-05
2545.11	-2.64935e-05
2553.79	-6.05949e-05
2562.46	-9.63287e-05
2571.14	-9.84801e-05
2579.82	-1.80868e-05
2588.5	-1.83745e-05
2597.18	-2.01899e-05
2605.85	-1.96747e-05
2614.53	-1.85865e-05
2623.21	-2.50003e-05
2631.89	-2.52189e-05
2640.57	-1.92668e-05
2649.25	-2.15163e-05
2657.92	-2.97137e-05
2666.6	-2.76132e-05
2675.28	-2.2776e-05
2683.96	-2.39349e-05
2692.64	-3.01478e-05
2701.31	-2.43741e-05
2709.99	-1.69823e-05
2718.67	-2.21457e-05
2727.35	-2.49632e-05
2736.03	-1.79643e-05
2744.71	-2.80991e-05
2753.38	-1.92859e-05
2762.06	-2.60347e-05
2770.74	-2.28918e-05
2779.42	-3.03782e-05
2788.1	-2.82262e-05
2796.77	-2.31755e-05
2805.45	-2.53933e-05
2814.13	-2.74676e-05
2822.81	-2.53849e-05
2831.49	-2.52021e-05
2840.17	-1.85774e-05
2848.84	-2.27278e-05
2857.52	-1.94136e-05
2866.2	-2.35985e-05
2874.88	-2.0411e-05
2883.56	-2.35841e-05
2892.23	-2.27033e-05
2900.91	-2.33469e-05
2909.59	-1.37723e-05
2918.27	-2.52306e-05
2926.95	-2.57215e-05
2935.62	-2.38952e-05
2944.3	-2.97609e-05
2952.98	-1.57967e-05
2961.66	-2.45646e-05
2970.34	-3.00689e-05
2979.02	-2.9892e-05
2987.69	-2.30255e-05
2996.37	-2.01122e-05
3005.05	-2.4317e-05
3013.73	-2.79913e-05
3022.41	-2.59079e-05
3031.08	-3.09602e-05
3039.76	-2.7928e-05
3048.44	-2.16312e-05
3057.12	-2.28748e-05
3065.8	-1.78272e-05
3074.48	-1.90747e-05
3083.15	-1.68141e-05
3091.83	-2.41646e-05
3100.51	-1.88918e-05
3109.19	-2.05503e-05
3117.87	-1.38915e-05
3126.54	-1.90579e-05
3135.22	-1.44726e-05
3143.9	-2.50972e-05
3152.58	-2.58744e-05
3161.26	-2.22278e-05
3169.93	-1.8123e-05
3178.61	-1.40974e-05
3187.29	-2.58979e-05
3195.97	-1.72516e-05
3204.65	-2.33896e-05
3213.33	-2.14503e-05
3222	-1.88756e-05
3230.68	-1.95039e-05
3239.36	-1.76423e-05
3248.04	-2.32996e-05
3256.72	-2.83015e-05
3265.39	-2.20918e-05
3274.07	-1.99689e-05
3282.75	-1.76917e-05
3291.43	-1.84733e-05
3300.11	-2.64363e-05
3308.79	-1.94117e-05
3317.46	-3.30483e-05
3326.14	-2.43419e-05
3334.82	-2.32666e-05
3343.5	-2.19658e-05
3352.18	-1.6298e-05
3360.85	-1.612e-05
3369.53	-2.49025e-05
3378.21	-2.22843e-05
3386.89	-1.9053e-05
3395.57	-2.32195e-05
3404.24	-1.66548e-05
3412.92	-1.92513e-05
3421.6	-9.6846e-06
3430.28	-1.85368e-05
3438.96	-9.31079e-06
3447.64	-2.24569e-05
3456.31	-2.44078e-05
3464.99	-8.87284e-06
3473.67	-2.44258e-05
3482.35	-2.57918e-05
3491.03	-2.08148e-05
3499.7	-1.30201e-05
3508.38	-1.43442e-05
3517.06	-2.90746e-05
3525.74	-2.03014e-05
3534.42	-1.5561e-05
3543.1	-2.44475e-05
3551.77	-1.60696e-05
3560.45	-2.41891e-05
3569.13	-2.18621e-05
3577.81	-2.1661e-05
3586.49	-1.47432e-05
3595.16	-2.82728e-05
3603.84	-2.06054e-05
3612.52	-7.46807e-06
3621.2	-2.09308e-05
3629.88	-3.4146e-06
3638.55	-1.19004e-05
3647.23	-7.3626e-06
3655.91	-2.12904e-06
3664.59	-8.98995e-06
3673.27	-2.32213e-05
3681.95	-2.33219e-05
3690.62	-8.1307e-06
3699.3	-1.74669e-05
3707.98	-2.22001e-05
3716.66	-2.45587e-05
3725.34	-1.67982e-05
3734.01	-2.03512e-05
3742.69	-1.91083e-05
3751.37	-1.38762e-05
3760.05	-1.65797e-06
3768.73	-1.65879e-05
3777.41	-1.88498e-05
3786.08	-2.06945e-05
3794.76	-2.59692e-05
3803.44	-1.52958e-05
3812.12	-1.25087e-05
3820.8	-8.71202e-06
3829.47	-2.13203e-05
3838.15	-1.92368e-06
3846.83	-2.45953e-05
3855.51	-3.6952e-05
3864.19	-1.38093e-05
3872.86	-2.17102e-05
3881.54	-1.86279e-05
3890.22	-1.58499e-05
3898.9	-1.88593e-05
3907.58	-1.00252e-05
3916.26	-1.44421e-05
3924.93	-1.54586e-05
3933.61	-1.81517e-05
3942.29	-1.62644e-05
3950.97	-1.52292e-05
3959.65	-1.63167e-05
3968.32	-1.77532e-05
