Infrared Spectrum: Dichlorodifluoromethane
Formula: C Cl2 F2
CAS: 75-71-8
State: gas
Melting point: -158 C
Boiling point: -29.8 C
Class: IUPAC A
Instrument: IFS66V (Bruker)
Instrument parameters: KBr Beam Splitter; MCT Detector; Multipass cell
Sampling: 1 L/min Flow
Resolution: 0.2410
Temperature: 23 C
Pressure: 101.3 Pa
Origin: NIST, Analytical Chemistry Division, 301-975-3108
cm-1	(micromol/mol)-1m-1 (base 10)
575.05	-1.27192e-06
583.608	8.77942e-06
592.165	-5.80541e-07
600.723	4.40241e-07
609.281	1.23231e-06
617.838	-1.80466e-06
626.396	-5.63415e-07
634.954	1.34405e-06
643.511	6.42351e-06
652.069	1.99945e-05
660.626	4.66303e-05
669.184	7.99623e-05
677.742	5.26247e-05
686.299	9.5253e-06
694.857	5.90581e-07
703.415	-4.28076e-07
711.972	-1.78424e-07
720.53	2.56121e-06
729.088	8.90812e-07
737.645	-1.00723e-06
746.203	6.44522e-07
754.761	9.64877e-08
763.318	1.5242e-06
771.876	-6.35078e-07
780.434	7.15429e-07
788.991	6.98419e-07
797.549	7.75437e-07
806.106	-5.50217e-07
814.664	3.65739e-07
823.222	1.25642e-06
831.779	4.32335e-06
840.337	9.02155e-06
848.895	1.3445e-05
857.452	3.79428e-05
866.01	0.000123864
874.568	0.000312069
883.125	0.000524338
891.683	0.000515942
900.241	0.000282134
908.798	0.000931848
917.356	0.00161262
925.914	0.00175748
934.471	0.000903286
943.029	1.67823e-05
951.586	1.81209e-06
960.144	8.64984e-07
968.702	-7.73677e-08
977.259	3.98887e-07
985.817	-2.00542e-07
994.375	-3.62756e-07
1002.93	-1.16052e-06
1011.49	-1.81992e-06
1020.05	-5.32203e-07
1028.61	9.04825e-07
1037.16	-5.16182e-07
1045.72	1.80898e-06
1054.28	4.18354e-06
1062.84	1.65127e-05
1071.39	6.23267e-05
1079.95	0.00028124
1088.51	0.000942045
1097.07	0.00158727
1105.62	0.00129332
1114.18	0.000897674
1122.74	0.000316479
1131.3	0.00023686
1139.85	0.000334605
1148.41	0.000905394
1156.97	0.00117142
1165.53	0.00061318
1174.09	0.000390571
1182.64	5.18732e-05
1191.2	8.78137e-06
1199.76	8.03591e-06
1208.32	9.4795e-06
1216.87	3.7692e-06
1225.43	7.05984e-06
1233.99	1.22085e-05
1242.55	2.01394e-05
1251.1	9.52791e-06
1259.66	1.94567e-06
1268.22	1.45685e-07
1276.78	-7.37808e-07
1285.33	-8.52849e-07
1293.89	5.45008e-07
1302.45	5.48587e-07
1311.01	1.25441e-06
1319.57	1.90991e-06
1328.12	2.32432e-06
1336.68	2.56435e-06
1345.24	3.88323e-06
1353.8	3.88906e-06
1362.35	6.21095e-06
1370.91	5.02875e-06
1379.47	7.30844e-06
1388.03	5.94437e-06
1396.58	1.62573e-06
1405.14	-3.11595e-07
1413.7	3.27106e-08
1422.26	-6.62289e-07
1430.81	-6.34686e-07
1439.37	5.67489e-08
1447.93	-1.07231e-06
1456.49	-2.00872e-06
1465.05	-2.50103e-07
1473.6	-3.32549e-07
1482.16	1.26029e-06
1490.72	-3.86344e-07
1499.28	-4.38174e-07
1507.83	-9.08419e-08
1516.39	2.93639e-08
1524.95	-2.2685e-08
1533.51	-3.84859e-07
1542.06	-7.75583e-07
1550.62	5.58526e-07
1559.18	5.3782e-07
1567.74	1.02603e-06
1576.29	7.19794e-07
1584.85	5.15372e-06
1593.41	5.16083e-06
1601.97	7.12475e-07
1610.53	6.92526e-07
1619.08	5.736e-08
1627.64	-8.26264e-07
1636.2	-4.01913e-07
1644.76	-2.94934e-07
1653.31	-3.51263e-06
1661.87	-6.43198e-07
1670.43	-2.34766e-07
1678.99	-1.8714e-07
1687.54	6.61052e-08
1696.1	-2.19041e-06
1704.66	-2.83424e-07
1713.22	4.22707e-08
1721.77	-3.53604e-07
1730.33	7.76136e-07
1738.89	2.80223e-07
1747.45	1.21418e-06
1756.01	3.13516e-06
1764.56	3.2779e-06
1773.12	2.074e-06
1781.68	6.96163e-07
1790.24	1.14927e-06
1798.79	2.14592e-06
1807.35	2.4003e-06
1815.91	1.25086e-06
1824.47	1.1143e-06
1833.02	2.51e-06
1841.58	1.12708e-06
1850.14	6.03037e-07
1858.7	-5.85576e-07
1867.25	-9.08215e-07
1875.81	-2.53842e-07
1884.37	4.57396e-07
1892.93	-2.12736e-08
1901.49	-5.117e-07
1910.04	4.45261e-07
1918.6	1.11577e-07
1927.16	-1.19842e-07
1935.72	-5.9499e-08
1944.27	1.97282e-07
1952.83	1.12654e-07
1961.39	5.52065e-08
1969.95	-1.93819e-08
1978.5	1.81582e-07
1987.06	1.89017e-07
1995.62	1.75441e-07
2004.18	4.92566e-07
2012.73	8.08002e-07
2021.29	8.43943e-07
2029.85	3.40348e-07
2038.41	6.53558e-07
2046.97	-9.32719e-08
2055.52	5.78984e-08
2064.08	2.65818e-07
2072.64	2.06813e-07
2081.2	-6.87447e-07
2089.75	-3.97897e-07
2098.31	-2.28669e-07
2106.87	-3.19394e-07
2115.43	-9.91301e-07
2123.98	7.98995e-08
2132.54	-1.22505e-07
2141.1	6.71121e-07
2149.66	-1.72633e-07
2158.21	-3.27136e-07
2166.77	5.86769e-07
2175.33	2.28455e-06
2183.89	4.54607e-06
2192.45	7.46573e-06
2201	6.9681e-06
2209.56	2.33117e-06
2218.12	2.64172e-06
2226.68	6.02419e-06
2235.23	1.24134e-05
2243.79	1.66951e-05
2252.35	1.10236e-05
2260.91	6.79948e-06
2269.46	2.16026e-06
2278.02	2.0068e-06
2286.58	5.89505e-07
2295.14	1.51768e-06
2303.69	5.02868e-06
2312.25	8.18716e-06
2320.81	3.96442e-06
2329.37	1.05211e-06
2337.93	-4.17454e-07
2346.48	-4.78641e-07
2355.04	-5.46521e-07
2363.6	5.03654e-07
2372.16	4.66607e-07
2380.71	6.54839e-07
2389.27	1.39282e-07
2397.83	2.61263e-07
2406.39	3.36579e-07
2414.94	2.82624e-07
2423.5	-2.01677e-08
2432.06	4.53496e-07
2440.62	1.86864e-07
2449.17	-2.86262e-07
2457.73	-3.96166e-07
2466.29	3.35139e-07
2474.85	-3.54171e-08
2483.41	-3.76318e-07
2491.96	2.10713e-07
2500.52	1.7451e-07
2509.08	7.82087e-07
2517.64	7.03221e-07
2526.19	3.53226e-07
2534.75	2.14744e-07
2543.31	5.0588e-07
2551.87	1.13425e-07
2560.42	2.25919e-07
2568.98	-1.2121e-08
2577.54	1.08516e-06
2586.1	-1.02934e-07
2594.65	1.45481e-07
2603.21	-6.47098e-07
2611.77	1.44861e-06
2620.33	5.17914e-07
2628.89	-2.62209e-07
2637.44	1.39704e-07
2646	7.2173e-08
2654.56	1.37332e-07
2663.12	-3.77671e-07
2671.67	4.06264e-08
2680.23	-2.02463e-07
2688.79	2.68364e-07
2697.35	-5.69337e-07
2705.9	6.56105e-07
2714.46	4.01026e-07
2723.02	6.44566e-07
2731.58	-2.47658e-08
2740.13	-4.25326e-08
2748.69	-6.17384e-07
2757.25	2.81271e-08
2765.81	-8.37061e-07
2774.37	1.67104e-07
2782.92	-3.91029e-07
2791.48	4.3135e-07
2800.04	-2.85083e-07
2808.6	-1.74918e-07
2817.15	-2.19342e-07
2825.71	-5.71272e-08
2834.27	4.86847e-07
2842.83	-8.54726e-08
2851.38	-2.88255e-07
2859.94	-4.96495e-07
2868.5	1.55259e-07
2877.06	1.26506e-06
2885.61	-9.57761e-07
2894.17	3.5599e-07
2902.73	4.07079e-07
2911.29	-3.58202e-07
2919.85	1.37754e-07
2928.4	-8.33307e-07
2936.96	3.74412e-07
2945.52	1.50457e-08
2954.08	-6.55071e-07
2962.63	-1.28813e-06
2971.19	3.55539e-07
2979.75	-5.37659e-07
2988.31	-4.87313e-08
2996.86	4.67174e-07
3005.42	-1.44681e-07
3013.98	1.00774e-06
3022.54	7.53072e-07
3031.09	2.14569e-07
3039.65	-6.87244e-08
3048.21	-4.2908e-07
3056.77	2.4693e-07
3065.33	-1.06315e-06
3073.88	-8.31153e-08
3082.44	-5.07248e-08
3091	8.96691e-07
3099.56	-2.18803e-07
3108.11	7.0488e-07
3116.67	-6.44638e-07
3125.23	-2.27752e-07
3133.79	5.76147e-07
3142.34	-8.95032e-08
3150.9	2.84763e-07
3159.46	3.0413e-07
3168.02	3.99556e-07
3176.57	-4.50019e-07
3185.13	-1.04374e-06
3193.69	-1.88261e-07
3202.25	1.00932e-06
3210.81	4.01171e-08
3219.36	6.30946e-07
3227.92	-1.01906e-06
3236.48	1.39294e-06
3245.04	-6.79604e-07
3253.59	-3.60952e-07
3262.15	1.56234e-07
3270.71	-6.6565e-07
3279.27	1.23801e-06
3287.82	-1.14822e-07
3296.38	5.01806e-07
3304.94	-1.9964e-07
3313.5	-4.31437e-08
3322.05	2.17989e-07
3330.61	3.80989e-07
3339.17	-8.38138e-08
3347.73	9.53367e-07
3356.29	-1.52887e-07
3364.84	8.02313e-07
3373.4	-3.30104e-07
3381.96	1.03162e-06
3390.52	-3.77016e-07
3399.07	-1.16684e-07
3407.63	1.61283e-07
3416.19	1.10413e-07
3424.75	2.57553e-09
3433.3	5.7376e-07
3441.86	6.38745e-07
3450.42	-3.84336e-07
3458.98	-1.36005e-06
3467.53	-7.26968e-08
3476.09	-4.94385e-07
3484.65	-4.42918e-07
3493.21	2.30619e-07
3501.77	5.21581e-07
3510.32	1.80316e-07
3518.88	6.46646e-08
3527.44	2.02361e-07
3536	8.00378e-07
3544.55	6.9692e-07
3553.11	-4.45028e-07
3561.67	-3.12425e-07
3570.23	-4.40968e-07
3578.78	-4.83413e-07
3587.34	4.49917e-08
3595.9	-7.46597e-07
3604.46	4.01317e-07
3613.01	8.96196e-08
3621.57	1.94665e-06
3630.13	3.51247e-07
3638.69	-4.67233e-08
3647.25	-4.60277e-07
3655.8	-3.59788e-07
3664.36	3.39955e-07
3672.92	5.34458e-08
3681.48	5.58118e-07
3690.03	-3.68868e-07
3698.59	1.07904e-06
3707.15	1.34988e-06
3715.71	2.91995e-07
3724.26	7.54338e-07
3732.82	1.13437e-06
3741.38	-3.31035e-07
3749.94	3.48642e-07
3758.49	3.89094e-08
3767.05	3.40362e-07
3775.61	6.98448e-10
3784.17	8.68593e-07
3792.73	1.64017e-06
3801.28	-1.21926e-06
3809.84	2.57233e-07
3818.4	4.18181e-07
3826.96	1.17648e-06
3835.51	-7.98559e-08
3844.07	5.74663e-07
3852.63	6.65854e-08
3861.19	-1.15986e-07
3869.74	-3.91218e-07
3878.3	2.41008e-07
3886.86	8.38283e-08
3895.42	5.19005e-07
3903.97	9.51053e-08
3912.53	-3.15189e-07
3921.09	-6.12452e-08
3929.65	5.14902e-07
3938.21	1.44637e-07
3946.76	1.28791e-07
3955.32	3.53953e-07
3963.88	-2.46567e-07
3972.44	1.0145e-07
