Infrared Spectrum: Dichlorodifluoromethane
Formula: C Cl2 F2
CAS: 75-71-8
State: gas
Melting point: -158 C
Boiling point: -29.8 C
Class: IUPAC A
Instrument: IFS66V (Bruker)
Instrument parameters: KBr Beam Splitter; MCT Detector; Multipass cell
Sampling: 1 L/min Flow
Resolution: 0.2410
Temperature: 23 C
Pressure: 101.3 Pa
Origin: NIST, Analytical Chemistry Division, 301-975-3108
cm-1	(micromol/mol)-1m-1 (base 10)
575.05	-1.99139e-06
583.608	7.64041e-06
592.165	-3.0173e-07
600.723	5.12996e-07
609.281	1.34119e-06
617.838	-2.129e-06
626.396	-5.40351e-07
634.954	1.0467e-06
643.511	5.85627e-06
652.069	2.0031e-05
660.626	4.68146e-05
669.184	8.01188e-05
677.742	5.27796e-05
686.299	9.74703e-06
694.857	6.04245e-07
703.415	-1.45656e-08
711.972	4.69997e-09
720.53	2.48595e-06
729.088	7.52505e-07
737.645	-7.96973e-07
746.203	6.40069e-07
754.761	2.26981e-07
763.318	1.22774e-06
771.876	-6.44042e-07
780.434	6.52612e-07
788.991	5.49504e-07
797.549	6.37436e-07
806.106	-4.50222e-07
814.664	9.87285e-08
823.222	1.29972e-06
831.779	4.11408e-06
840.337	9.02309e-06
848.895	1.3197e-05
857.452	3.79262e-05
866.01	0.000124031
874.568	0.00031227
883.125	0.00052505
891.683	0.000515268
900.241	0.000282167
908.798	0.000931678
917.356	0.00160728
925.914	0.00175537
934.471	0.000903753
943.029	1.67517e-05
951.586	1.8679e-06
960.144	7.55997e-07
968.702	1.87271e-08
977.259	3.5113e-07
985.817	-9.41886e-08
994.375	-4.2227e-07
1002.93	-9.39282e-07
1011.49	-1.68745e-06
1020.05	-5.67838e-07
1028.61	8.00465e-07
1037.16	-4.56174e-07
1045.72	1.71131e-06
1054.28	4.0542e-06
1062.84	1.65575e-05
1071.39	6.2255e-05
1079.95	0.000281097
1088.51	0.000942028
1097.07	0.00158747
1105.62	0.00129484
1114.18	0.00089757
1122.74	0.000316537
1131.3	0.000236652
1139.85	0.000334929
1148.41	0.000905251
1156.97	0.00116163
1165.53	0.000613529
1174.09	0.000390438
1182.64	5.19625e-05
1191.2	8.58898e-06
1199.76	8.16915e-06
1208.32	9.55119e-06
1216.87	3.84372e-06
1225.43	6.94999e-06
1233.99	1.22256e-05
1242.55	2.00226e-05
1251.1	9.49754e-06
1259.66	2.02454e-06
1268.22	1.19406e-07
1276.78	-6.01407e-07
1285.33	-7.42305e-07
1293.89	5.41879e-07
1302.45	4.79033e-07
1311.01	1.26266e-06
1319.57	1.84239e-06
1328.12	2.27253e-06
1336.68	2.7204e-06
1345.24	3.8042e-06
1353.8	3.72312e-06
1362.35	6.19771e-06
1370.91	5.17828e-06
1379.47	7.01998e-06
1388.03	5.99919e-06
1396.58	1.6384e-06
1405.14	-2.90161e-07
1413.7	-5.56285e-08
1422.26	-4.74188e-07
1430.81	-5.99458e-07
1439.37	6.48975e-08
1447.93	-8.57927e-07
1456.49	-1.79252e-06
1465.05	-2.05853e-07
1473.6	-2.94774e-07
1482.16	1.24853e-06
1490.72	-4.1645e-07
1499.28	-4.70899e-07
1507.83	4.49626e-09
1516.39	-9.18605e-08
1524.95	3.87348e-08
1533.51	-3.19103e-07
1542.06	-6.55144e-07
1550.62	6.59684e-07
1559.18	5.61145e-07
1567.74	1.05924e-06
1576.29	7.53887e-07
1584.85	5.11067e-06
1593.41	5.068e-06
1601.97	7.43687e-07
1610.53	6.20265e-07
1619.08	1.0564e-08
1627.64	-7.92957e-07
1636.2	-2.97335e-07
1644.76	-2.0578e-07
1653.31	-3.17657e-06
1661.87	-4.85989e-07
1670.43	-1.99669e-07
1678.99	-1.93863e-07
1687.54	4.94734e-10
1696.1	-2.31346e-06
1704.66	-2.41212e-07
1713.22	1.87708e-09
1721.77	-3.17765e-07
1730.33	6.59175e-07
1738.89	2.90292e-07
1747.45	1.27267e-06
1756.01	3.05863e-06
1764.56	3.3294e-06
1773.12	1.99571e-06
1781.68	6.8234e-07
1790.24	1.12754e-06
1798.79	2.18198e-06
1807.35	2.38939e-06
1815.91	1.3642e-06
1824.47	1.1756e-06
1833.02	2.45835e-06
1841.58	1.19964e-06
1850.14	6.692e-07
1858.7	-5.99909e-07
1867.25	-8.92806e-07
1875.81	-2.44326e-07
1884.37	3.51843e-07
1892.93	-9.83648e-09
1901.49	-4.07806e-07
1910.04	3.07099e-07
1918.6	5.43043e-08
1927.16	-1.12334e-07
1935.72	4.81784e-08
1944.27	1.79137e-07
1952.83	6.49411e-08
1961.39	2.73268e-08
1969.95	-9.48143e-08
1978.5	1.66856e-07
1987.06	1.4388e-07
1995.62	1.11359e-07
2004.18	4.14573e-07
2012.73	7.63156e-07
2021.29	7.90381e-07
2029.85	3.94565e-07
2038.41	6.02135e-07
2046.97	-1.35746e-07
2055.52	7.07179e-08
2064.08	2.29513e-07
2072.64	3.11421e-07
2081.2	-5.83277e-07
2089.75	-3.31224e-07
2098.31	-2.03787e-07
2106.87	-2.18614e-07
2115.43	-9.6591e-07
2123.98	-1.06804e-08
2132.54	-9.21806e-08
2141.1	5.67649e-07
2149.66	-2.33369e-07
2158.21	-3.2261e-07
2166.77	5.89927e-07
2175.33	2.28401e-06
2183.89	4.61873e-06
2192.45	7.42914e-06
2201	6.94711e-06
2209.56	2.36534e-06
2218.12	2.60716e-06
2226.68	6.02707e-06
2235.23	1.24502e-05
2243.79	1.67437e-05
2252.35	1.10333e-05
2260.91	6.73422e-06
2269.46	2.07164e-06
2278.02	1.95378e-06
2286.58	6.20193e-07
2295.14	1.51336e-06
2303.69	4.93755e-06
2312.25	8.21656e-06
2320.81	3.91499e-06
2329.37	9.38787e-07
2337.93	-3.41003e-07
2346.48	-5.28318e-07
2355.04	-5.74401e-07
2363.6	4.69372e-07
2372.16	3.69843e-07
2380.71	6.11302e-07
2389.27	2.98441e-08
2397.83	3.18842e-07
2406.39	3.1078e-07
2414.94	2.77851e-07
2423.5	-4.73053e-08
2432.06	4.77695e-07
2440.62	2.03292e-07
2449.17	-1.65794e-07
2457.73	-3.10809e-07
2466.29	3.58202e-07
2474.85	-7.29296e-08
2483.41	-3.19467e-07
2491.96	7.32061e-08
2500.52	1.81466e-07
2509.08	6.9078e-07
2517.64	6.27541e-07
2526.19	3.63004e-07
2534.75	3.21024e-07
2543.31	6.02659e-07
2551.87	1.83779e-07
2560.42	1.46456e-07
2568.98	1.65736e-08
2577.54	9.14734e-07
2586.1	-1.32327e-07
2594.65	1.06601e-07
2603.21	-5.4249e-07
2611.77	1.27372e-06
2620.33	4.88419e-07
2628.89	-2.91966e-07
2637.44	8.06853e-08
2646	-1.62098e-08
2654.56	1.47984e-07
2663.12	-4.529e-07
2671.67	-2.67738e-09
2680.23	-1.78061e-07
2688.79	2.2394e-07
2697.35	-5.69162e-07
2705.9	5.86827e-07
2714.46	3.66933e-07
2723.02	4.10862e-07
2731.58	-3.43549e-08
2740.13	3.52134e-08
2748.69	-5.34604e-07
2757.25	7.57671e-08
2765.81	-7.79512e-07
2774.37	6.31513e-08
2782.92	-2.35843e-07
2791.48	2.7887e-07
2800.04	-2.3657e-07
2808.6	-1.40665e-07
2817.15	-3.49239e-07
2825.71	-5.88006e-08
2834.27	3.82022e-07
2842.83	-8.02051e-08
2851.38	-1.47212e-07
2859.94	-4.75687e-07
2868.5	1.2169e-07
2877.06	1.08462e-06
2885.61	-9.09481e-07
2894.17	3.15873e-07
2902.73	3.22421e-07
2911.29	-3.49428e-07
2919.85	-2.868e-08
2928.4	-6.54882e-07
2936.96	3.09034e-07
2945.52	-1.41727e-08
2954.08	-5.59457e-07
2962.63	-1.15568e-06
2971.19	3.40668e-07
2979.75	-5.25422e-07
2988.31	-1.00649e-07
2996.86	3.5423e-07
3005.42	-1.72138e-07
3013.98	8.01382e-07
3022.54	6.56672e-07
3031.09	2.24289e-07
3039.65	-2.4597e-07
3048.21	-3.50868e-07
3056.77	1.47649e-07
3065.33	-1.03193e-06
3073.88	-1.67962e-07
3082.44	-1.88581e-07
3091	8.42896e-07
3099.56	-1.67948e-07
3108.11	6.56032e-07
3116.67	-6.64515e-07
3125.23	-1.7272e-07
3133.79	5.43422e-07
3142.34	-1.40432e-07
3150.9	2.58207e-07
3159.46	2.04107e-07
3168.02	3.73946e-07
3176.57	-3.90913e-07
3185.13	-8.90667e-07
3193.69	-1.63408e-07
3202.25	9.94706e-07
3210.81	4.27072e-08
3219.36	4.91416e-07
3227.92	-9.76125e-07
3236.48	1.13131e-06
3245.04	-7.17932e-07
3253.59	-3.57838e-07
3262.15	1.14327e-07
3270.71	-6.86676e-07
3279.27	1.22943e-06
3287.82	-2.11528e-07
3296.38	4.32106e-07
3304.94	-1.11592e-07
3313.5	5.1074e-08
3322.05	2.75596e-07
3330.61	4.50179e-07
3339.17	-1.19886e-07
3347.73	8.55715e-07
3356.29	-5.1656e-08
3364.84	8.37803e-07
3373.4	-3.1484e-07
3381.96	7.14541e-07
3390.52	-1.8813e-07
3399.07	-1.97297e-07
3407.63	1.83677e-07
3416.19	2.22237e-07
3424.75	-1.04331e-08
3433.3	4.9747e-07
3441.86	5.70748e-07
3450.42	-1.80229e-07
3458.98	-1.08111e-06
3467.53	-9.03617e-08
3476.09	-4.81551e-07
3484.65	-5.45197e-07
3493.21	2.92679e-07
3501.77	3.00842e-07
3510.32	6.07213e-08
3518.88	-5.3635e-08
3527.44	9.25589e-08
3536	6.12233e-07
3544.55	7.87617e-07
3553.11	-3.87333e-07
3561.67	-2.37778e-07
3570.23	-1.30188e-07
3578.78	-4.68004e-07
3587.34	6.18417e-08
3595.9	-6.42514e-07
3604.46	4.14456e-07
3613.01	2.96113e-08
3621.57	1.77861e-06
3630.13	4.03223e-07
3638.69	1.35615e-07
3647.25	-3.58056e-07
3655.8	-3.98945e-07
3664.36	3.19642e-07
3672.92	1.86253e-08
3681.48	4.85509e-07
3690.03	-3.42414e-07
3698.59	1.02592e-06
3707.15	1.19488e-06
3715.71	1.88945e-07
3724.26	7.94645e-07
3732.82	9.96598e-07
3741.38	-1.50661e-07
3749.94	2.9249e-07
3758.49	5.72582e-08
3767.05	2.68495e-07
3775.61	1.13003e-07
3784.17	7.60479e-07
3792.73	1.42689e-06
3801.28	-1.19596e-06
3809.84	1.63219e-07
3818.4	4.85538e-07
3826.96	1.10909e-06
3835.51	-1.89629e-07
3844.07	6.64981e-07
3852.63	3.35837e-08
3861.19	-7.74259e-08
3869.74	-3.73728e-07
3878.3	3.39489e-07
3886.86	1.93732e-07
3895.42	5.19529e-07
3903.97	-5.31111e-09
3912.53	-2.75189e-07
3921.09	-1.83343e-08
3929.65	5.63982e-07
3938.21	2.70736e-07
3946.76	2.50292e-07
3955.32	4.27508e-07
3963.88	-1.66332e-07
3972.44	1.6415e-07
