Infrared Spectrum: Carbon tetrafluoride
Formula: C F4
CAS: 75-73-0
State: gas
Melting point: -150 C
Boiling point: -129 C
Class: IUPAC A
Instrument: IFS66V (Bruker)
Instrument parameters: KBr Beam Splitter; MCT Detector; Multipass cell
Sampling: 1 L/min Flow
Resolution: 0.9640
Temperature: 23 C
Pressure: 101.3 Pa
Origin: NIST, Analytical Chemistry Division, 301-975-3108
cm-1	(micromol/mol)-1m-1 (base 10)
575.168	-9.44017e-05
583.846	-1.42845e-05
592.524	-8.32849e-06
601.202	-1.53743e-05
609.881	-1.21632e-05
618.559	-6.18502e-06
627.237	-3.78066e-05
635.915	-3.24913e-05
644.593	-2.0671e-05
653.271	-4.50336e-06
661.949	-3.27087e-05
670.628	-2.76709e-05
679.306	-2.93824e-05
687.984	-4.16026e-05
696.662	-4.23724e-05
705.34	-1.62041e-05
714.018	-2.63548e-05
722.697	-2.53937e-05
731.375	-3.31189e-05
740.053	-2.97131e-05
748.731	-2.88015e-05
757.409	-2.80214e-05
766.087	-2.68284e-05
774.765	-2.71845e-05
783.444	-3.80369e-05
792.122	-3.4006e-05
800.8	-3.09236e-05
809.478	-2.67026e-05
818.156	-3.63609e-05
826.834	-3.24854e-05
835.512	-4.0259e-05
844.191	-3.45024e-05
852.869	-3.01777e-05
861.547	-2.53929e-05
870.225	-3.4728e-05
878.903	-2.47251e-05
887.581	-3.4637e-05
896.26	-2.45331e-05
904.938	-3.08076e-05
913.616	-3.68573e-05
922.294	-3.46725e-05
930.972	-3.03792e-05
939.65	-3.9579e-05
948.328	-2.49369e-05
957.007	-3.62261e-05
965.685	-2.87513e-05
974.363	-2.35685e-05
983.041	-2.77792e-05
991.719	-3.16952e-05
1000.4	-2.51165e-05
1009.08	-2.80007e-05
1017.75	-2.73318e-05
1026.43	-2.98527e-05
1035.11	-3.39471e-05
1043.79	-2.58475e-05
1052.47	-2.42633e-05
1061.14	-2.07383e-05
1069.82	-2.51657e-05
1078.5	-2.87506e-05
1087.18	-3.45212e-05
1095.86	-2.60239e-05
1104.54	-2.14106e-05
1113.21	-3.34049e-05
1121.89	-2.61377e-05
1130.57	-3.53262e-05
1139.25	-2.8576e-05
1147.93	-2.9641e-05
1156.6	-3.06693e-05
1165.28	-2.99311e-05
1173.96	-2.575e-05
1182.64	-3.19766e-05
1191.32	-3.34271e-05
1199.99	-2.45693e-05
1208.67	-2.21641e-05
1217.35	-2.41963e-05
1226.03	-2.02279e-05
1234.71	3.66238e-05
1243.39	0.000326165
1252.06	0.00021373
1260.74	0.000686175
1269.42	0.00116213
1278.1	0.0105891
1286.78	0.00545476
1295.45	7.42813e-05
1304.13	-6.19136e-06
1312.81	-1.25475e-05
1321.49	-2.64617e-05
1330.17	-2.45222e-05
1338.85	-2.07094e-05
1347.52	-3.05367e-05
1356.2	4.43112e-06
1364.88	-2.96495e-05
1373.56	-2.38733e-05
1382.24	-3.09035e-05
1390.91	-3.15742e-05
1399.59	-2.05082e-05
1408.27	-2.70958e-05
1416.95	-2.79928e-05
1425.63	-2.3995e-05
1434.3	-3.09759e-05
1442.98	-3.1242e-05
1451.66	-2.82378e-05
1460.34	-2.61585e-05
1469.02	-2.61905e-05
1477.7	-2.3888e-05
1486.37	-2.38211e-05
1495.05	-2.25723e-05
1503.73	-2.1468e-05
1512.41	-5.88042e-06
1521.09	2.96945e-05
1529.76	-8.82639e-06
1538.44	8.82789e-05
1547.12	-2.28643e-05
1555.8	-6.41057e-06
1564.48	-1.32064e-05
1573.16	-2.6505e-05
1581.83	-2.87741e-05
1590.51	-3.46783e-05
1599.19	-2.63127e-05
1607.87	-2.56317e-05
1616.55	7.45608e-06
1625.22	-3.15482e-05
1633.9	-2.51532e-05
1642.58	-2.41809e-05
1651.26	-2.52473e-05
1659.94	-2.38426e-05
1668.61	-2.01167e-05
1677.29	-2.69607e-05
1685.97	-2.2948e-05
1694.65	-1.63073e-05
1703.33	-2.35018e-05
1712.01	-2.93612e-05
1720.68	-2.46292e-05
1729.36	-2.45266e-05
1738.04	-2.58322e-05
1746.72	-2.56816e-05
1755.4	-2.95917e-05
1764.07	-3.32056e-05
1772.75	-2.9146e-06
1781.43	-2.70305e-05
1790.11	-2.68149e-05
1798.79	-2.72399e-05
1807.47	-2.43813e-05
1816.14	-2.28423e-05
1824.82	-2.23663e-05
1833.5	-2.63416e-05
1842.18	-3.01223e-05
1850.86	-3.22506e-05
1859.53	-3.1281e-05
1868.21	-2.60704e-05
1876.89	-2.84605e-05
1885.57	-2.43258e-05
1894.25	-2.56157e-05
1902.92	-2.71493e-05
1911.6	-2.149e-05
1920.28	-2.41416e-05
1928.96	-2.47008e-05
1937.64	-2.75306e-05
1946.32	-2.68601e-05
1954.99	-2.83582e-05
1963.67	-2.49709e-05
1972.35	-2.89038e-05
1981.03	-2.88254e-05
1989.71	-2.93611e-05
1998.38	-3.09563e-05
2007.06	-2.72139e-05
2015.74	-2.4745e-05
2024.42	-3.05302e-05
2033.1	-3.1043e-05
2041.78	-2.90074e-05
2050.45	-2.62945e-05
2059.13	-3.00926e-05
2067.81	-2.7589e-05
2076.49	-3.35096e-05
2085.17	-3.00266e-05
2093.84	-2.65156e-05
2102.52	-2.95412e-05
2111.2	-2.705e-05
2119.88	-2.87245e-05
2128.56	-2.6854e-05
2137.23	-2.74107e-05
2145.91	-2.28602e-05
2154.59	-3.01208e-05
2163.27	-2.42449e-05
2171.95	-1.56823e-05
2180.63	2.57734e-05
2189.3	9.65363e-06
2197.98	-2.45541e-05
2206.66	-2.92207e-05
2215.34	-2.87629e-05
2224.02	-2.4182e-05
2232.69	-2.86334e-05
2241.37	-2.4275e-05
2250.05	-2.65483e-05
2258.73	-2.63416e-05
2267.41	-2.62554e-05
2276.09	-2.65471e-05
2284.76	-2.75717e-05
2293.44	-2.55753e-05
2302.12	-2.48806e-05
2310.8	-2.09102e-05
2319.48	-2.00363e-05
2328.15	-1.85669e-05
2336.83	-1.71637e-05
2345.51	-1.93516e-05
2354.19	-1.61728e-05
2362.87	-7.39724e-06
2371.54	-1.90888e-05
2380.22	-2.28144e-05
2388.9	-2.80692e-05
2397.58	-2.40274e-05
2406.26	-3.11286e-05
2414.94	-2.6999e-05
2423.61	-2.51922e-05
2432.29	-2.70885e-05
2440.97	-3.01024e-05
2449.65	-2.50871e-05
2458.33	-2.38847e-05
2467	-2.79222e-05
2475.68	-2.75033e-05
2484.36	-2.83433e-05
2493.04	-3.02644e-05
2501.72	-2.58119e-05
2510.4	-3.01948e-05
2519.07	-2.61862e-05
2527.75	-2.55064e-05
2536.43	-1.71457e-05
2545.11	-2.68431e-05
2553.79	-6.05011e-05
2562.46	-9.64552e-05
2571.14	-9.67629e-05
2579.82	-1.84624e-05
2588.5	-1.84613e-05
2597.18	-1.99658e-05
2605.85	-1.95475e-05
2614.53	-1.91276e-05
2623.21	-2.50234e-05
2631.89	-2.51533e-05
2640.57	-1.9538e-05
2649.25	-2.19545e-05
2657.92	-2.92342e-05
2666.6	-2.77179e-05
2675.28	-2.27196e-05
2683.96	-2.42739e-05
2692.64	-2.97604e-05
2701.31	-2.43755e-05
2709.99	-1.72151e-05
2718.67	-2.21279e-05
2727.35	-2.4532e-05
2736.03	-1.80224e-05
2744.71	-2.73577e-05
2753.38	-1.96069e-05
2762.06	-2.5815e-05
2770.74	-2.29989e-05
2779.42	-2.96291e-05
2788.1	-2.75587e-05
2796.77	-2.34291e-05
2805.45	-2.54794e-05
2814.13	-2.72928e-05
2822.81	-2.52524e-05
2831.49	-2.5132e-05
2840.17	-1.86801e-05
2848.84	-2.25956e-05
2857.52	-1.94372e-05
2866.2	-2.31756e-05
2874.88	-2.084e-05
2883.56	-2.34972e-05
2892.23	-2.2282e-05
2900.91	-2.30203e-05
2909.59	-1.43815e-05
2918.27	-2.49908e-05
2926.95	-2.57307e-05
2935.62	-2.40195e-05
2944.3	-2.92896e-05
2952.98	-1.63421e-05
2961.66	-2.43501e-05
2970.34	-2.92807e-05
2979.02	-2.94148e-05
2987.69	-2.36597e-05
2996.37	-2.07419e-05
3005.05	-2.46027e-05
3013.73	-2.79441e-05
3022.41	-2.57352e-05
3031.08	-3.07033e-05
3039.76	-2.73634e-05
3048.44	-2.21219e-05
3057.12	-2.31571e-05
3065.8	-1.84852e-05
3074.48	-1.96431e-05
3083.15	-1.74048e-05
3091.83	-2.39758e-05
3100.51	-1.89831e-05
3109.19	-2.03971e-05
3117.87	-1.47222e-05
3126.54	-1.91833e-05
3135.22	-1.51229e-05
3143.9	-2.45387e-05
3152.58	-2.56275e-05
3161.26	-2.25071e-05
3169.93	-1.84997e-05
3178.61	-1.45148e-05
3187.29	-2.58835e-05
3195.97	-1.81952e-05
3204.65	-2.34547e-05
3213.33	-2.21575e-05
3222	-1.88872e-05
3230.68	-1.96229e-05
3239.36	-1.77241e-05
3248.04	-2.30438e-05
3256.72	-2.74578e-05
3265.39	-2.18786e-05
3274.07	-2.01578e-05
3282.75	-1.81524e-05
3291.43	-1.87301e-05
3300.11	-2.59948e-05
3308.79	-1.94234e-05
3317.46	-3.25759e-05
3326.14	-2.42224e-05
3334.82	-2.3033e-05
3343.5	-2.25295e-05
3352.18	-1.72632e-05
3360.85	-1.62477e-05
3369.53	-2.44826e-05
3378.21	-2.24485e-05
3386.89	-1.92009e-05
3395.57	-2.24933e-05
3404.24	-1.7107e-05
3412.92	-1.86254e-05
3421.6	-1.03947e-05
3430.28	-1.86747e-05
3438.96	-9.50334e-06
3447.64	-2.21445e-05
3456.31	-2.38978e-05
3464.99	-9.78384e-06
3473.67	-2.39351e-05
3482.35	-2.53422e-05
3491.03	-2.01545e-05
3499.7	-1.28952e-05
3508.38	-1.4895e-05
3517.06	-2.85107e-05
3525.74	-2.05014e-05
3534.42	-1.56898e-05
3543.1	-2.41305e-05
3551.77	-1.66313e-05
3560.45	-2.41305e-05
3569.13	-2.20091e-05
3577.81	-2.1329e-05
3586.49	-1.47587e-05
3595.16	-2.72246e-05
3603.84	-2.02346e-05
3612.52	-8.02308e-06
3621.2	-2.02887e-05
3629.88	-4.02141e-06
3638.55	-1.24597e-05
3647.23	-7.50975e-06
3655.91	-3.6001e-06
3664.59	-9.11568e-06
3673.27	-2.11419e-05
3681.95	-2.25276e-05
3690.62	-8.19252e-06
3699.3	-1.78123e-05
3707.98	-2.14692e-05
3716.66	-2.46322e-05
3725.34	-1.60922e-05
3734.01	-2.00109e-05
3742.69	-1.81419e-05
3751.37	-1.43323e-05
3760.05	-3.42647e-06
3768.73	-1.66913e-05
3777.41	-1.84858e-05
3786.08	-2.0114e-05
3794.76	-2.46209e-05
3803.44	-1.4528e-05
3812.12	-1.33578e-05
3820.8	-9.71358e-06
3829.47	-2.14716e-05
3838.15	-3.96256e-06
3846.83	-2.44976e-05
3855.51	-3.43386e-05
3864.19	-1.44597e-05
3872.86	-2.06617e-05
3881.54	-1.89549e-05
3890.22	-1.59402e-05
3898.9	-1.8838e-05
3907.58	-1.06544e-05
3916.26	-1.45921e-05
3924.93	-1.63242e-05
3933.61	-1.79671e-05
3942.29	-1.6238e-05
3950.97	-1.50209e-05
3959.65	-1.64752e-05
3968.32	-1.74406e-05
