Infrared Spectrum: Dichlorodifluoromethane
Formula: C Cl2 F2
CAS: 75-71-8
State: gas
Melting point: -158 C
Boiling point: -29.8 C
Class: IUPAC A
Instrument: IFS66V (Bruker)
Instrument parameters: KBr Beam Splitter; MCT Detector; Multipass cell
Sampling: 1 L/min Flow
Resolution: 0.4820
Temperature: 23 C
Pressure: 101.3 Pa
Origin: NIST, Analytical Chemistry Division, 301-975-3108
cm-1	(micromol/mol)-1m-1 (base 10)
575.17	-3.92845e-06
583.848	3.01852e-06
592.526	-2.8314e-06
601.205	-8.72046e-07
609.883	-6.66691e-07
618.561	-1.13636e-06
627.239	3.76724e-07
635.917	-1.00156e-06
644.595	2.95747e-06
653.274	2.62296e-05
661.952	5.45554e-05
670.63	7.3406e-05
679.308	4.7699e-05
687.986	6.40177e-06
696.664	-1.08265e-06
705.343	9.84575e-07
714.021	1.23493e-06
722.699	1.23618e-06
731.377	1.54774e-06
740.055	6.11598e-07
748.734	1.15738e-06
757.412	9.89028e-07
766.09	6.8945e-07
774.768	-4.11663e-07
783.446	-4.95467e-07
792.124	3.66545e-07
800.803	-3.71871e-07
809.481	2.36911e-07
818.159	1.13165e-06
826.837	1.81614e-06
835.515	3.12225e-06
844.193	6.49883e-06
852.872	1.98002e-05
861.55	6.91818e-05
870.228	0.000204489
878.906	0.000397646
887.584	0.000509194
896.263	0.000330845
904.941	0.000472224
913.619	0.00158305
922.297	0.00255472
930.975	0.0019053
939.653	9.37118e-05
948.332	2.8399e-06
957.01	5.92462e-07
965.688	8.83294e-09
974.366	-3.43422e-09
983.044	-2.09764e-08
991.723	-4.953e-07
1000.4	-6.15367e-07
1009.08	-4.48174e-07
1017.76	-5.73283e-07
1026.44	1.582e-07
1035.11	-2.29016e-07
1043.79	8.6525e-08
1052.47	2.79275e-06
1061.15	1.3318e-05
1069.83	4.77669e-05
1078.5	0.000215282
1087.18	0.000822784
1095.86	0.0014672
1104.54	0.00147659
1113.22	0.00101639
1121.9	0.000338872
1130.57	0.000257285
1139.25	0.000309461
1147.93	0.000890499
1156.61	0.00104646
1165.29	0.000614177
1173.96	0.000397246
1182.64	5.2022e-05
1191.32	8.1221e-06
1200	8.51192e-06
1208.68	8.54939e-06
1217.36	4.51226e-06
1226.03	8.10665e-06
1234.71	1.18383e-05
1243.39	1.95494e-05
1252.07	8.53575e-06
1260.75	1.53838e-06
1269.42	1.73974e-07
1278.1	-5.66109e-07
1286.78	-2.1581e-07
1295.46	5.72373e-07
1304.14	-8.27997e-09
1312.82	1.30146e-06
1321.49	2.04077e-06
1330.17	2.3811e-06
1338.85	3.43358e-06
1347.53	3.87469e-06
1356.21	5.68477e-06
1364.88	5.12932e-06
1373.56	6.9646e-06
1382.24	7.04581e-06
1390.92	5.13594e-06
1399.6	1.16745e-06
1408.28	2.48683e-07
1416.95	1.12522e-07
1425.63	-4.54453e-08
1434.31	7.40323e-08
1442.99	-5.74796e-09
1451.67	-5.44354e-07
1460.34	-3.08018e-07
1469.02	1.42875e-06
1477.7	1.77222e-06
1486.38	6.56352e-07
1495.06	-5.17389e-08
1503.73	-3.8694e-07
1512.41	-2.59975e-07
1521.09	-1.4387e-06
1529.77	4.78711e-07
1538.45	4.50611e-07
1547.13	3.70758e-07
1555.8	5.9933e-07
1564.48	8.04489e-07
1573.16	2.14041e-06
1581.84	4.17226e-06
1590.52	3.58784e-06
1599.19	3.22159e-06
1607.87	-4.22075e-08
1616.55	-1.86458e-06
1625.23	-3.55275e-07
1633.91	-1.14661e-07
1642.59	-1.59539e-07
1651.26	-1.30857e-07
1659.94	-3.3905e-07
1668.62	-3.74665e-07
1677.3	-4.94688e-08
1685.98	-2.59473e-07
1694.65	-1.55981e-07
1703.33	-5.06599e-07
1712.01	-3.18466e-08
1720.69	-3.63562e-07
1729.37	-1.09852e-07
1738.05	-2.29991e-08
1746.72	1.69648e-06
1755.4	3.01022e-06
1764.08	3.12727e-06
1772.76	5.08491e-07
1781.44	2.8969e-07
1790.11	1.12294e-06
1798.79	2.26094e-06
1807.47	2.3455e-06
1816.15	1.78395e-06
1824.83	1.63683e-06
1833.51	1.89731e-06
1842.18	1.45134e-06
1850.86	8.75131e-07
1859.54	-7.25545e-07
1868.22	-7.86772e-07
1876.9	-3.25218e-07
1885.57	-1.80661e-07
1894.25	-2.33273e-07
1902.93	-5.39326e-07
1911.61	-2.31592e-08
1920.29	-3.4706e-09
1928.97	-2.98057e-07
1937.64	-2.09684e-07
1946.32	-2.71362e-07
1955	-1.74811e-07
1963.68	1.50749e-07
1972.36	1.67222e-07
1981.03	1.15003e-07
1989.71	4.32589e-07
1998.39	5.20591e-07
2007.07	5.89435e-07
2015.75	6.84633e-07
2024.43	3.66698e-07
2033.1	-2.85506e-08
2041.78	2.10499e-07
2050.46	2.37209e-07
2059.14	3.55952e-07
2067.82	1.54249e-08
2076.49	8.16283e-08
2085.17	3.05311e-07
2093.85	-2.77648e-07
2102.53	1.703e-07
2111.21	-7.55238e-09
2119.89	-2.22221e-07
2128.56	-1.15803e-07
2137.24	1.49571e-07
2145.92	-1.06374e-08
2154.6	-4.22257e-07
2163.28	-2.43452e-08
2171.95	1.09937e-06
2180.63	3.41254e-06
2189.31	7.12816e-06
2197.99	6.10741e-06
2206.67	3.81133e-06
2215.35	1.96095e-06
2224.02	4.39833e-06
2232.7	1.05888e-05
2241.38	1.58134e-05
2250.06	3.71206e-05
2258.74	8.35602e-06
2267.41	2.01664e-06
2276.09	1.86004e-06
2284.77	6.39734e-07
2293.45	1.36222e-06
2302.13	4.04083e-06
2310.81	3.56454e-06
2319.48	4.53912e-06
2328.16	1.2947e-06
2336.84	-2.8865e-07
2345.52	-5.78732e-07
2354.2	2.1565e-07
2362.87	1.1746e-06
2371.55	1.24002e-06
2380.23	2.50495e-07
2388.91	-2.79496e-07
2397.59	5.14297e-07
2406.27	1.70096e-07
2414.94	1.90876e-07
2423.62	-3.17229e-09
2432.3	2.39435e-07
2440.98	3.34044e-07
2449.66	6.64661e-07
2458.33	1.12449e-07
2467.01	1.70503e-07
2475.69	1.43786e-07
2484.37	6.7695e-08
2493.05	1.14821e-07
2501.73	-5.11263e-07
2510.4	4.34197e-07
2519.08	-1.12165e-07
2527.76	-3.94514e-07
2536.44	1.87318e-07
2545.12	-4.23021e-08
2553.79	1.95802e-07
2562.47	3.37456e-08
2571.15	1.93168e-07
2579.83	2.16865e-07
2588.51	8.16618e-07
2597.19	-2.14173e-07
2605.86	-1.41618e-07
2614.54	1.95685e-07
2623.22	-3.10375e-07
2631.9	4.56061e-07
2640.58	-7.37776e-09
2649.25	1.20678e-07
2657.93	2.8077e-07
2666.61	1.62478e-07
2675.29	6.79133e-08
2683.97	2.29256e-07
2692.65	1.89239e-07
2701.32	-8.39712e-08
2710	2.0876e-07
2718.68	3.07829e-07
2727.36	9.83265e-08
2736.04	-4.52095e-07
2744.71	-9.84648e-08
2753.39	2.33775e-07
2762.07	2.8336e-07
2770.75	-3.01935e-07
2779.43	-3.2201e-07
2788.11	-4.00298e-07
2796.78	-1.46544e-07
2805.46	-4.24345e-07
2814.14	-2.44026e-07
2822.82	-4.23064e-07
2831.5	-5.34284e-07
2840.17	-3.86991e-07
2848.85	-6.80806e-08
2857.53	-1.4204e-07
2866.21	6.41458e-07
2874.89	-3.27517e-07
2883.57	-6.01135e-08
2892.24	-6.31053e-07
2900.92	-2.45351e-07
2909.6	-2.48807e-07
2918.28	1.30646e-07
2926.96	-7.1413e-07
2935.63	2.99767e-07
2944.31	-4.12427e-07
2952.99	-1.91713e-07
2961.67	-3.8929e-07
2970.35	1.1712e-07
2979.03	-6.27634e-07
2987.7	6.41007e-08
2996.38	-4.32829e-07
3005.06	3.75873e-08
3013.74	-4.4765e-07
3022.42	5.18131e-07
3031.09	1.31898e-07
3039.77	2.72337e-08
3048.45	4.5756e-07
3057.13	-2.82378e-07
3065.81	-3.49869e-07
3074.49	-4.28347e-07
3083.16	1.26964e-07
3091.84	1.33244e-07
3100.52	3.88395e-07
3109.2	-7.72191e-08
3117.88	1.32851e-07
3126.55	-3.10565e-07
3135.23	9.05922e-08
3143.91	2.4781e-07
3152.59	-1.73537e-07
3161.27	4.50742e-08
3169.95	3.31206e-07
3178.62	6.46304e-07
3187.3	-5.10266e-07
3195.98	-3.11314e-07
3204.66	-3.82603e-07
3213.34	8.44004e-09
3222.01	-9.98079e-07
3230.69	-1.17026e-07
3239.37	-8.7238e-07
3248.05	1.30821e-08
3256.73	-3.80959e-07
3265.4	-2.41487e-08
3274.08	-4.13526e-07
3282.76	7.19557e-07
3291.44	-5.69346e-07
3300.12	1.6859e-07
3308.8	-5.41203e-07
3317.47	5.67418e-07
3326.15	3.17731e-07
3334.83	-2.426e-07
3343.51	-7.8288e-07
3352.19	-1.44659e-07
3360.86	6.3149e-07
3369.54	6.18932e-07
3378.22	-2.46682e-07
3386.9	2.01542e-07
3395.58	-8.11845e-08
3404.26	-3.9928e-07
3412.93	7.19245e-07
3421.61	-4.71798e-07
3430.29	-1.02149e-06
3438.97	7.25145e-07
3447.65	-7.94579e-07
3456.32	-1.07858e-07
3465	5.5088e-07
3473.68	-4.35353e-07
3482.36	-1.12988e-06
3491.04	3.60892e-07
3499.72	3.66523e-07
3508.39	-9.09953e-07
3517.07	-5.90694e-07
3525.75	3.4917e-07
3534.43	8.01317e-07
3543.11	3.97788e-07
3551.78	5.95169e-09
3560.46	3.65359e-07
3569.14	-6.73341e-07
3577.82	3.17149e-07
3586.5	8.66269e-08
3595.18	8.30056e-07
3603.85	9.88722e-08
3612.53	-4.39566e-07
3621.21	1.78041e-07
3629.89	6.9121e-08
3638.57	2.31497e-07
3647.24	-3.2663e-07
3655.92	-4.30406e-07
3664.6	5.62398e-07
3673.28	-5.31701e-07
3681.96	-4.75902e-07
3690.64	9.03958e-08
3699.31	4.96944e-08
3707.99	-3.00611e-07
3716.67	-4.26659e-08
3725.35	-9.49505e-09
3734.03	6.88096e-07
3742.7	2.76957e-07
3751.38	2.89937e-07
3760.06	-2.42004e-07
3768.74	9.42142e-07
3777.42	6.0048e-07
3786.1	-2.46377e-07
3794.77	2.74636e-07
3803.45	2.2126e-08
3812.13	8.34291e-07
3820.81	-4.15141e-07
3829.49	9.45358e-08
3838.16	-8.7182e-07
3846.84	2.18423e-07
3855.52	5.38358e-07
3864.2	1.0048e-07
3872.88	1.71799e-07
3881.56	-3.37253e-07
3890.23	-9.40192e-08
3898.91	3.05886e-07
3907.59	5.53405e-08
3916.27	4.19965e-08
3924.95	4.85681e-07
3933.62	3.98981e-07
3942.3	-1.62471e-07
3950.98	8.25604e-07
3959.66	-1.53558e-07
3968.34	5.8659e-07
