Infrared Spectrum: Carbon tetrafluoride
Formula: C F4
CAS: 75-73-0
State: gas
Melting point: -150 C
Boiling point: -129 C
Class: IUPAC A
Instrument: IFS66V (Bruker)
Instrument parameters: KBr Beam Splitter; MCT Detector; Multipass cell
Sampling: 1 L/min Flow
Resolution: 0.1250
Temperature: 23 C
Pressure: 101.3 Pa
Origin: NIST, Analytical Chemistry Division, 301-975-3108
cm-1	(micromol/mol)-1m-1 (base 10)
575.048	-0.000225294
583.606	-5.35536e-05
592.163	-4.94004e-05
600.721	3.92069e-07
609.278	-5.92258e-05
617.836	-6.23838e-05
626.394	-3.19689e-05
634.951	-4.86151e-05
643.509	3.09031e-05
652.067	-2.32834e-05
660.624	-3.44061e-05
669.182	-5.96578e-06
677.739	-9.64154e-06
686.297	-7.00104e-05
694.855	-3.48149e-05
703.412	-6.93167e-05
711.97	-3.82849e-05
720.528	-2.79327e-05
729.085	-2.11461e-05
737.643	-5.59442e-05
746.2	-3.8983e-05
754.758	-3.69389e-05
763.316	-2.15271e-05
771.873	-2.41293e-05
780.431	-5.67981e-05
788.988	-6.85336e-05
797.546	-5.44368e-05
806.104	-5.87358e-05
814.661	-3.32994e-05
823.219	-4.04673e-05
831.777	-5.08243e-05
840.334	-4.7604e-05
848.892	-2.18208e-05
857.449	-5.71176e-05
866.007	-2.51366e-05
874.565	-1.76459e-05
883.122	-1.49238e-05
891.68	-2.33721e-05
900.238	-3.19864e-05
908.795	-7.41299e-06
917.353	-6.5631e-05
925.91	-1.25284e-05
934.468	-1.32045e-05
943.026	-1.33789e-05
951.583	-3.5829e-05
960.141	-2.45178e-05
968.698	-4.33181e-05
977.256	-2.99319e-05
985.814	-1.50668e-05
994.371	-5.13011e-05
1002.93	-3.69424e-05
1011.49	-2.81107e-05
1020.04	-4.32699e-05
1028.6	-3.53543e-05
1037.16	-2.33394e-05
1045.72	-4.37407e-05
1054.27	-2.20071e-05
1062.83	-3.95056e-05
1071.39	-9.41803e-06
1079.95	-5.06074e-05
1088.51	-3.04803e-05
1097.06	-5.02522e-05
1105.62	-1.37341e-06
1114.18	-3.48819e-05
1122.74	-3.18135e-05
1131.29	-5.30899e-06
1139.85	-2.77287e-05
1148.41	-3.69902e-05
1156.97	-3.16754e-05
1165.52	-4.91261e-05
1174.08	-2.21299e-05
1182.64	-3.47876e-05
1191.2	-3.35018e-05
1199.75	-3.80178e-05
1208.31	-3.49389e-05
1216.87	-2.69082e-05
1225.43	-2.58765e-05
1233.98	7.65128e-06
1242.54	6.87923e-05
1251.1	0.000148282
1259.66	0.000379284
1268.22	0.000907688
1276.77	0.00725581
1285.33	0.0168219
1293.89	5.60614e-05
1302.45	-2.55377e-05
1311	-1.37375e-05
1319.56	-2.58639e-05
1328.12	-2.33197e-05
1336.68	-1.81948e-05
1345.23	-3.24941e-05
1353.79	-3.761e-05
1362.35	-4.09261e-05
1370.91	-2.90649e-05
1379.46	-2.80761e-05
1388.02	-3.56713e-05
1396.58	-2.35733e-05
1405.14	-3.26514e-05
1413.69	-2.11476e-05
1422.25	-2.24564e-05
1430.81	-3.16454e-05
1439.37	-3.44375e-05
1447.93	-1.9657e-06
1456.48	2.75005e-05
1465.04	-1.02107e-05
1473.6	1.44596e-05
1482.16	-4.05476e-05
1490.71	-6.11152e-08
1499.27	-2.24627e-05
1507.83	-1.81466e-05
1516.39	-7.57363e-07
1524.94	-5.9567e-07
1533.5	-2.73038e-05
1542.06	4.03458e-05
1550.62	-1.63503e-05
1559.17	-9.46157e-06
1567.73	-2.42437e-05
1576.29	5.09144e-05
1584.85	-3.14209e-05
1593.4	-3.1119e-05
1601.96	-2.74525e-05
1610.52	-2.79456e-05
1619.08	-3.15512e-05
1627.64	-2.56882e-05
1636.19	-2.36696e-05
1644.75	-3.52566e-05
1653.31	0.000109514
1661.87	-2.86613e-05
1670.42	-3.81348e-05
1678.98	-2.56753e-05
1687.54	-3.26964e-05
1696.1	3.27623e-05
1704.65	-1.93367e-05
1713.21	-1.78708e-05
1721.77	-4.05868e-05
1730.33	-2.73795e-05
1738.88	-2.54655e-05
1747.44	-2.33687e-05
1756	-3.3139e-05
1764.56	-3.217e-05
1773.11	-2.25164e-05
1781.67	-2.48364e-05
1790.23	-2.40075e-05
1798.79	-2.75746e-05
1807.35	-2.48079e-05
1815.9	-2.4815e-05
1824.46	-2.3863e-05
1833.02	-2.50982e-05
1841.58	-2.43881e-05
1850.13	-3.7744e-05
1858.69	-3.23747e-05
1867.25	-3.90745e-05
1875.81	-2.18724e-05
1884.36	-4.02638e-05
1892.92	-2.23851e-05
1901.48	-1.38424e-05
1910.04	-1.66726e-05
1918.59	-1.16263e-05
1927.15	-3.22031e-05
1935.71	-2.64791e-05
1944.27	-2.73593e-05
1952.82	-2.81549e-05
1961.38	-2.92259e-05
1969.94	-3.40516e-05
1978.5	-3.14513e-05
1987.06	-2.7126e-05
1995.61	-2.86046e-05
2004.17	-3.78932e-05
2012.73	-3.61162e-05
2021.29	-2.65648e-05
2029.84	-2.5913e-05
2038.4	-2.38252e-05
2046.96	-2.30257e-05
2055.52	-3.66617e-05
2064.07	-3.82462e-05
2072.63	-3.38191e-05
2081.19	-2.30401e-05
2089.75	-2.62758e-05
2098.3	-1.83707e-05
2106.86	-3.01706e-05
2115.42	-3.61055e-05
2123.98	-3.44958e-05
2132.53	-1.29054e-05
2141.09	-3.52865e-05
2149.65	-1.76603e-05
2158.21	-3.15732e-05
2166.77	-2.31521e-05
2175.32	-2.51818e-06
2183.88	6.94275e-05
2192.44	-2.00444e-05
2201	-3.09994e-05
2209.55	-3.4242e-05
2218.11	-2.73096e-05
2226.67	-2.50106e-05
2235.23	-1.67029e-05
2243.78	-2.79219e-05
2252.34	-3.40229e-05
2260.9	-3.92214e-05
2269.46	-2.00871e-05
2278.01	-1.61184e-05
2286.57	-2.09909e-05
2295.13	-2.41814e-05
2303.69	-5.09227e-05
2312.24	-2.07951e-05
2320.8	-1.50498e-05
2329.36	-2.49731e-05
2337.92	-1.49564e-05
2346.48	-3.11138e-05
2355.03	-1.90676e-05
2363.59	-2.89614e-05
2372.15	-2.36025e-05
2380.71	-1.02969e-05
2389.26	-2.92267e-05
2397.82	-1.62775e-05
2406.38	-3.21292e-05
2414.94	-2.59744e-05
2423.49	-2.51259e-05
2432.05	-2.35452e-05
2440.61	-3.43078e-05
2449.17	-2.26647e-05
2457.72	-1.47391e-05
2466.28	-1.76182e-05
2474.84	-2.21032e-05
2483.4	-2.52461e-05
2491.95	-2.16833e-05
2500.51	-3.56955e-05
2509.07	-2.55177e-05
2517.63	-2.82675e-05
2526.19	-3.77435e-05
2534.74	-1.87922e-05
2543.3	-2.35783e-05
2551.86	-6.33117e-05
2560.42	-0.000137874
2568.97	-0.000134999
2577.53	-3.14554e-05
2586.09	-1.37578e-05
2594.65	-1.16248e-05
2603.2	-6.94921e-06
2611.76	-1.92132e-05
2620.32	-1.56768e-05
2628.88	-3.53239e-05
2637.43	-3.28949e-05
2645.99	-2.72189e-05
2654.55	-3.8297e-05
2663.11	-3.69355e-05
2671.66	-1.85418e-05
2680.22	-3.85323e-05
2688.78	-1.93753e-05
2697.34	-2.75662e-05
2705.9	-9.84654e-06
2714.45	-3.09446e-05
2723.01	-3.03655e-05
2731.57	-3.90166e-05
2740.13	-3.02167e-05
2748.68	-1.23246e-05
2757.24	-2.23472e-05
2765.8	-2.86274e-05
2774.36	-2.81946e-05
2782.91	-1.5073e-05
2791.47	-2.19644e-05
2800.03	-3.03431e-05
2808.59	-3.71223e-05
2817.14	-2.97458e-05
2825.7	-2.58812e-05
2834.26	-2.51173e-05
2842.82	-3.40088e-05
2851.37	-2.03697e-05
2859.93	-1.85047e-05
2868.49	-1.72918e-05
2877.05	-2.48727e-05
2885.61	-2.24856e-05
2894.16	-1.33913e-05
2902.72	-3.36061e-05
2911.28	-4.06213e-05
2919.84	-2.67625e-05
2928.39	-3.80371e-05
2936.95	-2.03048e-05
2945.51	-2.72141e-05
2954.07	-3.3963e-05
2962.62	-2.59605e-05
2971.18	-1.75149e-05
2979.74	-3.31132e-05
2988.3	5.53157e-06
2996.85	-2.14679e-05
3005.41	-1.88527e-05
3013.97	-1.59044e-05
3022.53	-1.98022e-05
3031.08	-4.20684e-05
3039.64	-2.8959e-05
3048.2	-2.74549e-05
3056.76	-2.45335e-05
3065.32	-3.53572e-05
3073.87	-2.81222e-05
3082.43	-1.93161e-05
3090.99	-2.35677e-05
3099.55	-3.11599e-05
3108.1	-3.78915e-05
3116.66	-3.39778e-05
3125.22	-2.66317e-05
3133.78	-5.78197e-06
3142.33	-2.31203e-05
3150.89	-3.91748e-05
3159.45	-8.4892e-06
3168.01	-4.31239e-05
3176.56	-2.11775e-05
3185.12	-4.07703e-05
3193.68	-1.25374e-06
3202.24	-1.38895e-05
3210.79	-1.78466e-05
3219.35	-3.09277e-05
3227.91	-1.54092e-05
3236.47	-3.74404e-05
3245.03	-1.70258e-05
3253.58	-1.27271e-05
3262.14	-2.15885e-05
3270.7	-2.6419e-05
3279.26	-4.60105e-05
3287.81	-3.23252e-05
3296.37	-1.96115e-05
3304.93	-1.17046e-05
3313.49	-3.23314e-05
3322.04	-2.25483e-05
3330.6	-1.95089e-05
3339.16	-2.03239e-05
3347.72	-3.79505e-05
3356.27	-1.81325e-05
3364.83	-4.57717e-05
3373.39	-3.56776e-05
3381.95	4.44069e-06
3390.5	-2.55066e-05
3399.06	-2.26827e-05
3407.62	-2.29506e-05
3416.18	-2.58237e-05
3424.74	-1.00973e-05
3433.29	-4.3789e-05
3441.85	-2.06578e-05
3450.41	-7.04199e-06
3458.97	-1.00414e-05
3467.52	-2.0861e-05
3476.08	-2.46227e-05
3484.64	-9.35098e-06
3493.2	7.34838e-06
3501.75	-2.84799e-05
3510.31	-1.16497e-05
3518.87	-1.87886e-06
3527.43	-2.77587e-05
3535.98	-1.16576e-05
3544.54	-6.6349e-06
3553.1	-1.55852e-05
3561.66	-3.2958e-06
3570.21	-1.07526e-05
3578.77	-4.50074e-05
3587.33	-3.2862e-05
3595.89	-3.00242e-05
3604.45	-3.66548e-05
3613	-2.31012e-05
3621.56	-2.0728e-05
3630.12	-4.49962e-05
3638.68	-1.89025e-05
3647.23	5.28804e-06
3655.79	-2.11575e-05
3664.35	-1.75099e-05
3672.91	-2.96907e-05
3681.46	-4.58511e-05
3690.02	-2.43499e-05
3698.58	-1.79897e-05
3707.14	-3.3526e-05
3715.69	-2.72651e-05
3724.25	-5.95519e-06
3732.81	-3.64533e-05
3741.37	-2.11692e-05
3749.92	-2.1672e-06
3758.48	-2.73306e-05
3767.04	-1.47984e-05
3775.6	-6.1007e-06
3784.16	-2.64521e-05
3792.71	-1.78001e-05
3801.27	3.23899e-05
3809.83	-2.06935e-05
3818.39	2.7517e-06
3826.94	-2.51976e-05
3835.5	-2.68117e-05
3844.06	-3.06833e-05
3852.62	-1.45774e-05
3861.17	-4.53531e-05
3869.73	-1.33632e-05
3878.29	-2.69166e-05
3886.85	-2.82759e-05
3895.4	-4.54799e-05
3903.96	7.20624e-06
3912.52	-1.43598e-05
3921.08	-3.23109e-05
3929.63	-3.41138e-05
3938.19	-1.86896e-05
3946.75	-3.25458e-05
3955.31	-1.39151e-05
3963.87	-3.63278e-05
3972.42	-8.25929e-06
