Infrared Spectrum: Carbon tetrafluoride
Formula: C F4
CAS: 75-73-0
State: gas
Melting point: -150 C
Boiling point: -129 C
Class: IUPAC A
Instrument: IFS66V (Bruker)
Instrument parameters: KBr Beam Splitter; MCT Detector; Multipass cell
Sampling: 1 L/min Flow
Resolution: 0.2410
Temperature: 23 C
Pressure: 101.3 Pa
Origin: NIST, Analytical Chemistry Division, 301-975-3108
cm-1	(micromol/mol)-1m-1 (base 10)
575.048	-0.000292023
583.606	-0.000131531
592.163	-6.60566e-05
600.721	1.08392e-05
609.278	-7.23422e-05
617.836	-6.65202e-05
626.394	-3.62325e-05
634.951	-4.9851e-05
643.509	4.41619e-05
652.067	-2.65417e-05
660.624	-3.03212e-05
669.182	5.22227e-06
677.739	1.02938e-05
686.297	-7.16437e-05
694.855	-4.359e-05
703.412	-6.58235e-05
711.97	-3.61613e-05
720.528	-1.43988e-05
729.085	-2.19346e-05
737.643	-5.17828e-05
746.2	-4.76532e-05
754.758	-3.29778e-05
763.316	-1.93071e-05
771.873	-1.92203e-05
780.431	-7.323e-05
788.988	-8.90726e-05
797.546	-6.02879e-05
806.104	-6.25097e-05
814.661	-4.27238e-05
823.219	-6.34735e-05
831.777	-5.51324e-05
840.334	-4.95355e-05
848.892	-2.75501e-05
857.449	-7.27292e-05
866.007	-2.91131e-05
874.565	-1.75943e-05
883.122	-1.68733e-05
891.68	-2.28651e-05
900.238	-3.28059e-05
908.795	-6.25308e-06
917.353	-7.46409e-05
925.91	-1.39707e-05
934.468	-7.38691e-06
943.026	-1.49547e-05
951.583	-3.97049e-05
960.141	-2.63709e-05
968.698	-4.06401e-05
977.256	-2.8122e-05
985.814	-4.52393e-06
994.371	-6.20726e-05
1002.93	-4.04752e-05
1011.49	-2.56884e-05
1020.04	-3.90199e-05
1028.6	-4.19766e-05
1037.16	-3.13106e-05
1045.72	-4.88222e-05
1054.27	-2.48304e-05
1062.83	-4.6813e-05
1071.39	7.84708e-06
1079.95	-5.4621e-05
1088.51	-2.96541e-05
1097.06	-5.8942e-05
1105.62	5.39816e-06
1114.18	-4.05825e-05
1122.74	-3.52353e-05
1131.29	4.74138e-06
1139.85	-2.87208e-05
1148.41	-3.77347e-05
1156.97	-2.94332e-05
1165.52	-5.53971e-05
1174.08	-1.8042e-05
1182.64	-3.22966e-05
1191.2	-3.2069e-05
1199.75	-5.45107e-05
1208.31	-3.26969e-05
1216.87	-2.57592e-05
1225.43	-2.22534e-05
1233.98	-5.27384e-06
1242.54	7.6575e-05
1251.1	0.000130638
1259.66	0.000391996
1268.22	0.000872315
1276.77	0.00729332
1285.33	0.0168639
1293.89	2.7453e-05
1302.45	-1.39108e-05
1311	-2.47967e-05
1319.56	-1.98537e-05
1328.12	-2.99611e-05
1336.68	-6.27811e-06
1345.23	-3.96664e-05
1353.79	-2.70578e-05
1362.35	-4.32432e-05
1370.91	-1.75245e-05
1379.46	-3.52824e-05
1388.02	-2.67233e-05
1396.58	-3.28202e-05
1405.14	-3.39367e-05
1413.69	-2.906e-05
1422.25	-1.51408e-05
1430.81	-3.42973e-05
1439.37	-3.26769e-05
1447.93	4.69936e-06
1456.48	3.80372e-05
1465.04	-1.45134e-05
1473.6	1.86411e-05
1482.16	-4.88558e-05
1490.71	3.53875e-06
1499.27	-2.81107e-05
1507.83	-1.71323e-05
1516.39	-8.30143e-06
1524.94	4.00066e-06
1533.5	-3.29596e-05
1542.06	4.44854e-05
1550.62	-1.99165e-05
1559.17	-8.84076e-06
1567.73	-2.15747e-05
1576.29	4.83049e-05
1584.85	-3.26312e-05
1593.4	-2.92111e-05
1601.96	-2.7347e-05
1610.52	-2.98772e-05
1619.08	-2.97222e-05
1627.64	-2.50044e-05
1636.19	-2.6483e-05
1644.75	-3.78998e-05
1653.31	0.000118897
1661.87	-2.66132e-05
1670.42	-4.36418e-05
1678.98	-2.20478e-05
1687.54	-3.59092e-05
1696.1	1.97294e-05
1704.65	-2.04878e-05
1713.21	-1.80914e-05
1721.77	-4.28559e-05
1730.33	-3.0172e-05
1738.88	-2.31889e-05
1747.44	-2.13715e-05
1756	-3.66551e-05
1764.56	-3.09083e-05
1773.11	-2.56968e-05
1781.67	-2.40452e-05
1790.23	-2.35454e-05
1798.79	-2.22609e-05
1807.35	-2.52096e-05
1815.9	-2.65974e-05
1824.46	-2.23345e-05
1833.02	-2.44165e-05
1841.58	-2.45243e-05
1850.13	-3.62673e-05
1858.69	-3.16969e-05
1867.25	-4.32603e-05
1875.81	-1.68471e-05
1884.36	-4.25036e-05
1892.92	-2.25501e-05
1901.48	-1.22445e-05
1910.04	-1.32938e-05
1918.59	-7.95127e-06
1927.15	-3.40888e-05
1935.71	-2.34035e-05
1944.27	-2.80042e-05
1952.82	-3.00871e-05
1961.38	-3.00507e-05
1969.94	-3.43079e-05
1978.5	-3.17897e-05
1987.06	-2.20479e-05
1995.61	-2.83697e-05
2004.17	-4.27658e-05
2012.73	-3.8695e-05
2021.29	-2.64354e-05
2029.84	-2.39015e-05
2038.4	-2.6787e-05
2046.96	-1.80635e-05
2055.52	-4.40438e-05
2064.07	-3.86279e-05
2072.63	-3.44812e-05
2081.19	-1.61812e-05
2089.75	-2.53065e-05
2098.3	-1.72754e-05
2106.86	-3.38424e-05
2115.42	-3.26676e-05
2123.98	-3.71801e-05
2132.53	-1.34025e-05
2141.09	-3.62241e-05
2149.65	-1.14925e-05
2158.21	-3.57343e-05
2166.77	-2.49829e-05
2175.32	1.8912e-06
2183.88	6.83949e-05
2192.44	-2.16342e-05
2201	-3.01548e-05
2209.55	-3.66267e-05
2218.11	-2.37741e-05
2226.67	-2.1986e-05
2235.23	-1.87732e-05
2243.78	-2.41215e-05
2252.34	-3.56578e-05
2260.9	-4.75354e-05
2269.46	-1.17728e-05
2278.01	-1.30467e-05
2286.57	-1.58953e-05
2295.13	-2.32691e-05
2303.69	-5.63213e-05
2312.24	-1.41159e-05
2320.8	-1.12199e-05
2329.36	-2.67267e-05
2337.92	-9.9456e-06
2346.48	-3.03674e-05
2355.03	-2.15542e-05
2363.59	-2.60964e-05
2372.15	-1.98023e-05
2380.71	-6.74142e-06
2389.26	-2.82834e-05
2397.82	-1.62902e-05
2406.38	-3.15671e-05
2414.94	-2.13048e-05
2423.49	-2.46977e-05
2432.05	-1.78393e-05
2440.61	-3.52831e-05
2449.17	-2.21101e-05
2457.72	-1.03982e-05
2466.28	-1.46437e-05
2474.84	-2.27118e-05
2483.4	-2.53667e-05
2491.95	-1.97783e-05
2500.51	-4.36324e-05
2509.07	-2.5377e-05
2517.63	-2.47881e-05
2526.19	-4.42729e-05
2534.74	-1.84568e-05
2543.3	-2.37459e-05
2551.86	-6.45482e-05
2560.42	-0.000144712
2568.97	-0.000132848
2577.53	-3.92507e-05
2586.09	-1.49099e-05
2594.65	-1.09642e-05
2603.2	-9.4788e-06
2611.76	-1.67429e-05
2620.32	-1.73393e-05
2628.88	-3.45608e-05
2637.43	-3.28418e-05
2645.99	-2.14987e-05
2654.55	-3.7216e-05
2663.11	-3.8484e-05
2671.66	-1.42553e-05
2680.22	-3.88933e-05
2688.78	-2.34117e-05
2697.34	-2.89669e-05
2705.9	-1.00788e-05
2714.45	-3.70502e-05
2723.01	-4.12959e-05
2731.57	-4.41933e-05
2740.13	-3.15252e-05
2748.68	-8.89291e-06
2757.24	-2.55012e-05
2765.8	-3.23885e-05
2774.36	-3.70846e-05
2782.91	-1.37934e-05
2791.47	-2.28377e-05
2800.03	-3.09112e-05
2808.59	-3.64119e-05
2817.14	-3.52175e-05
2825.7	-2.80358e-05
2834.26	-2.422e-05
2842.82	-3.47224e-05
2851.37	-2.32659e-05
2859.93	-1.80302e-05
2868.49	-1.78646e-05
2877.05	-2.30074e-05
2885.61	-2.27536e-05
2894.16	-9.97168e-06
2902.72	-3.14161e-05
2911.28	-4.27591e-05
2919.84	-2.80291e-05
2928.39	-4.04451e-05
2936.95	-1.7682e-05
2945.51	-2.45036e-05
2954.07	-3.7386e-05
2962.62	-3.45662e-05
2971.18	-1.47171e-05
2979.74	-3.89733e-05
2988.3	1.17085e-05
2996.85	-2.47473e-05
3005.41	-2.09311e-05
3013.97	-1.61966e-05
3022.53	-2.19625e-05
3031.08	-4.22367e-05
3039.64	-3.32561e-05
3048.2	-2.11937e-05
3056.76	-2.81401e-05
3065.32	-3.40001e-05
3073.87	-4.18066e-05
3082.43	-1.92273e-05
3090.99	-2.44466e-05
3099.55	-2.98997e-05
3108.1	-4.66879e-05
3116.66	-3.631e-05
3125.22	-3.1097e-05
3133.78	-3.26064e-07
3142.33	-2.22428e-05
3150.89	-2.92539e-05
3159.45	-3.93978e-06
3168.01	-4.24165e-05
3176.56	-3.02354e-05
3185.12	-4.20877e-05
3193.68	3.76877e-06
3202.24	-2.21695e-05
3210.79	-4.68073e-06
3219.35	-3.87092e-05
3227.91	-2.03449e-05
3236.47	-3.93403e-05
3245.03	-3.91522e-06
3253.58	-1.06303e-05
3262.14	-1.54345e-05
3270.7	-3.11333e-05
3279.26	-5.57426e-05
3287.81	-3.31135e-05
3296.37	-1.92364e-05
3304.93	-1.69813e-05
3313.49	-2.53257e-05
3322.04	-1.94909e-05
3330.6	-2.34887e-05
3339.16	-1.76239e-05
3347.72	-4.64214e-05
3356.27	-2.77854e-05
3364.83	-5.31782e-05
3373.39	-3.97343e-05
3381.95	3.0617e-06
3390.5	-2.79468e-05
3399.06	-2.308e-05
3407.62	-2.90119e-05
3416.18	-3.4976e-05
3424.74	-8.22786e-06
3433.29	-5.83057e-05
3441.85	-1.42822e-05
3450.41	-4.72741e-06
3458.97	-1.17219e-05
3467.52	-1.87972e-05
3476.08	-1.97324e-05
3484.64	-1.42489e-05
3493.2	1.33729e-05
3501.75	-2.44971e-05
3510.31	-6.23469e-06
3518.87	4.13616e-06
3527.43	-1.89662e-05
3535.98	-1.07611e-05
3544.54	-8.35172e-06
3553.1	-1.127e-05
3561.66	-4.0208e-06
3570.21	-1.05994e-05
3578.77	-5.29336e-05
3587.33	-3.62642e-05
3595.89	-2.30059e-05
3604.45	-4.29475e-05
3613	-3.07285e-05
3621.56	-1.46325e-05
3630.12	-4.99518e-05
3638.68	-1.80869e-05
3647.23	1.50353e-05
3655.79	-2.65599e-05
3664.35	-1.63015e-05
3672.91	-2.5664e-05
3681.46	-5.80553e-05
3690.02	-2.15755e-05
3698.58	-3.31163e-05
3707.14	-5.00323e-05
3715.69	-2.64348e-05
3724.25	-1.30704e-05
3732.81	-4.2299e-05
3741.37	-3.00181e-05
3749.92	-3.77331e-06
3758.48	-3.07655e-05
3767.04	-1.7012e-05
3775.6	-6.26391e-06
3784.16	-1.92808e-05
3792.71	-1.87902e-05
3801.27	2.9813e-05
3809.83	-2.52922e-05
3818.39	7.88037e-06
3826.94	-2.14562e-05
3835.5	-2.35882e-05
3844.06	-2.75992e-05
3852.62	-1.56211e-05
3861.17	-4.38943e-05
3869.73	-1.45816e-05
3878.29	-2.99292e-05
3886.85	-3.69604e-05
3895.4	-4.01592e-05
3903.96	1.27645e-05
3912.52	-1.42128e-05
3921.08	-3.99903e-05
3929.63	-4.3856e-05
3938.19	-2.20065e-05
3946.75	-2.00214e-05
3955.31	-6.51523e-06
3963.87	-2.03573e-05
3972.42	-9.87087e-06
