Infrared Spectrum: Carbon tetrafluoride
Formula: C F4
CAS: 75-73-0
State: gas
Melting point: -150 C
Boiling point: -129 C
Class: IUPAC A
Instrument: IFS66V (Bruker)
Instrument parameters: KBr Beam Splitter; MCT Detector; Multipass cell
Sampling: 1 L/min Flow
Resolution: 0.4820
Temperature: 23 C
Pressure: 101.3 Pa
Origin: NIST, Analytical Chemistry Division, 301-975-3108
cm-1	(micromol/mol)-1m-1 (base 10)
575.168	-0.000178364
583.846	1.15045e-05
592.524	3.01457e-05
601.202	-3.27083e-05
609.881	-1.85224e-05
618.559	1.027e-06
627.237	-3.62728e-05
635.915	-4.0089e-05
644.593	-4.22179e-05
653.271	-1.87338e-05
661.949	-3.07043e-05
670.628	-2.40214e-05
679.306	-3.34169e-05
687.984	-3.43212e-05
696.662	-4.05656e-05
705.34	-1.07188e-05
714.018	-2.63042e-05
722.697	-2.67349e-05
731.375	-3.40616e-05
740.053	-2.72994e-05
748.731	-2.71489e-05
757.409	-3.36776e-05
766.087	-2.20499e-05
774.765	-3.17782e-05
783.444	-3.86341e-05
792.122	-3.01168e-05
800.8	-2.98591e-05
809.478	-1.674e-05
818.156	-3.88609e-05
826.834	-3.47114e-05
835.512	-4.88238e-05
844.191	-3.20721e-05
852.869	-2.56316e-05
861.547	-2.38324e-05
870.225	-4.21643e-05
878.903	-2.30077e-05
887.581	-3.19645e-05
896.26	-3.00395e-05
904.938	-3.76426e-05
913.616	-3.71871e-05
922.294	-3.02974e-05
930.972	-3.13493e-05
939.65	-4.31963e-05
948.328	-2.09191e-05
957.007	-4.73179e-05
965.685	-2.90509e-05
974.363	-2.44897e-05
983.041	-2.44476e-05
991.719	-2.73635e-05
1000.4	-2.57793e-05
1009.08	-2.91201e-05
1017.75	-2.97431e-05
1026.43	-2.68689e-05
1035.11	-3.58182e-05
1043.79	-2.61071e-05
1052.47	-2.88252e-05
1061.14	-2.43388e-05
1069.82	-2.15482e-05
1078.5	-2.95793e-05
1087.18	-4.1864e-05
1095.86	-2.87993e-05
1104.54	-1.49582e-05
1113.21	-3.87802e-05
1121.89	-2.8071e-05
1130.57	-3.91007e-05
1139.25	-3.14811e-05
1147.93	-3.26325e-05
1156.6	-3.1965e-05
1165.28	-3.18876e-05
1173.96	-2.28947e-05
1182.64	-4.04363e-05
1191.32	-4.26276e-05
1199.99	-2.69428e-05
1208.67	-2.44518e-05
1217.35	-2.67879e-05
1226.03	-2.50521e-05
1234.71	2.79576e-05
1243.39	0.00039568
1252.06	0.000191356
1260.74	0.000684783
1269.42	0.00108869
1278.1	0.0104998
1286.78	0.00509789
1295.45	3.3615e-05
1304.13	-1.6042e-05
1312.81	-1.46283e-05
1321.49	-2.95627e-05
1330.17	-2.6833e-05
1338.85	-1.94269e-05
1347.52	-2.89144e-05
1356.2	1.09432e-05
1364.88	-3.04553e-05
1373.56	-2.34838e-05
1382.24	-2.51537e-05
1390.91	-3.42539e-05
1399.59	-1.5788e-05
1408.27	-2.53124e-05
1416.95	-2.92026e-05
1425.63	-2.29263e-05
1434.3	-3.34383e-05
1442.98	-3.01524e-05
1451.66	-2.5911e-05
1460.34	-2.2219e-05
1469.02	-2.55147e-05
1477.7	-2.34891e-05
1486.37	-2.03816e-05
1495.05	-2.31993e-05
1503.73	-2.27426e-05
1512.41	-3.41541e-06
1521.09	4.21814e-05
1529.76	-6.25568e-06
1538.44	7.13072e-05
1547.12	-2.51256e-05
1555.8	-7.99316e-06
1564.48	-1.41013e-05
1573.16	-2.64585e-05
1581.83	-2.95186e-05
1590.51	-3.81588e-05
1599.19	-2.41192e-05
1607.87	-2.52439e-05
1616.55	2.46094e-05
1625.22	-3.35436e-05
1633.9	-2.25698e-05
1642.58	-2.45841e-05
1651.26	-2.34636e-05
1659.94	-2.37987e-05
1668.61	-2.08995e-05
1677.29	-2.74099e-05
1685.97	-2.49567e-05
1694.65	-1.98771e-05
1703.33	-2.22979e-05
1712.01	-3.07482e-05
1720.68	-2.35021e-05
1729.36	-2.68815e-05
1738.04	-2.49086e-05
1746.72	-3.05175e-05
1755.4	-3.00185e-05
1764.07	-3.5363e-05
1772.75	1.66139e-05
1781.43	-2.9882e-05
1790.11	-2.6597e-05
1798.79	-2.88116e-05
1807.47	-2.57927e-05
1816.14	-1.90928e-05
1824.82	-2.2051e-05
1833.5	-2.55309e-05
1842.18	-2.75976e-05
1850.86	-3.17486e-05
1859.53	-3.01549e-05
1868.21	-2.7753e-05
1876.89	-2.7432e-05
1885.57	-2.25827e-05
1894.25	-2.68881e-05
1902.92	-2.92497e-05
1911.6	-1.94106e-05
1920.28	-2.446e-05
1928.96	-2.38766e-05
1937.64	-2.64922e-05
1946.32	-2.77313e-05
1954.99	-2.72439e-05
1963.67	-2.28612e-05
1972.35	-2.91627e-05
1981.03	-3.19771e-05
1989.71	-3.19987e-05
1998.38	-3.37397e-05
2007.06	-2.71679e-05
2015.74	-2.18429e-05
2024.42	-2.92706e-05
2033.1	-3.08869e-05
2041.78	-2.87633e-05
2050.45	-2.41306e-05
2059.13	-2.98138e-05
2067.81	-2.83324e-05
2076.49	-3.33339e-05
2085.17	-2.92101e-05
2093.84	-2.36347e-05
2102.52	-3.20531e-05
2111.2	-2.71775e-05
2119.88	-2.65274e-05
2128.56	-2.55552e-05
2137.23	-2.71986e-05
2145.91	-2.07529e-05
2154.59	-2.94103e-05
2163.27	-2.22398e-05
2171.95	-1.56605e-05
2180.63	2.61135e-05
2189.3	7.17075e-06
2197.98	-2.26464e-05
2206.66	-2.94155e-05
2215.34	-2.95199e-05
2224.02	-2.11798e-05
2232.69	-2.96504e-05
2241.37	-2.02061e-05
2250.05	-1.9962e-05
2258.73	-2.68299e-05
2267.41	-2.66411e-05
2276.09	-2.4779e-05
2284.76	-2.8247e-05
2293.44	-2.60213e-05
2302.12	-2.30835e-05
2310.8	-2.07587e-05
2319.48	-2.18246e-05
2328.15	-2.33073e-05
2336.83	-1.55109e-05
2345.51	-2.37237e-05
2354.19	-1.34775e-05
2362.87	6.35673e-06
2371.54	-1.82961e-05
2380.22	-2.63299e-05
2388.9	-2.86867e-05
2397.58	-2.23928e-05
2406.26	-3.52484e-05
2414.94	-2.70717e-05
2423.61	-2.60482e-05
2432.29	-3.0857e-05
2440.97	-3.35305e-05
2449.65	-2.52673e-05
2458.33	-1.80874e-05
2467	-2.88098e-05
2475.68	-2.7852e-05
2484.36	-2.89986e-05
2493.04	-3.12441e-05
2501.72	-2.81168e-05
2510.4	-3.40145e-05
2519.07	-2.58196e-05
2527.75	-2.66635e-05
2536.43	-1.74083e-05
2545.11	-2.33891e-05
2553.79	-6.02288e-05
2562.46	-9.17582e-05
2571.14	-9.82817e-05
2579.82	-1.97103e-05
2588.5	-1.89937e-05
2597.18	-2.10444e-05
2605.85	-2.53649e-05
2614.53	-2.0761e-05
2623.21	-2.66876e-05
2631.89	-2.27669e-05
2640.57	-1.60702e-05
2649.25	-2.09532e-05
2657.92	-3.29507e-05
2666.6	-3.17942e-05
2675.28	-2.04067e-05
2683.96	-2.33886e-05
2692.64	-3.35207e-05
2701.31	-2.3008e-05
2709.99	-1.35721e-05
2718.67	-2.2393e-05
2727.35	-2.3285e-05
2736.03	-1.5288e-05
2744.71	-2.92343e-05
2753.38	-1.85077e-05
2762.06	-2.54817e-05
2770.74	-2.4057e-05
2779.42	-3.09225e-05
2788.1	-2.63346e-05
2796.77	-2.11034e-05
2805.45	-2.63496e-05
2814.13	-2.74532e-05
2822.81	-2.44758e-05
2831.49	-2.32628e-05
2840.16	-1.94675e-05
2848.84	-2.58777e-05
2857.52	-1.76197e-05
2866.2	-1.99875e-05
2874.88	-2.12074e-05
2883.56	-2.32292e-05
2892.23	-1.92702e-05
2900.91	-1.97881e-05
2909.59	-1.31387e-05
2918.27	-2.84977e-05
2926.95	-2.53544e-05
2935.62	-2.30553e-05
2944.3	-2.65897e-05
2952.98	-7.76557e-06
2961.66	-2.01874e-05
2970.34	-3.29588e-05
2979.02	-2.87936e-05
2987.69	-2.68193e-05
2996.37	-2.3535e-05
3005.05	-2.7129e-05
3013.73	-2.70087e-05
3022.41	-3.03437e-05
3031.08	-3.62418e-05
3039.76	-2.75679e-05
3048.44	-2.19357e-05
3057.12	-2.35042e-05
3065.8	-1.84316e-05
3074.48	-1.65446e-05
3083.15	-1.22741e-05
3091.83	-2.14623e-05
3100.51	-1.83546e-05
3109.19	-1.84682e-05
3117.87	-1.41694e-05
3126.54	-1.72973e-05
3135.22	-1.45884e-05
3143.9	-2.5644e-05
3152.58	-2.39061e-05
3161.26	-2.16401e-05
3169.93	-1.50526e-05
3178.61	-7.91126e-06
3187.29	-2.5565e-05
3195.97	-1.98259e-05
3204.65	-2.65114e-05
3213.33	-2.19757e-05
3222	-1.38118e-05
3230.68	-1.70913e-05
3239.36	-1.16774e-05
3248.04	-2.19144e-05
3256.72	-2.86831e-05
3265.39	-2.02606e-05
3274.07	-1.4057e-05
3282.75	-1.6714e-05
3291.43	-1.78582e-05
3300.11	-2.95672e-05
3308.79	-1.89034e-05
3317.46	-4.28507e-05
3326.14	-2.24493e-05
3334.82	-2.41058e-05
3343.5	-2.71883e-05
3352.18	-1.36006e-05
3360.85	-5.16913e-06
3369.53	-2.28442e-05
3378.21	-2.40394e-05
3386.89	-1.93582e-05
3395.57	-1.82418e-05
3404.24	-9.49414e-06
3412.92	-2.03762e-05
3421.6	-1.1927e-05
3430.28	-1.21261e-05
3438.96	-4.50074e-06
3447.64	-2.84405e-05
3456.31	-2.60346e-05
3464.99	-1.29268e-05
3473.67	-2.49159e-05
3482.35	-2.88137e-05
3491.03	-1.77794e-05
3499.7	-4.3863e-06
3508.38	-8.66726e-06
3517.06	-3.16045e-05
3525.74	-2.56769e-05
3534.42	-1.27551e-05
3543.1	-2.67546e-05
3551.77	-1.62685e-05
3560.45	-2.99473e-05
3569.13	-2.45051e-05
3577.81	-1.97499e-05
3586.49	-1.43382e-05
3595.16	-2.92921e-05
3603.84	-1.75833e-05
3612.52	-2.49702e-06
3621.2	-2.06027e-05
3629.88	-6.04293e-06
3638.55	-1.25543e-05
3647.23	-4.55493e-06
3655.91	-5.45894e-06
3664.59	-5.03979e-06
3673.27	-2.23855e-05
3681.95	-2.73736e-05
3690.62	-1.19788e-05
3699.3	-2.3937e-05
3707.98	-2.27701e-05
3716.66	-3.00973e-05
3725.34	-1.69264e-05
3734.01	-2.19653e-05
3742.69	-2.21531e-05
3751.37	-1.75807e-05
3760.05	1.56938e-06
3768.73	-1.51651e-05
3777.41	-1.56471e-05
3786.08	-2.29751e-05
3794.76	-3.13221e-05
3803.44	-1.3839e-05
3812.12	-1.34577e-05
3820.8	-7.00271e-06
3829.47	-2.33087e-05
3838.15	-9.01603e-06
3846.83	-1.08344e-05
3855.51	-4.17594e-05
3864.19	-1.27029e-05
3872.86	-2.23776e-05
3881.54	-2.43228e-05
3890.22	-1.48035e-05
3898.9	-2.39811e-05
3907.58	-7.27948e-06
3916.26	-1.64856e-05
3924.93	-3.03986e-05
3933.61	-1.50829e-05
3942.29	-2.23259e-05
3950.97	-7.43204e-06
3959.65	-1.5665e-05
3968.32	-1.78e-05
