Infrared Spectrum: Carbon tetrafluoride
Formula: C F4
CAS: 75-73-0
State: gas
Melting point: -150 C
Boiling point: -129 C
Class: IUPAC A
Instrument: IFS66V (Bruker)
Instrument parameters: KBr Beam Splitter; MCT Detector; Multipass cell
Sampling: 1 L/min Flow
Resolution: 0.4820
Temperature: 23 C
Pressure: 101.3 Pa
Origin: NIST, Analytical Chemistry Division, 301-975-3108
cm-1	(micromol/mol)-1m-1 (base 10)
575.168	-0.000145929
583.846	-7.25841e-08
592.524	1.38538e-05
601.202	-2.42933e-05
609.881	-1.43469e-05
618.559	-1.68765e-06
627.237	-3.72298e-05
635.915	-3.6264e-05
644.593	-3.37903e-05
653.271	-1.26619e-05
661.949	-3.04607e-05
670.628	-2.60313e-05
679.306	-3.06754e-05
687.984	-3.70315e-05
696.662	-4.22663e-05
705.34	-1.30229e-05
714.018	-2.5191e-05
722.697	-2.71353e-05
731.375	-3.37976e-05
740.053	-2.79891e-05
748.731	-2.79989e-05
757.409	-3.14564e-05
766.087	-2.34891e-05
774.765	-2.93759e-05
783.444	-3.82788e-05
792.122	-3.20995e-05
800.8	-2.93729e-05
809.478	-1.94265e-05
818.156	-3.70724e-05
826.834	-3.40703e-05
835.512	-4.47557e-05
844.191	-3.3085e-05
852.869	-2.63343e-05
861.547	-2.43509e-05
870.225	-3.89818e-05
878.903	-2.33113e-05
887.581	-3.29863e-05
896.26	-2.6645e-05
904.938	-3.36936e-05
913.616	-3.68993e-05
922.294	-3.27998e-05
930.972	-3.05136e-05
939.65	-4.24771e-05
948.328	-2.23694e-05
957.007	-4.25731e-05
965.685	-2.83321e-05
974.363	-2.33949e-05
983.041	-2.49541e-05
991.719	-2.90342e-05
1000.4	-2.47645e-05
1009.08	-2.82457e-05
1017.75	-2.85284e-05
1026.43	-2.8035e-05
1035.11	-3.48557e-05
1043.79	-2.57938e-05
1052.47	-2.60525e-05
1061.14	-2.20631e-05
1069.82	-2.25063e-05
1078.5	-2.84569e-05
1087.18	-3.89623e-05
1095.86	-2.71952e-05
1104.54	-1.59671e-05
1113.21	-3.68251e-05
1121.89	-2.75363e-05
1130.57	-3.77359e-05
1139.25	-3.00176e-05
1147.93	-3.1525e-05
1156.6	-3.07188e-05
1165.28	-3.11501e-05
1173.96	-2.35532e-05
1182.64	-3.67874e-05
1191.32	-3.92207e-05
1199.99	-2.54173e-05
1208.67	-2.26068e-05
1217.35	-2.54799e-05
1226.03	-2.35543e-05
1234.71	3.03462e-05
1243.39	0.000385713
1252.06	0.000195863
1260.74	0.000694394
1269.42	0.00109714
1278.1	0.0105538
1286.78	0.00506811
1295.45	2.28819e-05
1304.13	-2.34418e-05
1312.81	-2.02836e-05
1321.49	-3.27828e-05
1330.17	-2.91756e-05
1338.85	-2.23428e-05
1347.52	-3.22705e-05
1356.2	7.40696e-06
1364.88	-3.21977e-05
1373.56	-2.46424e-05
1382.24	-2.89059e-05
1390.91	-3.44648e-05
1399.59	-1.78205e-05
1408.27	-2.68514e-05
1416.95	-2.99101e-05
1425.63	-2.38039e-05
1434.3	-3.41302e-05
1442.98	-3.12499e-05
1451.66	-2.76092e-05
1460.34	-2.4638e-05
1469.02	-2.69788e-05
1477.7	-2.4055e-05
1486.37	-2.22973e-05
1495.05	-2.35486e-05
1503.73	-2.31326e-05
1512.41	-4.75604e-06
1521.09	3.92705e-05
1529.76	-7.55271e-06
1538.44	7.74207e-05
1547.12	-2.51783e-05
1555.8	-8.1803e-06
1564.48	-1.45039e-05
1573.16	-2.72166e-05
1581.83	-2.96247e-05
1590.51	-3.76351e-05
1599.19	-2.52586e-05
1607.87	-2.59068e-05
1616.55	2.03884e-05
1625.22	-3.38157e-05
1633.9	-2.36352e-05
1642.58	-2.46821e-05
1651.26	-2.51645e-05
1659.94	-2.36816e-05
1668.61	-2.07612e-05
1677.29	-2.76023e-05
1685.97	-2.49396e-05
1694.65	-1.91484e-05
1703.33	-2.35716e-05
1712.01	-3.09169e-05
1720.68	-2.41468e-05
1729.36	-2.65586e-05
1738.04	-2.56089e-05
1746.72	-2.85829e-05
1755.4	-2.99648e-05
1764.07	-3.49092e-05
1772.75	9.85724e-06
1781.43	-2.90206e-05
1790.11	-2.69125e-05
1798.79	-2.81922e-05
1807.47	-2.52781e-05
1816.14	-2.02601e-05
1824.82	-2.19415e-05
1833.5	-2.61767e-05
1842.18	-2.94552e-05
1850.86	-3.20659e-05
1859.53	-3.07478e-05
1868.21	-2.73435e-05
1876.89	-2.77252e-05
1885.57	-2.30564e-05
1894.25	-2.60152e-05
1902.92	-2.90892e-05
1911.6	-2.02832e-05
1920.28	-2.50439e-05
1928.96	-2.41155e-05
1937.64	-2.70493e-05
1946.32	-2.75986e-05
1954.99	-2.78691e-05
1963.67	-2.34628e-05
1972.35	-2.91246e-05
1981.03	-3.10531e-05
1989.71	-3.10942e-05
1998.38	-3.30122e-05
2007.06	-2.67723e-05
2015.74	-2.26712e-05
2024.42	-2.98394e-05
2033.1	-3.11232e-05
2041.78	-2.89256e-05
2050.45	-2.4924e-05
2059.13	-2.98385e-05
2067.81	-2.79005e-05
2076.49	-3.40351e-05
2085.17	-2.97957e-05
2093.84	-2.46078e-05
2102.52	-3.11804e-05
2111.2	-2.68809e-05
2119.88	-2.74525e-05
2128.56	-2.57364e-05
2137.23	-2.77714e-05
2145.91	-2.1609e-05
2154.59	-3.00214e-05
2163.27	-2.32935e-05
2171.95	-1.52373e-05
2180.63	2.65001e-05
2189.3	8.39496e-06
2197.98	-2.32933e-05
2206.66	-2.95034e-05
2215.34	-2.91871e-05
2224.02	-2.20375e-05
2232.69	-2.92335e-05
2241.37	-2.20173e-05
2250.05	-2.31519e-05
2258.73	-2.68778e-05
2267.41	-2.63819e-05
2276.09	-2.54211e-05
2284.76	-2.8027e-05
2293.44	-2.62901e-05
2302.12	-2.37224e-05
2310.8	-2.03459e-05
2319.48	-2.06e-05
2328.15	-2.22113e-05
2336.83	-1.60167e-05
2345.51	-2.20032e-05
2354.19	-1.40552e-05
2362.87	1.19371e-06
2371.54	-1.83017e-05
2380.22	-2.45826e-05
2388.9	-2.8352e-05
2397.58	-2.268e-05
2406.26	-3.40656e-05
2414.94	-2.68942e-05
2423.61	-2.58025e-05
2432.29	-2.93579e-05
2440.97	-3.28169e-05
2449.65	-2.56192e-05
2458.33	-2.0673e-05
2467	-2.85114e-05
2475.68	-2.80067e-05
2484.36	-2.88121e-05
2493.04	-3.1306e-05
2501.72	-2.69855e-05
2510.4	-3.30058e-05
2519.07	-2.57647e-05
2527.75	-2.62423e-05
2536.43	-1.66851e-05
2545.11	-2.4948e-05
2553.79	-5.99372e-05
2562.46	-9.27447e-05
2571.14	-9.86256e-05
2579.82	-1.90283e-05
2588.5	-1.88697e-05
2597.18	-2.03524e-05
2605.85	-2.3076e-05
2614.53	-2.00393e-05
2623.21	-2.60119e-05
2631.89	-2.37698e-05
2640.57	-1.67101e-05
2649.25	-2.07659e-05
2657.92	-3.21112e-05
2666.6	-3.00331e-05
2675.28	-2.08669e-05
2683.96	-2.34604e-05
2692.64	-3.25615e-05
2701.31	-2.3268e-05
2709.99	-1.45019e-05
2718.67	-2.22926e-05
2727.35	-2.37146e-05
2736.03	-1.55963e-05
2744.71	-2.87506e-05
2753.38	-1.84239e-05
2762.06	-2.59855e-05
2770.74	-2.36292e-05
2779.42	-3.05258e-05
2788.1	-2.70872e-05
2796.77	-2.1772e-05
2805.45	-2.62632e-05
2814.13	-2.77041e-05
2822.81	-2.57606e-05
2831.49	-2.43922e-05
2840.16	-1.94053e-05
2848.84	-2.49223e-05
2857.52	-1.82205e-05
2866.2	-2.12925e-05
2874.88	-2.04718e-05
2883.56	-2.37737e-05
2892.23	-2.06482e-05
2900.91	-2.12144e-05
2909.59	-1.3468e-05
2918.27	-2.7665e-05
2926.95	-2.54494e-05
2935.62	-2.34919e-05
2944.3	-2.78019e-05
2952.98	-1.0554e-05
2961.66	-2.19308e-05
2970.34	-3.19573e-05
2979.02	-2.92912e-05
2987.69	-2.65561e-05
2996.37	-2.26402e-05
3005.05	-2.60454e-05
3013.73	-2.84609e-05
3022.41	-2.86764e-05
3031.08	-3.45101e-05
3039.76	-2.79777e-05
3048.44	-2.20975e-05
3057.12	-2.29442e-05
3065.8	-1.73346e-05
3074.48	-1.72854e-05
3083.15	-1.42346e-05
3091.83	-2.32609e-05
3100.51	-1.87466e-05
3109.19	-1.82279e-05
3117.87	-1.33991e-05
3126.54	-1.79833e-05
3135.22	-1.44543e-05
3143.9	-2.54686e-05
3152.58	-2.44381e-05
3161.26	-2.16742e-05
3169.93	-1.64328e-05
3178.61	-1.04107e-05
3187.29	-2.62894e-05
3195.97	-1.84109e-05
3204.65	-2.55913e-05
3213.33	-2.22416e-05
3222	-1.62199e-05
3230.68	-1.78592e-05
3239.36	-1.36206e-05
3248.04	-2.29983e-05
3256.72	-2.8553e-05
3265.39	-2.07135e-05
3274.07	-1.7067e-05
3282.75	-1.71553e-05
3291.43	-1.69489e-05
3300.11	-2.7793e-05
3308.79	-1.8421e-05
3317.46	-4.00111e-05
3326.14	-2.25721e-05
3334.82	-2.39822e-05
3343.5	-2.53323e-05
3352.18	-1.43634e-05
3360.85	-9.33763e-06
3369.53	-2.43551e-05
3378.21	-2.3e-05
3386.89	-1.81439e-05
3395.57	-2.02882e-05
3404.24	-1.21002e-05
3412.92	-1.90883e-05
3421.6	-1.0201e-05
3430.28	-1.45977e-05
3438.96	-6.54718e-06
3447.64	-2.64058e-05
3456.31	-2.60475e-05
3464.99	-1.11364e-05
3473.67	-2.44804e-05
3482.35	-2.83139e-05
3491.03	-1.84766e-05
3499.7	-7.57803e-06
3508.38	-1.08268e-05
3517.06	-3.12278e-05
3525.74	-2.32688e-05
3534.42	-1.43428e-05
3543.1	-2.63732e-05
3551.77	-1.55879e-05
3560.45	-2.83527e-05
3569.13	-2.3806e-05
3577.81	-2.10384e-05
3586.49	-1.46894e-05
3595.16	-2.84188e-05
3603.84	-1.85674e-05
3612.52	-4.09771e-06
3621.2	-2.08762e-05
3629.88	-5.29334e-06
3638.55	-1.19483e-05
3647.23	-5.19352e-06
3655.91	-3.83765e-06
3664.59	-6.10877e-06
3673.27	-2.19393e-05
3681.95	-2.59388e-05
3690.62	-1.05089e-05
3699.3	-2.22681e-05
3707.98	-2.25586e-05
3716.66	-2.85434e-05
3725.34	-1.60256e-05
3734.01	-2.1115e-05
3742.69	-2.19288e-05
3751.37	-1.74364e-05
3760.05	8.94409e-07
3768.73	-1.53847e-05
3777.41	-1.70758e-05
3786.08	-2.1941e-05
3794.76	-2.93061e-05
3803.44	-1.37999e-05
3812.12	-1.30374e-05
3820.8	-7.286e-06
3829.47	-2.33882e-05
3838.15	-4.21279e-06
3846.83	-1.51036e-05
3855.51	-4.16399e-05
3864.19	-1.35785e-05
3872.86	-2.29766e-05
3881.54	-2.15517e-05
3890.22	-1.60205e-05
3898.9	-2.29189e-05
3907.58	-8.27069e-06
3916.26	-1.59301e-05
3924.93	-2.50325e-05
3933.61	-1.52759e-05
3942.29	-1.97413e-05
3950.97	-1.01162e-05
3959.65	-1.62492e-05
3968.32	-1.86127e-05
