Infrared Spectrum: Dichlorodifluoromethane
Formula: C Cl2 F2
CAS: 75-71-8
State: gas
Melting point: -158 C
Boiling point: -29.8 C
Class: IUPAC A
Instrument: IFS66V (Bruker)
Instrument parameters: KBr Beam Splitter; MCT Detector; Multipass cell
Sampling: 1 L/min Flow
Resolution: 0.9640
Temperature: 23 C
Pressure: 101.3 Pa
Origin: NIST, Analytical Chemistry Division, 301-975-3108
cm-1	(micromol/mol)-1m-1 (base 10)
575.17	-2.89357e-06
583.848	1.59918e-06
592.526	-2.64723e-06
601.205	-6.80282e-07
609.883	2.07749e-07
618.561	-1.6689e-06
627.239	-1.50102e-07
635.917	-2.39741e-07
644.595	3.60779e-06
653.274	2.60292e-05
661.952	5.46299e-05
670.63	7.42581e-05
679.308	4.6705e-05
687.986	6.58501e-06
696.664	-4.35237e-07
705.343	9.43248e-07
714.021	1.0515e-06
722.699	1.26398e-06
731.377	1.2729e-06
740.055	5.6947e-07
748.734	1.20059e-06
757.412	1.04057e-06
766.09	9.70496e-07
774.768	-2.97177e-07
783.446	-5.40192e-07
792.124	-1.1218e-07
800.803	-4.75684e-07
809.481	-7.81723e-08
818.159	9.40054e-07
826.837	1.97046e-06
835.515	3.1945e-06
844.194	6.65225e-06
852.872	1.95676e-05
861.55	6.94896e-05
870.228	0.000204792
878.906	0.000398368
887.584	0.000502877
896.263	0.000330905
904.941	0.000473333
913.619	0.00157974
922.297	0.0028439
930.975	0.00190023
939.653	9.41913e-05
948.332	2.59295e-06
957.01	5.06854e-07
965.688	9.57654e-08
974.366	-4.39392e-08
983.044	-2.32028e-07
991.723	-5.00822e-07
1000.4	-5.20365e-07
1009.08	-5.38569e-07
1017.76	-5.04249e-07
1026.44	-2.24316e-08
1035.11	-1.32669e-07
1043.79	3.99767e-07
1052.47	2.77313e-06
1061.15	1.34418e-05
1069.83	4.78006e-05
1078.5	0.000215365
1087.18	0.000822458
1095.86	0.00146713
1104.54	0.00150033
1113.22	0.00101675
1121.9	0.000336917
1130.57	0.000261514
1139.25	0.000309891
1147.93	0.000888437
1156.61	0.00105969
1165.29	0.000614171
1173.96	0.00039696
1182.64	5.20775e-05
1191.32	7.95075e-06
1200	8.64661e-06
1208.68	7.8751e-06
1217.36	4.35743e-06
1226.03	7.85201e-06
1234.71	1.21232e-05
1243.39	1.94066e-05
1252.07	8.47416e-06
1260.75	1.25055e-06
1269.42	6.41807e-08
1278.1	-5.12565e-07
1286.78	-1.4658e-07
1295.46	3.61212e-07
1304.14	2.95613e-07
1312.82	1.30181e-06
1321.49	1.89646e-06
1330.17	2.27373e-06
1338.85	3.00465e-06
1347.53	3.86458e-06
1356.21	5.99426e-06
1364.88	5.23925e-06
1373.56	7.15605e-06
1382.24	7.05672e-06
1390.92	5.06721e-06
1399.6	1.02506e-06
1408.28	2.23385e-07
1416.95	-1.98778e-08
1425.63	-2.3865e-09
1434.31	-1.5112e-08
1442.99	1.05646e-08
1451.67	-5.1784e-07
1460.34	-6.60652e-09
1469.02	1.1995e-06
1477.7	1.45083e-06
1486.38	6.30093e-07
1495.06	-9.28114e-08
1503.73	-2.52212e-07
1512.41	-2.09379e-07
1521.09	-8.76164e-07
1529.77	5.18255e-07
1538.45	1.55806e-07
1547.13	3.87733e-07
1555.8	4.8061e-07
1564.48	7.58091e-07
1573.16	2.10394e-06
1581.84	4.20109e-06
1590.52	4.3304e-06
1599.19	3.22055e-06
1607.87	-1.15258e-07
1616.55	-1.41927e-06
1625.23	-3.79176e-07
1633.91	-7.43742e-08
1642.59	-1.10084e-07
1651.26	-3.54926e-07
1659.94	-2.61576e-07
1668.62	-4.49265e-07
1677.3	-8.66996e-08
1685.98	-2.03129e-07
1694.65	-3.00153e-07
1703.33	-4.02794e-07
1712.01	-1.8603e-07
1720.69	-8.49098e-08
1729.37	-1.81388e-07
1738.05	6.8197e-08
1746.72	1.63513e-06
1755.4	2.89947e-06
1764.08	3.13738e-06
1772.76	1.00291e-06
1781.44	4.71762e-07
1790.11	1.12069e-06
1798.79	2.26419e-06
1807.47	2.44168e-06
1816.15	1.81791e-06
1824.83	1.53479e-06
1833.51	1.9776e-06
1842.18	1.37432e-06
1850.86	7.99534e-07
1859.54	-7.94252e-07
1868.22	-7.51339e-07
1876.9	-3.92724e-07
1885.57	-1.5788e-07
1894.25	-2.01069e-07
1902.93	-2.97824e-07
1911.61	5.74796e-09
1920.29	-1.04547e-07
1928.97	-1.8627e-07
1937.64	-1.90236e-07
1946.32	-9.18219e-08
1955	-9.27823e-08
1963.68	9.93088e-08
1972.36	2.21216e-07
1981.03	1.25728e-08
1989.71	2.63533e-07
1998.39	3.7743e-07
2007.07	5.57749e-07
2015.75	6.82428e-07
2024.43	3.10572e-07
2033.1	6.14886e-08
2041.78	2.38766e-07
2050.46	1.84902e-07
2059.14	2.22053e-07
2067.82	4.65949e-08
2076.49	1.56061e-07
2085.17	2.11016e-07
2093.85	-1.87194e-07
2102.53	-1.97031e-08
2111.21	-7.67171e-08
2119.89	-2.38126e-07
2128.56	-7.02124e-08
2137.24	4.58163e-08
2145.92	-7.75029e-08
2154.6	-2.30624e-07
2163.28	2.36103e-08
2171.95	9.6768e-07
2180.63	3.40455e-06
2189.31	6.96916e-06
2197.99	6.07523e-06
2206.67	3.80617e-06
2215.35	1.95349e-06
2224.02	4.30299e-06
2232.7	1.05275e-05
2241.38	1.58246e-05
2250.06	3.47694e-05
2258.74	8.58251e-06
2267.41	2.1711e-06
2276.09	1.76313e-06
2284.77	5.19645e-07
2293.45	1.35276e-06
2302.13	3.94076e-06
2310.81	3.92234e-06
2319.48	4.75933e-06
2328.16	1.50195e-06
2336.84	-2.83404e-07
2345.52	-6.03856e-07
2354.2	3.53681e-08
2362.87	8.81453e-07
2371.55	8.44863e-07
2380.23	3.39675e-07
2388.91	-7.18786e-08
2397.59	2.45685e-07
2406.27	2.13075e-07
2414.94	2.0836e-07
2423.62	-6.16996e-09
2432.3	2.14814e-07
2440.98	2.68182e-07
2449.66	4.21544e-07
2458.33	1.81636e-07
2467.01	1.98356e-07
2475.69	2.11794e-07
2484.37	6.19907e-08
2493.05	7.62951e-08
2501.73	-2.74287e-07
2510.4	3.60543e-07
2519.08	6.3766e-08
2527.76	-1.63766e-07
2536.44	1.8531e-07
2545.12	1.17942e-07
2553.79	1.69194e-07
2562.47	1.23457e-07
2571.15	2.53187e-07
2579.83	1.37194e-07
2588.51	3.90672e-07
2597.19	-1.46347e-07
2605.86	9.78681e-08
2614.54	6.99869e-08
2623.22	-2.89079e-07
2631.9	2.3384e-07
2640.58	1.60019e-07
2649.25	1.10485e-07
2657.93	2.45649e-07
2666.61	2.82741e-08
2675.29	1.09015e-07
2683.97	3.07771e-07
2692.65	2.17913e-07
2701.32	-2.62871e-07
2710	1.80697e-07
2718.68	2.3913e-07
2727.36	7.83687e-08
2736.04	-2.67076e-07
2744.71	-1.84451e-07
2753.39	1.25371e-07
2762.07	7.25553e-08
2770.75	-2.15789e-07
2779.43	-3.3069e-07
2788.11	-1.62995e-07
2796.78	-3.29991e-07
2805.46	-1.54533e-07
2814.14	-2.97111e-07
2822.82	-3.00356e-07
2831.5	-5.9407e-07
2840.17	-3.74447e-07
2848.85	-2.08345e-07
2857.53	-4.46813e-08
2866.21	4.19594e-07
2874.89	-2.88628e-07
2883.57	-6.891e-08
2892.24	-4.49258e-07
2900.92	-1.35383e-07
2909.6	-4.17782e-07
2918.28	-4.25276e-08
2926.96	-5.05981e-07
2935.63	3.76237e-08
2944.31	-3.29606e-07
2952.99	-2.18015e-07
2961.67	-4.79031e-07
2970.35	-2.15294e-08
2979.03	-4.17768e-07
2987.7	9.12325e-08
2996.38	-2.27801e-07
3005.06	-2.27357e-07
3013.74	-1.80108e-07
3022.42	3.66058e-07
3031.09	9.79845e-08
3039.77	-1.47744e-07
3048.45	1.54045e-07
3057.13	-7.37194e-08
3065.81	-4.43663e-07
3074.49	-2.17775e-07
3083.16	-4.35826e-09
3091.84	1.20562e-08
3100.52	1.53827e-07
3109.2	-1.74127e-07
3117.88	2.36394e-08
3126.55	3.55282e-08
3135.23	1.41334e-07
3143.91	3.336e-08
3152.59	-1.39086e-07
3161.27	-1.72039e-07
3169.95	2.24134e-07
3178.62	3.14464e-07
3187.3	-1.0139e-07
3195.98	-4.71435e-07
3204.66	-2.10244e-07
3213.34	-1.73166e-08
3222.01	-6.72897e-07
3230.69	-1.15658e-07
3239.37	-5.60732e-07
3248.05	-9.74971e-10
3256.73	-3.73254e-07
3265.41	-9.82465e-08
3274.08	-9.94033e-08
3282.76	5.64879e-07
3291.44	-1.36845e-07
3300.12	1.8862e-07
3308.8	-2.48909e-07
3317.47	2.41051e-07
3326.15	3.23763e-07
3334.83	-1.9821e-07
3343.51	-3.59044e-07
3352.19	-3.52081e-08
3360.86	2.172e-07
3369.54	2.60332e-07
3378.22	-1.67404e-07
3386.9	1.76077e-08
3395.58	-1.64355e-07
3404.26	-3.56628e-07
3412.93	1.03223e-07
3421.61	-4.09757e-07
3430.29	-6.90323e-07
3438.97	3.95227e-07
3447.65	-3.5748e-07
3456.32	-1.99214e-08
3465	3.28609e-07
3473.68	-5.68175e-08
3482.36	-7.89712e-07
3491.04	-4.95125e-08
3499.72	2.5307e-07
3508.39	-6.39472e-07
3517.07	-7.10659e-07
3525.75	-3.61612e-08
3534.43	3.67659e-07
3543.11	5.95416e-07
3551.78	-1.31024e-07
3560.46	2.12274e-07
3569.14	-3.30617e-07
3577.82	3.8603e-07
3586.5	2.11329e-07
3595.18	5.65818e-07
3603.85	3.51724e-07
3612.53	4.6493e-08
3621.21	2.64355e-07
3629.89	2.41414e-08
3638.57	1.70038e-07
3647.24	-2.59168e-07
3655.92	-5.90912e-07
3664.6	5.03863e-07
3673.28	-4.02714e-07
3681.96	7.2759e-11
3690.64	-1.168e-07
3699.31	2.35099e-07
3707.99	1.32691e-07
3716.67	3.87536e-07
3725.35	3.58811e-07
3734.03	4.75829e-07
3742.7	2.922e-07
3751.38	3.961e-08
3760.06	1.58098e-07
3768.74	1.05714e-06
3777.42	5.96536e-07
3786.1	1.68837e-07
3794.77	1.76157e-07
3803.45	2.4049e-07
3812.13	4.81672e-07
3820.81	-1.27161e-07
3829.49	1.33396e-07
3838.16	-9.24127e-07
3846.84	1.74847e-07
3855.52	2.17899e-07
3864.2	1.71719e-07
3872.88	3.17142e-07
3881.56	2.9984e-08
3890.23	-1.73392e-07
3898.91	-1.26215e-07
3907.59	2.8328e-07
3916.27	2.95693e-08
3924.95	2.11336e-07
3933.62	3.16771e-07
3942.3	9.24694e-08
3950.98	6.94885e-07
3959.66	-3.59939e-08
3968.34	4.3368e-07
