Infrared Spectrum: Dichlorodifluoromethane
Formula: C Cl2 F2
CAS: 75-71-8
State: gas
Melting point: -158 C
Boiling point: -29.8 C
Class: IUPAC A
Instrument: IFS66V (Bruker)
Instrument parameters: KBr Beam Splitter; MCT Detector; Multipass cell
Sampling: 1 L/min Flow
Resolution: 0.1250
Temperature: 23 C
Pressure: 101.3 Pa
Origin: NIST, Analytical Chemistry Division, 301-975-3108
cm-1	(micromol/mol)-1m-1 (base 10)
575.05	7.42391e-06
583.608	1.85008e-05
592.165	1.67162e-06
600.723	-3.1516e-07
609.281	1.4888e-06
617.838	1.33556e-06
626.396	1.50063e-06
634.954	4.53696e-06
643.511	1.36633e-05
652.069	2.42612e-05
660.626	4.71022e-05
669.184	7.76062e-05
677.742	5.0987e-05
686.299	7.87779e-06
694.857	5.58031e-08
703.415	-5.92604e-07
711.972	3.77453e-08
720.53	1.54163e-06
729.088	5.29642e-07
737.645	-7.25789e-07
746.203	1.78321e-06
754.761	1.15929e-06
763.318	3.84192e-06
771.876	-8.64431e-07
780.434	1.63517e-06
788.991	4.56145e-07
797.549	2.05531e-06
806.106	-5.77733e-07
814.664	8.66236e-07
823.222	8.45704e-08
831.779	4.98532e-06
840.337	8.99147e-06
848.895	1.22509e-05
857.452	3.79612e-05
866.01	0.00012244
874.568	0.000310376
883.125	0.00052189
891.683	0.000514652
900.241	0.000281086
908.798	0.000933168
917.356	0.00161877
925.914	0.00175791
934.471	0.000901624
943.029	1.81092e-05
951.586	1.84147e-06
960.144	2.42465e-06
968.702	-9.34363e-07
977.259	2.55647e-07
985.817	-8.91074e-07
994.375	-3.28663e-07
1002.93	-4.30608e-07
1011.49	-2.51732e-06
1020.05	6.22492e-07
1028.61	1.90745e-06
1037.16	-1.56818e-06
1045.72	1.51659e-06
1054.28	4.80046e-06
1062.84	1.84317e-05
1071.39	6.34999e-05
1079.95	0.000281557
1088.51	0.000941065
1097.07	0.00158978
1105.62	0.00129002
1114.18	0.000900091
1122.74	0.000316306
1131.3	0.000236572
1139.85	0.00033307
1148.41	0.00090388
1156.97	0.00120504
1165.53	0.000616895
1174.09	0.000390414
1182.64	5.1334e-05
1191.2	8.71122e-06
1199.76	8.49202e-06
1208.32	9.13835e-06
1216.87	3.18632e-06
1225.43	6.67527e-06
1233.99	1.31212e-05
1242.55	2.05403e-05
1251.1	9.23847e-06
1259.66	1.57907e-06
1268.22	4.41361e-07
1276.78	-1.22448e-06
1285.33	-1.2324e-06
1293.89	6.63526e-09
1302.45	6.01655e-07
1311.01	1.28795e-06
1319.57	1.51859e-06
1328.12	3.11969e-06
1336.68	2.30646e-06
1345.24	5.87406e-06
1353.8	3.00229e-06
1362.35	6.5657e-06
1370.91	4.54707e-06
1379.47	9.12108e-06
1388.03	4.88017e-06
1396.58	1.377e-06
1405.14	-4.25253e-07
1413.7	1.52484e-06
1422.26	-1.27713e-06
1430.81	-5.05633e-07
1439.37	-1.08303e-07
1447.93	-3.17573e-06
1456.49	-3.75347e-06
1465.05	-1.02503e-06
1473.6	5.97042e-07
1482.16	1.77788e-06
1490.72	-1.64688e-07
1499.28	7.13436e-08
1507.83	-1.07567e-06
1516.39	9.90341e-08
1524.95	6.1721e-07
1533.51	-9.02642e-07
1542.06	-3.04538e-07
1550.62	5.11133e-07
1559.18	7.7388e-07
1567.74	1.81301e-06
1576.29	1.12616e-06
1584.85	5.5124e-06
1593.41	4.43718e-06
1601.97	7.87369e-07
1610.53	4.65807e-07
1619.08	-8.9576e-08
1627.64	-2.00833e-07
1636.2	-3.58551e-07
1644.76	-5.32698e-07
1653.31	-3.95771e-06
1661.87	-1.1861e-06
1670.43	-1.06964e-07
1678.99	-5.59733e-07
1687.54	1.00389e-06
1696.1	-1.61298e-06
1704.66	-3.67747e-07
1713.22	-3.09645e-07
1721.77	-8.59076e-07
1730.33	1.89854e-06
1738.89	1.15273e-07
1747.45	7.24989e-07
1756.01	3.28452e-06
1764.56	2.8241e-06
1773.12	2.74087e-06
1781.68	1.55076e-06
1790.24	1.32205e-06
1798.79	1.8753e-06
1807.35	2.94601e-06
1815.91	8.95614e-07
1824.47	9.49074e-07
1833.02	2.62484e-06
1841.58	9.00329e-07
1850.14	2.85418e-07
1858.7	-2.57887e-07
1867.25	-6.83286e-07
1875.81	5.24869e-07
1884.37	4.93992e-07
1892.93	-8.10985e-07
1901.49	-8.24678e-07
1910.04	1.70832e-06
1918.6	1.03367e-06
1927.16	3.52425e-08
1935.72	-1.02526e-07
1944.27	2.30197e-08
1952.83	3.9909e-07
1961.39	-7.89115e-07
1969.95	4.16799e-07
1978.5	2.37094e-07
1987.06	1.22621e-07
1995.62	9.38074e-07
2004.18	1.27999e-06
2012.73	8.10069e-07
2021.29	1.36325e-06
2029.85	6.16017e-07
2038.41	1.0493e-06
2046.97	1.17281e-07
2055.52	-1.44347e-06
2064.08	2.89987e-07
2072.64	-2.60681e-07
2081.2	-7.87617e-07
2089.75	-9.49351e-07
2098.31	2.90583e-07
2106.87	-6.28691e-07
2115.43	-4.36384e-07
2123.98	7.00747e-07
2132.54	8.65712e-07
2141.1	1.29594e-06
2149.66	4.15038e-07
2158.21	9.21078e-09
2166.77	7.23679e-07
2175.33	2.501e-06
2183.89	4.917e-06
2192.45	7.5349e-06
2201	6.97051e-06
2209.56	2.76786e-06
2218.12	2.40131e-06
2226.68	5.81467e-06
2235.23	1.29265e-05
2243.79	1.64063e-05
2252.35	1.06959e-05
2260.91	6.79396e-06
2269.46	2.45909e-06
2278.02	2.39166e-06
2286.58	8.71692e-07
2295.14	2.45359e-06
2303.69	5.95622e-06
2312.25	8.9789e-06
2320.81	4.02695e-06
2329.37	2.45344e-06
2337.93	-4.54122e-07
2346.48	5.09285e-10
2355.04	-1.65221e-06
2363.6	-1.02061e-07
2372.16	-9.91942e-08
2380.71	6.98404e-07
2389.27	-4.45115e-08
2397.83	1.62986e-07
2406.39	2.04762e-07
2414.94	-5.57623e-07
2423.5	2.81475e-07
2432.06	4.99099e-09
2440.62	-1.56729e-07
2449.17	-7.69675e-07
2457.73	-7.89028e-07
2466.29	4.45843e-07
2474.85	-1.18023e-07
2483.41	-8.31197e-07
2491.96	1.14543e-06
2500.52	6.14678e-07
2509.08	3.05367e-07
2517.64	9.35673e-07
2526.19	7.57147e-07
2534.75	2.65585e-07
2543.31	-1.06868e-06
2551.87	7.46466e-09
2560.42	3.72695e-07
2568.98	-7.55037e-07
2577.54	2.07977e-06
2586.1	5.2759e-07
2594.65	3.40595e-07
2603.21	-1.8139e-06
2611.77	1.50833e-06
2620.33	1.01588e-06
2628.89	-4.68891e-07
2637.44	5.211e-07
2646	5.61218e-07
2654.56	8.03855e-07
2663.12	-4.07428e-09
2671.67	4.65632e-09
2680.23	-8.68127e-07
2688.79	5.06913e-07
2697.35	-6.72664e-07
2705.9	1.21536e-06
2714.46	2.23576e-07
2723.02	1.94308e-06
2731.58	-3.27296e-07
2740.13	2.43336e-07
2748.69	-1.31196e-06
2757.25	5.3392e-07
2765.81	-1.69999e-06
2774.37	2.16795e-07
2782.92	-5.90902e-07
2791.48	6.65621e-07
2800.04	-2.44205e-06
2808.6	-6.48596e-07
2817.15	1.49012e-06
2825.71	5.75347e-08
2834.27	7.77053e-07
2842.83	-9.12813e-07
2851.38	-1.93592e-06
2859.94	-7.2755e-07
2868.5	2.92897e-07
2877.06	1.30934e-06
2885.61	-1.57999e-06
2894.17	7.2902e-07
2902.73	1.03845e-06
2911.29	-2.33023e-06
2919.85	3.4077e-07
2928.4	-2.38837e-06
2936.96	1.09441e-06
2945.52	-8.57781e-08
2954.08	-1.78734e-06
2962.63	-3.78584e-06
2971.19	1.14764e-06
2979.75	-8.0841e-07
2988.31	-1.14211e-07
2996.86	-2.12183e-07
3005.42	-3.7997e-07
3013.98	9.15549e-07
3022.54	2.08511e-06
3031.09	-2.43118e-07
3039.65	3.77075e-07
3048.21	-1.78793e-06
3056.77	4.71161e-08
3065.33	-1.10771e-06
3073.88	7.42887e-07
3082.44	2.99663e-07
3091	1.39563e-06
3099.56	-6.50502e-07
3108.11	-1.03257e-06
3116.67	2.14263e-07
3125.23	2.3446e-07
3133.79	-9.25298e-08
3142.34	9.3512e-07
3150.9	-1.65358e-07
3159.46	-5.87307e-07
3168.02	-1.95449e-07
3176.57	-6.15973e-07
3185.13	-1.85789e-06
3193.69	-3.82546e-08
3202.25	2.91879e-07
3210.81	-1.33968e-06
3219.36	-1.25633e-07
3227.92	-1.50079e-06
3236.48	3.64439e-06
3245.04	-4.69139e-07
3253.59	7.46044e-07
3262.15	-1.12843e-07
3270.71	-2.36425e-07
3279.27	7.84022e-07
3287.82	-1.90966e-06
3296.38	5.54902e-07
3304.94	-9.50064e-07
3313.5	-7.63127e-07
3322.05	-9.28878e-07
3330.61	-1.56815e-06
3339.17	-4.21455e-07
3347.73	1.88463e-06
3356.29	1.70932e-06
3364.84	6.24791e-07
3373.4	-5.07684e-07
3381.96	1.86145e-06
3390.52	-2.31455e-06
3399.07	-4.48549e-07
3407.63	9.63567e-08
3416.19	-1.03519e-06
3424.75	-7.55473e-07
3433.3	1.22787e-06
3441.86	3.19569e-07
3450.42	-1.41984e-06
3458.98	-2.82871e-06
3467.53	1.30467e-06
3476.09	-1.10823e-06
3484.65	-7.34433e-07
3493.21	3.27747e-07
3501.77	1.42687e-06
3510.32	3.81338e-07
3518.88	-8.39098e-07
3527.44	4.87066e-07
3536	7.30344e-07
3544.55	5.02722e-07
3553.11	1.99756e-07
3561.67	4.39062e-07
3570.23	-1.64652e-06
3578.78	-2.9217e-07
3587.34	-1.59651e-06
3595.9	-1.02988e-06
3604.46	4.32165e-07
3613.01	3.58682e-08
3621.57	3.00612e-06
3630.13	-1.20299e-06
3638.69	-1.30576e-06
3647.25	-1.60583e-06
3655.8	-1.53193e-07
3664.36	1.83226e-07
3672.92	-1.33213e-06
3681.48	1.1422e-06
3690.03	-5.38969e-07
3698.59	-2.6119e-08
3707.15	1.3753e-06
3715.71	3.20369e-07
3724.26	1.21264e-06
3732.82	6.51623e-07
3741.38	-2.02924e-06
3749.94	2.35044e-06
3758.49	-9.03079e-07
3767.05	1.0584e-06
3775.61	-9.54706e-07
3784.17	4.21135e-07
3792.73	3.71707e-06
3801.28	-2.27266e-06
3809.84	1.05487e-06
3818.4	-2.90001e-08
3826.96	5.89694e-07
3835.51	-1.20773e-08
3844.07	8.37046e-07
3852.63	1.4439e-06
3861.19	-1.36068e-06
3869.74	-1.21184e-06
3878.3	4.61427e-07
3886.86	-7.29296e-07
3895.42	-2.43496e-07
3903.97	1.44622e-06
3912.53	-5.47831e-07
3921.09	-7.92011e-08
3929.65	2.33907e-07
3938.21	2.38331e-07
3946.76	-9.66623e-08
3955.32	8.73467e-07
3963.88	-1.23382e-06
3972.44	-2.87339e-07
