Infrared Spectrum: Dichlorodifluoromethane
Formula: C Cl2 F2
CAS: 75-71-8
State: gas
Melting point: -158 C
Boiling point: -29.8 C
Class: IUPAC A
Instrument: IFS66V (Bruker)
Instrument parameters: KBr Beam Splitter; MCT Detector; Multipass cell
Sampling: 1 L/min Flow
Resolution: 0.9640
Temperature: 23 C
Pressure: 101.3 Pa
Origin: NIST, Analytical Chemistry Division, 301-975-3108
cm-1	(micromol/mol)-1m-1 (base 10)
575.17	-3.65549e-06
583.848	5.09026e-06
592.526	-2.42199e-06
601.205	-1.34118e-06
609.883	1.09502e-07
618.561	-1.49008e-06
627.239	5.74796e-07
635.917	-6.62398e-08
644.595	3.49513e-06
653.274	2.68645e-05
661.952	5.46956e-05
670.63	7.33841e-05
679.308	4.82325e-05
687.986	6.04835e-06
696.664	-1.03456e-06
705.343	7.51651e-07
714.021	1.78847e-06
722.699	1.54436e-06
731.377	9.87245e-07
740.055	6.57319e-07
748.734	7.63729e-07
757.412	1.34084e-06
766.09	5.68008e-07
774.768	-1.33462e-07
783.446	-3.75094e-07
792.124	2.22795e-07
800.803	-1.58113e-07
809.481	-5.0975e-08
818.159	1.4574e-06
826.837	1.82918e-06
835.515	2.88521e-06
844.194	6.05489e-06
852.872	1.9725e-05
861.55	6.88181e-05
870.228	0.000203894
878.906	0.000396151
887.584	0.000512706
896.263	0.000330367
904.941	0.00047243
913.619	0.00158502
922.297	0.00219744
930.975	0.00191431
939.653	9.60142e-05
948.332	4.40153e-06
957.01	1.79483e-06
965.688	1.09554e-06
974.366	1.00081e-06
983.044	8.59939e-07
991.723	3.27277e-07
1000.4	1.16182e-07
1009.08	1.81679e-07
1017.76	1.59866e-07
1026.44	8.5446e-07
1035.11	3.43539e-07
1043.79	8.21733e-07
1052.47	3.76087e-06
1061.15	1.39614e-05
1069.83	4.8847e-05
1078.5	0.000216228
1087.18	0.000824143
1095.86	0.00147014
1104.54	0.00145509
1113.22	0.00101629
1121.9	0.000340102
1130.57	0.000252068
1139.25	0.000309381
1147.93	0.000888708
1156.61	0.0010766
1165.29	0.000600797
1173.96	0.000393747
1182.64	5.00726e-05
1191.32	6.67826e-06
1200	7.59275e-06
1208.68	7.83482e-06
1217.36	3.78406e-06
1226.03	7.84247e-06
1234.71	1.11994e-05
1243.39	1.95682e-05
1252.07	8.25648e-06
1260.75	9.28514e-07
1269.42	9.38009e-08
1278.1	-8.92775e-07
1286.78	-3.72992e-07
1295.46	4.06155e-07
1304.14	-3.28361e-07
1312.82	1.11481e-06
1321.49	1.99215e-06
1330.17	2.06185e-06
1338.85	3.18467e-06
1347.53	3.80147e-06
1356.21	5.73321e-06
1364.88	4.84246e-06
1373.56	6.78791e-06
1382.24	6.86276e-06
1390.92	5.176e-06
1399.6	1.1756e-06
1408.28	5.69048e-08
1416.95	-3.73545e-08
1425.63	-1.14312e-07
1434.31	-1.34677e-07
1442.99	-8.38911e-09
1451.67	-5.46726e-07
1460.34	-3.7086e-07
1469.02	1.37136e-06
1477.7	1.63243e-06
1486.38	5.55086e-07
1495.06	-2.60455e-07
1503.73	-3.83149e-07
1512.41	-4.70125e-07
1521.09	-1.71473e-06
1529.77	3.84444e-07
1538.45	7.62762e-07
1547.13	2.03587e-07
1555.8	6.68335e-07
1564.48	6.14937e-07
1573.16	1.90232e-06
1581.84	4.04216e-06
1590.52	3.15481e-06
1599.19	3.03601e-06
1607.87	-6.02954e-08
1616.55	-2.0406e-06
1625.23	-2.37827e-07
1633.91	-1.27401e-07
1642.59	-1.99854e-07
1651.26	-4.00451e-07
1659.94	-5.24738e-07
1668.62	-1.86008e-07
1677.3	2.69863e-08
1685.98	-5.40505e-07
1694.65	-2.10259e-07
1703.33	-4.35419e-07
1712.01	5.75087e-08
1720.69	-3.36685e-07
1729.37	-1.21791e-07
1738.05	1.91429e-08
1746.72	1.77098e-06
1755.4	2.99539e-06
1764.08	2.97986e-06
1772.76	4.55115e-07
1781.44	4.96675e-07
1790.11	1.18975e-06
1798.79	2.25525e-06
1807.47	2.3913e-06
1816.15	1.62258e-06
1824.83	1.54293e-06
1833.51	1.79225e-06
1842.18	1.40242e-06
1850.86	8.21231e-07
1859.54	-7.56119e-07
1868.22	-7.44667e-07
1876.9	-3.51317e-07
1885.57	-2.16334e-07
1894.25	-1.73145e-07
1902.93	-5.71304e-07
1911.61	1.75204e-08
1920.29	-1.62907e-07
1928.97	-3.00662e-07
1937.64	-3.26586e-07
1946.32	-4.80799e-07
1955	-2.84706e-07
1963.68	2.0478e-07
1972.36	2.38264e-07
1981.03	1.19718e-07
1989.71	2.83244e-07
1998.39	5.14137e-07
2007.07	4.25786e-07
2015.75	6.93306e-07
2024.43	3.91043e-07
2033.1	-6.49665e-08
2041.78	3.2532e-07
2050.46	3.31133e-07
2059.14	4.42367e-07
2067.82	7.12965e-08
2076.49	3.22322e-08
2085.17	2.1541e-07
2093.85	-3.58484e-07
2102.53	1.50909e-07
2111.21	4.80209e-10
2119.89	-3.05268e-07
2128.56	-9.03303e-08
2137.24	1.55632e-07
2145.92	-1.08636e-07
2154.6	-4.39268e-07
2163.28	5.60535e-08
2171.95	9.94324e-07
2180.63	3.33898e-06
2189.31	7.29932e-06
2197.99	6.0791e-06
2206.67	3.91145e-06
2215.35	2.05307e-06
2224.02	4.44058e-06
2232.7	1.08367e-05
2241.38	1.58741e-05
2250.06	3.98103e-05
2258.74	8.33738e-06
2267.41	2.12122e-06
2276.09	1.8263e-06
2284.77	5.74221e-07
2293.45	1.35522e-06
2302.13	3.80978e-06
2310.81	3.60933e-06
2319.48	4.62907e-06
2328.16	1.38335e-06
2336.84	-3.96238e-07
2345.52	-6.43677e-07
2354.2	2.25073e-07
2362.87	1.24456e-06
2371.55	1.28222e-06
2380.23	3.54344e-07
2388.91	-3.84051e-07
2397.59	5.53805e-07
2406.27	2.74825e-07
2414.94	2.34895e-07
2423.62	-6.039e-08
2432.3	3.99025e-07
2440.98	2.77743e-07
2449.66	8.3293e-07
2458.33	1.55079e-07
2467.01	1.367e-07
2475.69	1.28092e-07
2484.37	-5.38417e-10
2493.05	1.19296e-07
2501.73	-6.43975e-07
2510.4	4.76229e-07
2519.08	-2.79278e-07
2527.76	-3.71457e-07
2536.44	2.28303e-07
2545.12	2.21107e-07
2553.79	1.85601e-07
2562.47	4.94397e-08
2571.15	1.58324e-07
2579.83	3.801e-07
2588.51	7.58229e-07
2597.19	-1.81861e-07
2605.86	-1.00196e-07
2614.54	6.29002e-08
2623.22	-3.44347e-07
2631.9	5.02248e-07
2640.58	2.62791e-07
2649.25	8.97846e-08
2657.93	2.68102e-07
2666.61	1.33389e-07
2675.29	1.36394e-07
2683.97	3.66167e-07
2692.65	1.95474e-07
2701.32	-5.64101e-08
2710	2.72548e-07
2718.68	5.26266e-07
2727.36	1.54758e-07
2736.04	-3.88599e-07
2744.71	-2.25531e-07
2753.39	3.95147e-07
2762.07	3.20394e-07
2770.75	-4.1071e-07
2779.43	-2.37784e-07
2788.11	-4.07792e-07
2796.78	-8.93844e-08
2805.46	-3.9925e-07
2814.14	-2.66734e-07
2822.82	-7.83018e-07
2831.5	-3.50473e-07
2840.17	-4.83767e-07
2848.85	-1.18532e-07
2857.53	-1.20205e-07
2866.21	7.42375e-07
2874.89	-2.98763e-07
2883.57	-1.39763e-07
2892.24	-3.54846e-07
2900.92	-9.82319e-08
2909.6	-4.07821e-07
2918.28	1.06796e-07
2926.96	-6.19463e-07
2935.63	4.35841e-07
2944.31	-4.04525e-07
2952.99	-1.02299e-08
2961.67	-4.23603e-07
2970.35	2.00677e-07
2979.03	-6.05544e-07
2987.7	1.06446e-08
2996.38	-4.09742e-07
3005.06	8.15265e-08
3013.74	-2.98137e-07
3022.42	5.59364e-07
3031.09	-8.24651e-08
3039.77	8.11845e-08
3048.45	3.88817e-07
3057.13	-8.57829e-08
3065.81	-4.57254e-07
3074.49	-4.01302e-07
3083.16	1.03376e-07
3091.84	5.07276e-08
3100.52	1.71377e-07
3109.2	-4.39683e-08
3117.88	-7.43742e-08
3126.55	-2.74083e-07
3135.23	1.4252e-07
3143.91	7.96566e-08
3152.59	-2.00371e-07
3161.27	1.58753e-07
3169.95	2.44528e-07
3178.62	6.27925e-07
3187.3	-7.14544e-07
3195.98	-5.42906e-07
3204.66	-4.05406e-07
3213.34	1.93066e-07
3222.01	-1.11808e-06
3230.69	1.16269e-08
3239.37	-9.45176e-07
3248.05	8.54263e-08
3256.73	-3.99789e-07
3265.41	1.32836e-07
3274.08	-1.9757e-07
3282.76	7.96296e-07
3291.44	-8.3288e-07
3300.12	1.3774e-07
3308.8	-1.58462e-07
3317.47	7.80777e-08
3326.15	3.29031e-07
3334.83	-3.12143e-07
3343.51	-5.75684e-07
3352.19	3.32349e-07
3360.86	4.0764e-07
3369.54	9.41465e-07
3378.22	-2.7978e-07
3386.9	3.49076e-07
3395.58	-1.34037e-07
3404.26	-5.4108e-07
3412.93	6.1079e-07
3421.61	-6.69448e-07
3430.29	-1.13319e-06
3438.97	9.34306e-07
3447.65	-7.4407e-07
3456.32	-2.16094e-07
3465	1.00736e-06
3473.68	-2.10674e-07
3482.36	-1.03059e-06
3491.04	-7.54729e-08
3499.72	1.4789e-07
3508.39	-6.85106e-07
3517.07	-4.87289e-07
3525.75	2.51397e-07
3534.43	3.8515e-07
3543.11	7.25043e-07
3551.78	2.54606e-07
3560.46	5.05399e-07
3569.14	-7.38227e-07
3577.82	4.42906e-07
3586.5	-4.09684e-07
3595.18	1.07245e-06
3603.85	2.02241e-07
3612.53	-2.68757e-07
3621.21	5.61292e-07
3629.89	-4.29278e-10
3638.57	4.00611e-08
3647.24	-4.01521e-07
3655.92	-3.77583e-07
3664.6	4.91269e-07
3673.28	-3.81839e-07
3681.96	-4.24018e-07
3690.64	4.09051e-08
3699.31	-2.17862e-07
3707.99	-5.85237e-07
3716.67	-1.03165e-07
3725.35	3.35419e-09
3734.03	8.89835e-07
3742.7	4.23661e-07
3751.38	6.06919e-07
3760.06	-2.18372e-07
3768.74	1.09264e-06
3777.42	5.12958e-07
3786.1	-1.38781e-07
3794.77	-4.58673e-08
3803.45	-8.90134e-08
3812.13	1.10234e-06
3820.81	-3.90789e-07
3829.49	1.24673e-07
3838.16	-8.64515e-07
3846.84	1.32109e-07
3855.52	3.58869e-07
3864.2	2.39348e-07
3872.88	3.61889e-07
3881.56	-3.5414e-07
3890.23	8.12063e-08
3898.91	2.37871e-07
3907.59	2.11365e-08
3916.27	4.21129e-08
3924.95	5.07298e-07
3933.62	4.78296e-07
3942.3	-5.19499e-09
3950.98	9.18255e-07
3959.66	-2.54431e-07
3968.34	3.48698e-07
