Infrared Spectrum: Dichlorodifluoromethane
Formula: C Cl2 F2
CAS: 75-71-8
State: gas
Melting point: -158 C
Boiling point: -29.8 C
Class: IUPAC A
Instrument: IFS66V (Bruker)
Instrument parameters: KBr Beam Splitter; MCT Detector; Multipass cell
Sampling: 1 L/min Flow
Resolution: 1.9290
Temperature: 23 C
Pressure: 101.3 Pa
Origin: NIST, Analytical Chemistry Division, 301-975-3108
cm-1	(micromol/mol)-1m-1 (base 10)
575.652	-1.05704e-06
584.33	-8.41581e-07
593.008	-1.57517e-06
601.687	-5.1023e-07
610.365	2.83152e-07
619.043	-1.23239e-06
627.721	-3.46095e-07
636.399	3.18833e-07
645.077	4.78348e-06
653.756	2.73852e-05
662.434	5.88679e-05
671.112	6.87377e-05
679.79	4.29878e-05
688.468	5.89951e-06
697.146	1.20727e-07
705.825	7.23647e-07
714.503	1.18886e-06
723.181	9.06812e-07
731.859	1.27938e-06
740.537	7.66313e-07
749.216	1.49604e-06
757.894	9.41019e-07
766.572	9.95162e-07
775.25	-1.47917e-07
783.928	-9.05364e-08
792.606	-6.52948e-07
801.285	-4.08609e-07
809.963	-5.86328e-07
818.641	1.34631e-07
827.319	2.25144e-06
835.997	3.75051e-06
844.676	7.02857e-06
853.354	2.10242e-05
862.032	7.41554e-05
870.71	0.000216312
879.388	0.000400424
888.066	0.000533098
896.745	0.000321632
905.423	0.000517209
914.101	0.00158036
922.779	0.00264434
931.457	0.00176905
940.135	7.93546e-05
948.814	2.30528e-06
957.492	7.21243e-07
966.17	1.18719e-07
974.848	-1.94071e-07
983.526	-3.36393e-07
992.205	-5.4606e-07
1000.88	-4.7678e-07
1009.56	-6.41311e-07
1018.24	-6.17115e-07
1026.92	-1.66154e-07
1035.6	-9.86962e-09
1044.27	6.86203e-07
1052.95	3.21945e-06
1061.63	1.44202e-05
1070.31	5.1956e-05
1078.99	0.000237652
1087.66	0.000865738
1096.34	0.00151495
1105.02	0.00145026
1113.7	0.000955914
1122.38	0.000318699
1131.06	0.000246647
1139.73	0.000333454
1148.41	0.000904467
1157.09	0.00120695
1165.77	0.000616355
1174.45	0.000369634
1183.12	4.64815e-05
1191.8	8.11814e-06
1200.48	9.00854e-06
1209.16	6.42354e-06
1217.84	4.48929e-06
1226.52	8.43843e-06
1235.19	1.29774e-05
1243.87	1.5816e-05
1252.55	8.20852e-06
1261.23	1.11066e-06
1269.91	-1.77904e-07
1278.58	-2.30803e-07
1287.26	-9.30211e-09
1295.94	3.83366e-07
1304.62	6.38437e-07
1313.3	1.18748e-06
1321.98	1.91962e-06
1330.65	2.36885e-06
1339.33	2.95725e-06
1348.01	4.06006e-06
1356.69	5.62685e-06
1365.37	5.50275e-06
1374.04	7.27665e-06
1382.72	7.05387e-06
1391.4	4.78111e-06
1400.08	8.73951e-07
1408.76	2.89068e-07
1417.44	4.87188e-08
1426.11	-2.45158e-08
1434.79	-2.62147e-08
1443.47	-4.75983e-08
1452.15	-4.10944e-07
1460.83	1.68242e-07
1469.5	1.01977e-06
1478.18	1.63728e-06
1486.86	5.33353e-07
1495.54	-5.4296e-07
1504.22	-4.32208e-07
1512.9	-1.31328e-09
1521.57	-2.19409e-07
1530.25	6.28516e-07
1538.93	-2.25081e-07
1547.61	5.11227e-07
1556.29	3.21165e-07
1564.96	6.8765e-07
1573.64	2.2503e-06
1582.32	4.44921e-06
1591	4.65198e-06
1599.68	2.91064e-06
1608.36	-1.39637e-07
1617.03	-7.26041e-07
1625.71	-2.74592e-07
1634.39	-5.14279e-07
1643.07	-6.6479e-08
1651.75	-9.5863e-07
1660.42	-2.2937e-07
1669.1	-4.259e-07
1677.78	-1.64488e-07
1686.46	-3.14347e-07
1695.14	-8.55354e-07
1703.82	-3.4392e-07
1712.49	-2.38617e-07
1721.17	-5.85338e-08
1729.85	-3.91038e-08
1738.53	8.99216e-08
1747.21	1.54984e-06
1755.88	2.84279e-06
1764.56	3.10067e-06
1773.24	1.50518e-06
1781.92	5.28605e-07
1790.6	1.16377e-06
1799.28	2.18714e-06
1807.95	2.31548e-06
1816.63	1.8337e-06
1825.31	1.51207e-06
1833.99	1.78862e-06
1842.67	1.44321e-06
1851.34	6.97527e-07
1860.02	-7.21308e-07
1868.7	-7.31673e-07
1877.38	-3.65871e-07
1886.06	-1.00777e-07
1894.74	-1.96734e-07
1903.41	-1.0443e-07
1912.09	-4.25925e-08
1920.77	-6.80287e-08
1929.45	-9.62261e-08
1938.13	-9.47928e-08
1946.8	-8.45921e-08
1955.48	1.81713e-08
1964.16	9.14968e-08
1972.84	2.7994e-07
1981.52	-3.19953e-08
1990.19	1.29764e-07
1998.87	2.61609e-07
2007.55	5.58076e-07
2016.23	5.47595e-07
2024.91	1.93198e-07
2033.59	1.70046e-07
2042.26	1.70872e-07
2050.94	2.90053e-07
2059.62	2.10878e-07
2068.3	5.00502e-08
2076.98	5.40919e-08
2085.65	1.17046e-07
2094.33	-6.70465e-09
2103.01	-1.35726e-07
2111.69	-1.10625e-07
2120.37	-1.27148e-07
2129.05	-9.53457e-08
2137.72	-7.22123e-09
2146.4	5.29496e-08
2155.08	-3.03499e-07
2163.76	-3.69829e-08
2172.44	1.00545e-06
2181.11	3.69808e-06
2189.79	7.16293e-06
2198.47	6.34784e-06
2207.15	3.62717e-06
2215.83	2.1377e-06
2224.51	4.58758e-06
2233.18	1.07509e-05
2241.86	1.58362e-05
2250.54	2.26492e-05
2259.22	8.2014e-06
2267.9	2.04819e-06
2276.57	1.72116e-06
2285.25	5.27739e-07
2293.93	1.39665e-06
2302.61	4.20489e-06
2311.29	5.81901e-06
2319.97	4.41397e-06
2328.64	1.46078e-06
2337.32	-1.66368e-07
2346	-4.32717e-07
2354.68	-5.27386e-08
2363.36	6.23656e-07
2372.03	4.61995e-07
2380.71	1.65401e-07
2389.39	1.20047e-07
2398.07	2.81392e-07
2406.75	2.55359e-07
2415.43	2.95056e-07
2424.1	-4.29272e-09
2432.78	1.56357e-07
2441.46	2.00699e-07
2450.14	2.39352e-07
2458.82	2.00252e-07
2467.49	1.13357e-07
2476.17	6.21135e-08
2484.85	5.4794e-08
2493.53	-4.4095e-08
2502.21	5.5598e-08
2510.89	1.71298e-07
2519.56	2.70933e-07
2528.24	-1.1303e-08
2536.92	1.61548e-07
2545.6	9.27155e-08
2554.28	9.11076e-08
2562.95	1.86202e-07
2571.63	1.73735e-07
2580.31	5.19492e-08
2588.99	2.24659e-07
2597.67	1.28418e-08
2606.35	8.75279e-08
2615.02	4.69144e-08
2623.7	-2.05541e-07
2632.38	2.08503e-07
2641.06	1.99739e-07
2649.74	1.71956e-07
2658.41	5.5638e-08
2667.09	-3.71502e-08
2675.77	1.20113e-07
2684.45	1.5902e-07
2693.13	1.29495e-07
2701.81	-1.11636e-07
2710.48	2.19675e-07
2719.16	1.8004e-08
2727.84	5.05777e-08
2736.52	2.94524e-08
2745.2	-4.92935e-08
2753.87	-7.69416e-09
2762.55	2.26219e-07
2771.23	-1.99979e-07
2779.91	-1.99011e-07
2788.59	-1.58787e-07
2797.27	-3.26836e-07
2805.94	-1.30426e-07
2814.62	-3.00094e-07
2823.3	-1.93012e-07
2831.98	-4.87962e-07
2840.66	-2.07924e-07
2849.33	-3.06093e-07
2858.01	-1.39077e-08
2866.69	8.66875e-08
2875.37	-2.69998e-07
2884.05	-2.449e-07
2892.73	-2.44747e-07
2901.4	-7.08808e-08
2910.08	-2.72311e-07
2918.76	-5.71914e-08
2927.44	-2.9961e-07
2936.12	-2.07724e-08
2944.79	-1.32692e-07
2953.47	-1.87872e-07
2962.15	-3.70862e-07
2970.83	-5.18401e-09
2979.51	-2.32887e-07
2988.19	-9.75248e-08
2996.86	-4.67543e-08
3005.54	-2.73836e-07
3014.22	-2.93542e-08
3022.9	2.21843e-07
3031.58	1.43115e-07
3040.25	-1.47659e-07
3048.93	9.03763e-08
3057.61	-9.03218e-08
3066.29	-3.93639e-07
3074.97	-6.98913e-08
3083.65	3.38507e-08
3092.32	8.57053e-08
3101	7.85568e-08
3109.68	-2.08208e-07
3118.36	-1.15922e-07
3127.04	1.20716e-07
3135.71	1.21859e-07
3144.39	-6.83925e-10
3153.07	5.65984e-08
3161.75	-1.96869e-07
3170.43	3.3978e-09
3179.11	1.67118e-07
3187.78	8.96415e-08
3196.46	-4.28952e-07
3205.14	-2.13294e-07
3213.82	-1.70214e-07
3222.5	-4.05975e-07
3231.17	-2.20544e-07
3239.85	-1.29993e-07
3248.53	-3.03037e-08
3257.21	-1.49816e-07
3265.89	-2.24291e-07
3274.57	2.65639e-08
3283.24	2.51794e-07
3291.92	6.51439e-08
3300.6	-1.61286e-07
3309.28	-2.5095e-07
3317.96	3.12154e-07
3326.63	3.83202e-07
3335.31	7.46424e-08
3343.99	-2.52136e-07
3352.67	-1.8426e-07
3361.35	5.31279e-08
3370.03	-1.80993e-07
3378.7	8.03467e-08
3387.38	-1.82e-07
3396.06	1.16926e-07
3404.74	-2.13097e-07
3413.42	-2.08979e-07
3422.09	-3.11513e-07
3430.77	-1.89877e-07
3439.45	2.06153e-07
3448.13	8.21074e-09
3456.81	1.49663e-07
3465.49	-2.47377e-10
3474.16	-1.06882e-07
3482.84	-3.67512e-07
3491.52	-1.88083e-07
3500.2	6.13314e-08
3508.88	-4.48557e-07
3517.55	-5.79092e-07
3526.23	-5.55689e-08
3534.91	3.74122e-08
3543.59	4.61617e-07
3552.27	-1.85627e-07
3560.95	1.64815e-07
3569.62	-1.07202e-07
3578.3	1.59162e-07
3586.98	1.03345e-07
3595.66	2.83043e-07
3604.34	3.45215e-07
3613.01	2.8416e-07
3621.69	2.69015e-07
3630.37	2.2273e-07
3639.05	3.67159e-07
3647.73	1.09901e-08
3656.41	-1.92787e-07
3665.08	3.43829e-07
3673.76	-3.71233e-07
3682.44	1.14095e-07
3691.12	1.22161e-07
3699.8	2.45944e-07
3708.47	4.13633e-07
3717.15	5.11507e-07
3725.83	3.60185e-07
3734.51	1.02014e-07
3743.19	-1.18603e-07
3751.87	-3.41017e-07
3760.54	3.28401e-07
3769.22	6.24893e-07
3777.9	4.09642e-07
3786.58	2.52703e-07
3795.26	5.15487e-07
3803.93	3.30452e-07
3812.61	2.19813e-07
3821.29	1.58849e-07
3829.97	1.63531e-07
3838.65	-2.04512e-07
3847.33	-2.09798e-08
3856	1.79992e-07
3864.68	1.7395e-07
3873.36	1.30357e-07
3882.04	2.30465e-07
3890.72	-2.56628e-07
3899.39	4.4215e-08
3908.07	2.65348e-07
3916.75	1.1304e-07
3925.43	1.50042e-07
3934.11	2.59135e-07
3942.79	2.7652e-07
3951.46	2.92047e-07
3960.14	2.05356e-07
3968.82	2.72588e-07
