Infrared Spectrum: Carbon tetrafluoride
Formula: C F4
CAS: 75-73-0
State: gas
Melting point: -150 C
Boiling point: -129 C
Class: IUPAC A
Instrument: IFS66V (Bruker)
Instrument parameters: KBr Beam Splitter; MCT Detector; Multipass cell
Sampling: 1 L/min Flow
Resolution: 1.9290
Temperature: 23 C
Pressure: 101.3 Pa
Origin: NIST, Analytical Chemistry Division, 301-975-3108
cm-1	(micromol/mol)-1m-1 (base 10)
575.65	-5.78959e-05
584.328	1.06913e-05
593.006	-3.44762e-05
601.684	-1.71421e-05
610.363	-1.68563e-05
619.041	-6.18797e-06
627.719	-3.44825e-05
636.397	-3.09084e-05
645.075	-7.38326e-06
653.753	-7.37004e-07
662.431	-3.6431e-05
671.11	-3.04864e-05
679.788	-3.3926e-05
688.466	-4.72818e-05
697.144	-3.76411e-05
705.822	-1.60383e-05
714.5	-2.55723e-05
723.179	-1.91783e-05
731.857	-3.29305e-05
740.535	-2.54836e-05
749.213	-2.94306e-05
757.891	-2.53127e-05
766.569	-2.94171e-05
775.247	-2.8079e-05
783.926	-3.77812e-05
792.604	-2.80363e-05
801.282	-3.66419e-05
809.96	-3.28828e-05
818.638	-3.66111e-05
827.316	-3.32476e-05
835.994	-3.71133e-05
844.673	-3.22707e-05
853.351	-3.305e-05
862.029	-2.40367e-05
870.707	-3.36836e-05
879.385	-2.52053e-05
888.063	-3.81969e-05
896.742	-2.50437e-05
905.42	-4.14909e-05
914.098	-3.26361e-05
922.776	-3.60705e-05
931.454	-2.94262e-05
940.132	-3.97504e-05
948.81	-2.58445e-05
957.489	-3.91999e-05
966.167	-2.72537e-05
974.845	-3.11287e-05
983.523	-2.96042e-05
992.201	-3.53691e-05
1000.88	-2.42583e-05
1009.56	-3.28051e-05
1018.24	-2.57128e-05
1026.91	-3.1808e-05
1035.59	-2.95773e-05
1044.27	-3.18701e-05
1052.95	-2.10299e-05
1061.63	-2.45818e-05
1070.3	-2.14656e-05
1078.98	-3.2974e-05
1087.66	-2.76692e-05
1096.34	-3.13691e-05
1105.02	-2.30778e-05
1113.7	-3.60877e-05
1122.37	-2.15924e-05
1131.05	-3.83827e-05
1139.73	-2.54445e-05
1148.41	-3.40632e-05
1157.09	-2.47865e-05
1165.76	-3.77164e-05
1174.44	-1.73964e-05
1183.12	-3.89823e-05
1191.8	-2.09211e-05
1200.48	-3.66374e-05
1209.15	-1.78341e-05
1217.83	-3.98094e-05
1226.51	-1.29589e-05
1235.19	2.61655e-05
1243.87	0.000229804
1252.55	0.000198742
1261.22	0.000681961
1269.9	0.00110363
1278.58	0.0126179
1287.26	0.00388873
1295.94	-4.53585e-05
1304.61	1.1669e-05
1313.29	-4.6996e-05
1321.97	-9.24442e-06
1330.65	-4.19544e-05
1339.33	-1.11822e-05
1348.01	-4.17779e-05
1356.68	7.67644e-06
1365.36	-3.90535e-05
1374.04	-1.88072e-05
1382.72	-3.96849e-05
1391.4	-2.29596e-05
1400.07	-3.48125e-05
1408.75	-2.25882e-05
1417.43	-2.98899e-05
1426.11	-2.10283e-05
1434.79	-3.43526e-05
1443.46	-2.53208e-05
1452.14	-3.47057e-05
1460.82	-2.47181e-05
1469.5	-3.09989e-05
1478.18	-2.17653e-05
1486.86	-2.58266e-05
1495.53	-1.10775e-05
1504.21	-2.14311e-05
1512.89	-4.06581e-06
1521.57	1.80295e-05
1530.25	-1.01032e-05
1538.92	0.000172938
1547.6	-1.76173e-05
1556.28	-8.62211e-06
1564.96	-1.11973e-05
1573.64	-2.81326e-05
1582.32	-2.63797e-05
1590.99	-3.40783e-05
1599.67	-2.54507e-05
1608.35	-2.88482e-05
1617.03	-2.82282e-06
1625.71	-3.24253e-05
1634.38	-1.72697e-05
1643.06	-2.73129e-05
1651.74	-6.78598e-06
1660.42	-2.51059e-05
1669.1	-1.4581e-05
1677.78	-2.74329e-05
1686.45	-2.22181e-05
1695.13	-8.27718e-07
1703.81	-1.89638e-05
1712.49	-2.79285e-05
1721.17	-2.63013e-05
1729.84	-2.42086e-05
1738.52	-2.40879e-05
1747.2	-2.47757e-05
1755.88	-2.88427e-05
1764.56	-3.35228e-05
1773.23	-1.64362e-05
1781.91	-2.86949e-05
1790.59	-2.2374e-05
1799.27	-2.61274e-05
1807.95	-2.25313e-05
1816.63	-2.62539e-05
1825.3	-2.15861e-05
1833.98	-2.75369e-05
1842.66	-2.6426e-05
1851.34	-3.16506e-05
1860.02	-3.12301e-05
1868.69	-2.62349e-05
1877.37	-2.76731e-05
1886.05	-2.76333e-05
1894.73	-2.43997e-05
1903.41	-2.64737e-05
1912.09	-1.97045e-05
1920.76	-2.35467e-05
1929.44	-2.25393e-05
1938.12	-2.95176e-05
1946.8	-2.4333e-05
1955.48	-2.85345e-05
1964.15	-2.51549e-05
1972.83	-2.97446e-05
1981.51	-2.51538e-05
1990.19	-2.82457e-05
1998.87	-2.74497e-05
2007.54	-2.84714e-05
2016.22	-2.55566e-05
2024.9	-3.26739e-05
2033.58	-3.12565e-05
2042.26	-3.02323e-05
2050.94	-2.64356e-05
2059.61	-3.03006e-05
2068.29	-2.79249e-05
2076.97	-3.18586e-05
2085.65	-2.88371e-05
2094.33	-2.91761e-05
2103	-2.67565e-05
2111.68	-2.7409e-05
2120.36	-2.91124e-05
2129.04	-2.81771e-05
2137.72	-2.60501e-05
2146.4	-2.38961e-05
2155.07	-2.82172e-05
2163.75	-2.32325e-05
2172.43	-1.63229e-05
2181.11	2.95904e-05
2189.79	-2.33199e-06
2198.46	-2.74414e-05
2207.14	-2.81483e-05
2215.82	-2.81436e-05
2224.5	-2.67137e-05
2233.18	-2.98085e-05
2241.85	-2.7067e-05
2250.53	-2.49931e-05
2259.21	-2.48829e-05
2267.89	-2.76277e-05
2276.57	-2.72522e-05
2285.25	-2.5598e-05
2293.92	-2.25661e-05
2302.6	-2.56788e-05
2311.28	-2.2625e-05
2319.96	-2.0988e-05
2328.64	-1.49098e-05
2337.31	-1.36258e-05
2345.99	-1.88108e-05
2354.67	-1.74826e-05
2363.35	-1.13665e-05
2372.03	-1.92213e-05
2380.71	-2.30014e-05
2389.38	-2.94228e-05
2398.06	-2.39527e-05
2406.74	-2.72908e-05
2415.42	-2.81934e-05
2424.1	-2.59557e-05
2432.77	-2.65306e-05
2441.45	-2.8217e-05
2450.13	-2.2083e-05
2458.81	-2.51459e-05
2467.49	-2.70096e-05
2476.16	-2.56743e-05
2484.84	-2.77793e-05
2493.52	-2.77348e-05
2502.2	-2.39348e-05
2510.88	-2.75497e-05
2519.56	-2.54392e-05
2528.23	-2.55826e-05
2536.91	-1.72493e-05
2545.59	-2.46844e-05
2554.27	-6.6005e-05
2562.95	-9.71504e-05
2571.62	-8.32506e-05
2580.3	-1.87141e-05
2588.98	-2.03949e-05
2597.66	-1.83539e-05
2606.34	-1.98173e-05
2615.02	-2.14066e-05
2623.69	-2.41745e-05
2632.37	-2.80019e-05
2641.05	-1.96378e-05
2649.73	-2.17782e-05
2658.41	-2.73967e-05
2667.08	-2.63828e-05
2675.76	-2.57313e-05
2684.44	-2.32277e-05
2693.12	-2.73171e-05
2701.8	-2.66725e-05
2710.47	-2.14301e-05
2719.15	-2.20327e-05
2727.83	-2.36635e-05
2736.51	-2.40796e-05
2745.19	-2.58717e-05
2753.87	-1.8775e-05
2762.54	-2.21712e-05
2771.22	-2.41191e-05
2779.9	-2.57842e-05
2788.58	-2.58831e-05
2797.26	-2.40923e-05
2805.93	-2.38695e-05
2814.61	-2.69319e-05
2823.29	-2.60646e-05
2831.97	-2.66414e-05
2840.65	-1.61687e-05
2849.33	-2.31026e-05
2858	-2.18629e-05
2866.68	-2.64028e-05
2875.36	-2.27723e-05
2884.04	-2.3232e-05
2892.72	-2.53251e-05
2901.39	-2.43203e-05
2910.07	-1.63508e-05
2918.75	-2.41201e-05
2927.43	-2.33772e-05
2936.11	-2.30811e-05
2944.78	-2.87947e-05
2953.46	-2.31413e-05
2962.14	-2.29112e-05
2970.82	-2.60637e-05
2979.5	-2.79994e-05
2988.18	-2.18584e-05
2996.85	-1.92905e-05
3005.53	-2.30471e-05
3014.21	-2.48211e-05
3022.89	-2.22143e-05
3031.57	-2.54871e-05
3040.24	-2.66563e-05
3048.92	-2.32553e-05
3057.6	-2.163e-05
3066.28	-1.77769e-05
3074.96	-2.20071e-05
3083.64	-1.7194e-05
3092.31	-2.27063e-05
3100.99	-2.01785e-05
3109.67	-2.69447e-05
3118.35	-1.69367e-05
3127.03	-1.76367e-05
3135.7	-2.06601e-05
3144.38	-2.57222e-05
3153.06	-2.56522e-05
3161.74	-2.33099e-05
3170.42	-1.89438e-05
3179.09	-2.00289e-05
3187.77	-2.45777e-05
3196.45	-1.80442e-05
3205.13	-2.18665e-05
3213.81	-1.96031e-05
3222.49	-1.84467e-05
3231.16	-2.09135e-05
3239.84	-2.68194e-05
3248.52	-2.23049e-05
3257.2	-2.55532e-05
3265.88	-2.17383e-05
3274.55	-1.84679e-05
3283.23	-1.78752e-05
3291.91	-2.1625e-05
3300.59	-2.35835e-05
3309.27	-1.94653e-05
3317.95	-2.44241e-05
3326.62	-2.58238e-05
3335.3	-2.32094e-05
3343.98	-2.05628e-05
3352.66	-1.82661e-05
3361.34	-2.37243e-05
3370.01	-2.00276e-05
3378.69	-2.32469e-05
3387.37	-1.63012e-05
3396.05	-2.34408e-05
3404.73	-1.98329e-05
3413.4	-2.30246e-05
3422.08	-1.68806e-05
3430.76	-2.06588e-05
3439.44	-1.03189e-05
3448.12	-1.59367e-05
3456.8	-2.37507e-05
3465.47	-1.19183e-05
3474.15	-2.04475e-05
3482.83	-2.29532e-05
3491.51	-2.144e-05
3500.19	-1.24914e-05
3508.86	-2.21825e-05
3517.54	-2.26191e-05
3526.22	-2.03087e-05
3534.9	-1.35542e-05
3543.58	-2.12249e-05
3552.26	-1.9402e-05
3560.93	-1.53501e-05
3569.61	-1.7059e-05
3578.29	-2.33278e-05
3586.97	-2.14639e-05
3595.65	-2.89167e-05
3604.32	-2.10921e-05
3613	-1.62436e-05
3621.68	-1.73503e-05
3630.36	-1.18259e-05
3639.04	-1.12105e-05
3647.72	-7.32069e-06
3656.39	-4.19357e-06
3665.07	-1.19182e-05
3673.75	-1.5863e-05
3682.43	-1.57545e-05
3691.11	-7.53424e-06
3699.78	-1.10157e-05
3708.46	-1.71796e-05
3717.14	-2.08635e-05
3725.82	-1.6676e-05
3734.5	-1.59862e-05
3743.17	-1.2642e-05
3751.85	4.28606e-06
3760.53	-1.16192e-05
3769.21	-1.5916e-05
3777.89	-1.7034e-05
3786.57	-1.70899e-05
3795.24	-2.0233e-05
3803.92	-1.64097e-05
3812.6	-1.31376e-05
3821.28	-6.94275e-06
3829.96	-2.29865e-05
3838.63	-1.15028e-05
3847.31	-3.24667e-05
3855.99	-2.806e-05
3864.67	-7.28358e-06
3873.35	-1.4953e-05
3882.03	-2.37735e-05
3890.7	-6.18107e-06
3899.38	-1.24454e-05
3908.06	-1.56045e-05
3916.74	-7.95871e-06
3925.42	-6.39e-06
3934.09	-2.00129e-05
3942.77	-1.26502e-05
3951.45	-1.76742e-05
3960.13	-1.91089e-05
3968.81	-1.23754e-05
