Infrared Spectrum: Dichlorodifluoromethane
Formula: C Cl2 F2
CAS: 75-71-8
State: gas
Melting point: -158 C
Boiling point: -29.8 C
Class: IUPAC A
Instrument: IFS66V (Bruker)
Instrument parameters: KBr Beam Splitter; MCT Detector; Multipass cell
Sampling: 1 L/min Flow
Resolution: 0.1250
Temperature: 23 C
Pressure: 101.3 Pa
Origin: NIST, Analytical Chemistry Division, 301-975-3108
cm-1	(micromol/mol)-1m-1 (base 10)
575.05	1.82848e-06
583.608	1.06238e-05
592.165	-1.2543e-06
600.723	3.43113e-07
609.281	1.07976e-06
617.838	-1.70007e-06
626.396	-2.54002e-07
634.954	2.09121e-06
643.511	7.89588e-06
652.069	2.01625e-05
660.626	4.65568e-05
669.184	7.92317e-05
677.742	5.22576e-05
686.299	8.67568e-06
694.857	4.42045e-07
703.415	-1.05723e-06
711.972	-3.68984e-07
720.53	2.51303e-06
729.088	1.16741e-06
737.645	-9.55622e-07
746.203	8.20007e-07
754.761	-6.2773e-08
763.318	2.20378e-06
771.876	-4.8532e-07
780.434	7.25877e-07
788.991	8.97782e-07
797.549	1.13921e-06
806.106	-8.12659e-07
814.664	4.27494e-07
823.222	9.63916e-07
831.779	4.90699e-06
840.337	9.31345e-06
848.895	1.34819e-05
857.452	3.80828e-05
866.01	0.000123427
874.568	0.000311507
883.125	0.00052325
891.683	0.000516269
900.241	0.000281722
908.798	0.000932365
917.356	0.00161676
925.914	0.00175876
934.471	0.000902956
943.029	1.68611e-05
951.586	1.74635e-06
960.144	9.84273e-07
968.702	-2.60128e-07
977.259	3.80931e-07
985.817	-3.18594e-07
994.375	-3.67893e-07
1002.93	-1.47033e-06
1011.49	-2.23048e-06
1020.05	-2.46741e-07
1028.61	1.05518e-06
1037.16	-6.53369e-07
1045.72	1.77036e-06
1054.28	4.60426e-06
1062.84	1.65166e-05
1071.39	6.24203e-05
1079.95	0.000281516
1088.51	0.000942156
1097.07	0.00158717
1105.62	0.00129178
1114.18	0.00089782
1122.74	0.000316338
1131.3	0.000236873
1139.85	0.000334287
1148.41	0.000904882
1156.97	0.0011854
1165.53	0.000614406
1174.09	0.000390331
1182.64	5.20168e-05
1191.2	8.68174e-06
1199.76	7.99528e-06
1208.32	9.24166e-06
1216.87	3.72644e-06
1225.43	7.04965e-06
1233.99	1.22483e-05
1242.55	2.03801e-05
1251.1	9.60896e-06
1259.66	1.83443e-06
1268.22	2.26123e-07
1276.78	-1.02529e-06
1285.33	-9.54677e-07
1293.89	4.44722e-07
1302.45	6.03474e-07
1311.01	1.16607e-06
1319.57	1.98803e-06
1328.12	2.47687e-06
1336.68	2.34968e-06
1345.24	4.28818e-06
1353.8	4.31442e-06
1362.35	6.33169e-06
1370.91	4.68359e-06
1379.47	7.88932e-06
1388.03	5.75636e-06
1396.58	1.62516e-06
1405.14	-3.18623e-07
1413.7	3.86955e-07
1422.26	-7.53844e-07
1430.81	-6.03837e-07
1439.37	1.5149e-07
1447.93	-1.64953e-06
1456.49	-2.57448e-06
1465.05	-4.16973e-07
1473.6	-1.59304e-07
1482.16	1.37785e-06
1490.72	-2.78826e-07
1499.28	-2.76993e-07
1507.83	-2.97161e-07
1516.39	1.73142e-07
1524.95	1.01711e-08
1533.51	-5.26164e-07
1542.06	-8.77818e-07
1550.62	3.7738e-07
1559.18	5.72233e-07
1567.74	1.05639e-06
1576.29	7.63331e-07
1584.85	5.27129e-06
1593.41	5.17531e-06
1601.97	7.42101e-07
1610.53	7.15065e-07
1619.08	5.41006e-08
1627.64	-8.55657e-07
1636.2	-4.88317e-07
1644.76	-4.42787e-07
1653.31	-3.87691e-06
1661.87	-8.17388e-07
1670.43	-2.89027e-07
1678.99	-2.1585e-07
1687.54	2.60332e-07
1696.1	-1.96197e-06
1704.66	-2.4322e-07
1713.22	-1.75194e-08
1721.77	-3.93997e-07
1730.33	9.7304e-07
1738.89	2.32045e-07
1747.45	1.06093e-06
1756.01	3.26698e-06
1764.56	3.18181e-06
1773.12	2.23316e-06
1781.68	7.50904e-07
1790.24	1.15152e-06
1798.79	2.07128e-06
1807.35	2.44647e-06
1815.91	1.10084e-06
1824.47	9.85539e-07
1833.02	2.60184e-06
1841.58	1.0391e-06
1850.14	4.69895e-07
1858.7	-5.74823e-07
1867.25	-8.83944e-07
1875.81	-2.16417e-07
1884.37	5.61116e-07
1892.93	-1.27627e-07
1901.49	-7.47703e-07
1910.04	7.63185e-07
1918.6	3.23614e-07
1927.16	-7.83135e-08
1935.72	-2.28014e-07
1944.27	2.26734e-07
1952.83	2.7935e-07
1961.39	1.52785e-09
1969.95	6.53049e-08
1978.5	1.97661e-07
1987.06	1.583e-07
1995.62	3.69988e-07
2004.18	6.97211e-07
2012.73	8.46795e-07
2021.29	9.57092e-07
2029.85	3.19787e-07
2038.41	7.56579e-07
2046.97	1.02337e-07
2055.52	-1.24193e-07
2064.08	3.99396e-07
2072.64	5.87424e-08
2081.2	-8.0259e-07
2089.75	-5.81094e-07
2098.31	-2.4581e-07
2106.87	-5.05633e-07
2115.43	-1.0163e-06
2123.98	1.82571e-07
2132.54	-3.63921e-08
2141.1	7.35102e-07
2149.66	-1.41581e-08
2158.21	-3.0253e-07
2166.77	6.56832e-07
2175.33	2.20836e-06
2183.89	4.47056e-06
2192.45	7.51358e-06
2201	7.00046e-06
2209.56	2.30194e-06
2218.12	2.61678e-06
2226.68	6.02586e-06
2235.23	1.25371e-05
2243.79	1.65933e-05
2252.35	1.08879e-05
2260.91	6.86979e-06
2269.46	2.29223e-06
2278.02	2.04853e-06
2286.58	5.36626e-07
2295.14	1.56828e-06
2303.69	5.22468e-06
2312.25	8.27748e-06
2320.81	4.12263e-06
2329.37	1.34795e-06
2337.93	-4.62023e-07
2346.48	-3.59351e-07
2355.04	-5.81618e-07
2363.6	3.64852e-07
2372.16	5.15498e-07
2380.71	7.71596e-07
2389.27	2.42027e-07
2397.83	1.87199e-07
2406.39	4.55839e-07
2414.94	1.89934e-07
2423.5	1.4193e-07
2432.06	3.60588e-07
2440.62	1.05597e-07
2449.17	-4.83253e-07
2457.73	-4.5872e-07
2466.29	3.21912e-07
2474.85	6.12743e-08
2483.41	-5.64142e-07
2491.96	4.77651e-07
2500.52	1.5184e-07
2509.08	8.16908e-07
2517.64	7.89799e-07
2526.19	4.27639e-07
2534.75	4.07719e-08
2543.31	1.40795e-07
2551.87	-1.28631e-08
2560.42	2.92097e-07
2568.98	-1.42382e-07
2577.54	1.43717e-06
2586.1	-6.64981e-09
2594.65	3.18536e-07
2603.21	-9.0513e-07
2611.77	1.6062e-06
2620.33	5.56401e-07
2628.89	-1.6901e-07
2637.44	2.81722e-07
2646	2.43526e-07
2654.56	1.72589e-07
2663.12	-1.2623e-07
2671.67	5.91353e-08
2680.23	-2.97219e-07
2688.79	4.47341e-07
2697.35	-4.87269e-07
2705.9	7.25949e-07
2714.46	3.21694e-07
2723.02	1.15979e-06
2731.58	-7.20274e-09
2740.13	-1.40665e-07
2748.69	-7.51603e-07
2757.25	7.1751e-08
2765.81	-8.87145e-07
2774.37	2.82042e-07
2782.92	-5.72087e-07
2791.48	6.15405e-07
2800.04	-6.84115e-07
2808.6	-2.41896e-07
2817.15	1.89469e-07
2825.71	-8.35518e-08
2834.27	6.38789e-07
2842.83	-1.43386e-07
2851.38	-6.66712e-07
2859.94	-5.12486e-07
2868.5	1.65765e-07
2877.06	1.52087e-06
2885.61	-1.1128e-06
2894.17	4.161e-07
2902.73	6.28429e-07
2911.29	-6.30844e-07
2919.85	3.14025e-07
2928.4	-1.24619e-06
2936.96	5.31635e-07
2945.52	6.84043e-08
2954.08	-9.48565e-07
2962.63	-1.58487e-06
2971.19	4.1028e-07
2979.75	-5.71214e-07
2988.31	-4.30855e-08
2996.86	5.08718e-07
3005.42	-1.07692e-07
3013.98	1.33613e-06
3022.54	1.04159e-06
3031.09	7.89537e-08
3039.65	2.58091e-07
3048.21	-6.60732e-07
3056.77	3.30933e-07
3065.33	-1.07494e-06
3073.88	-6.34569e-08
3082.44	1.33374e-07
3091	8.8003e-07
3099.56	-3.61621e-07
3108.11	6.03212e-07
3116.67	-4.54457e-07
3125.23	-2.57029e-07
3133.79	5.28012e-07
3142.34	2.41343e-07
3150.9	2.50292e-07
3159.46	4.56421e-07
3168.02	4.46075e-07
3176.57	-5.76482e-07
3185.13	-1.46606e-06
3193.69	-2.31536e-07
3202.25	9.46921e-07
3210.81	-1.71091e-07
3219.36	7.06364e-07
3227.92	-1.07526e-06
3236.48	1.92117e-06
3245.04	-5.43742e-07
3253.59	-3.66714e-07
3262.15	2.57946e-07
3270.71	-3.90389e-07
3279.27	1.14195e-06
3287.82	-2.47047e-07
3296.38	7.73633e-07
3304.94	-5.17346e-07
3313.5	-1.89949e-07
3322.05	1.12887e-07
3330.61	1.16306e-07
3339.17	8.15729e-08
3347.73	1.04978e-06
3356.29	-1.52174e-07
3364.84	6.64806e-07
3373.4	-2.48822e-07
3381.96	1.74068e-06
3390.52	-8.0128e-07
3399.07	-1.71265e-08
3407.63	4.62431e-08
3416.19	-2.81256e-07
3424.75	-7.42101e-08
3433.3	7.89537e-07
3441.86	7.60901e-07
3450.42	-6.71209e-07
3458.98	-1.80304e-06
3467.53	2.50757e-07
3476.09	-5.19936e-07
3484.65	-3.81294e-07
3493.21	7.58398e-08
3501.77	8.82751e-07
3510.32	4.43762e-07
3518.88	3.80654e-08
3527.44	4.21426e-07
3536	8.7824e-07
3544.55	6.80638e-07
3553.11	-4.80605e-07
3561.67	-2.85956e-07
3570.23	-9.10805e-07
3578.78	-3.78588e-07
3587.34	-9.97326e-08
3595.9	-8.21768e-07
3604.46	5.8981e-07
3613.01	1.74525e-07
3621.57	2.22894e-06
3630.13	1.14225e-07
3638.69	-4.36035e-07
3647.25	-8.45355e-07
3655.8	-4.10193e-07
3664.36	4.01899e-07
3672.92	-2.02797e-07
3681.48	6.46545e-07
3690.03	-2.42405e-07
3698.59	1.08236e-06
3707.15	1.53293e-06
3715.71	3.45208e-07
3724.26	7.74273e-07
3732.82	1.3676e-06
3741.38	-6.72198e-07
3749.94	5.47801e-07
3758.49	-5.06229e-08
3767.05	4.36457e-07
3775.61	-3.4013e-07
3784.17	9.77565e-07
3792.73	2.15128e-06
3801.28	-1.48526e-06
3809.84	5.32363e-07
3818.4	2.90758e-07
3826.96	1.18046e-06
3835.51	2.16577e-07
3844.07	5.57987e-07
3852.63	2.34649e-07
3861.19	-3.51727e-07
3869.74	-3.91349e-07
3878.3	1.50457e-07
3886.86	-2.04485e-07
3895.42	2.8971e-07
3903.97	3.42269e-07
3912.53	-2.98194e-07
3921.09	-2.2589e-07
3929.65	4.36108e-07
3938.21	-6.35006e-08
3946.76	-1.98767e-07
3955.32	3.34149e-07
3963.88	-5.00933e-07
3972.44	-7.04559e-08
