Infrared Spectrum: Carbon tetrafluoride
Formula: C F4
CAS: 75-73-0
State: gas
Melting point: -150 C
Boiling point: -129 C
Class: IUPAC A
Instrument: IFS66V (Bruker)
Instrument parameters: KBr Beam Splitter; MCT Detector; Multipass cell
Sampling: 1 L/min Flow
Resolution: 1.9290
Temperature: 23 C
Pressure: 101.3 Pa
Origin: NIST, Analytical Chemistry Division, 301-975-3108
cm-1	(micromol/mol)-1m-1 (base 10)
575.65	-0.000105422
584.328	7.92948e-06
593.006	-6.64354e-05
601.684	2.86209e-05
610.363	-5.14285e-05
619.041	3.83764e-05
627.719	-8.58325e-05
636.397	-3.45069e-05
645.075	-2.97741e-05
653.753	1.17821e-05
662.431	-6.56947e-05
671.11	-1.3519e-05
679.788	-4.53796e-05
688.466	-4.32056e-05
697.144	-5.62092e-05
705.822	5.3157e-06
714.5	-3.93822e-05
723.179	1.65942e-06
731.857	-4.74923e-05
740.535	-4.3061e-06
749.213	-4.75374e-05
757.891	-4.00982e-06
766.569	-4.97052e-05
775.247	-7.86854e-06
783.926	-5.47119e-05
792.604	-1.1628e-06
801.282	-5.50579e-05
809.96	-4.47996e-06
818.638	-6.39696e-05
827.316	-8.80072e-06
835.994	-5.0806e-05
844.673	-1.00157e-06
853.351	-5.20473e-05
862.029	5.4771e-06
870.707	-5.32997e-05
879.385	2.12933e-06
888.063	-6.79279e-05
896.742	3.60738e-06
905.42	-7.39079e-05
914.098	-6.78571e-06
922.776	-6.27835e-05
931.454	-1.19022e-06
940.132	-7.35747e-05
948.81	1.01359e-05
957.489	-7.72111e-05
966.167	2.02031e-06
974.845	-5.67046e-05
983.523	7.53111e-06
992.201	-6.83906e-05
1000.88	1.56698e-05
1009.56	-6.84548e-05
1018.24	1.31479e-05
1026.91	-6.58588e-05
1035.59	7.3239e-06
1044.27	-7.15345e-05
1052.95	1.98142e-05
1061.63	-6.74701e-05
1070.3	2.63207e-05
1078.98	-7.91598e-05
1087.66	1.90228e-05
1096.34	-8.38527e-05
1105.02	3.51411e-05
1113.7	-9.68856e-05
1122.37	3.95881e-05
1131.05	-9.98642e-05
1139.73	4.2222e-05
1148.41	-0.000110519
1157.09	5.26492e-05
1165.76	-0.000124516
1174.44	7.18038e-05
1183.12	-0.000135684
1191.8	8.63581e-05
1200.48	-0.00014957
1209.15	0.000114925
1217.83	-0.000184698
1226.51	0.00015025
1235.19	-0.000159877
1243.87	0.000600738
1252.55	-0.000131905
1261.22	0.00128471
1269.9	0.000325807
1278.58	0.0155303
1287.26	0.00514835
1295.94	-0.000751491
1304.61	0.000437134
1313.29	-0.000347754
1321.97	0.000222421
1330.65	-0.000230745
1339.33	0.000153982
1348.01	-0.000183144
1356.68	0.000137369
1365.36	-0.000147675
1374.04	8.02349e-05
1382.72	-0.000130153
1391.4	5.93313e-05
1400.07	-0.000114132
1408.75	4.7962e-05
1417.43	-9.18179e-05
1426.11	4.24978e-05
1434.79	-9.28683e-05
1443.46	3.02281e-05
1452.14	-8.48103e-05
1460.82	2.34227e-05
1469.5	-7.83561e-05
1478.18	2.16504e-05
1486.86	-6.70669e-05
1495.53	2.66892e-05
1504.21	-6.80912e-05
1512.89	3.18201e-05
1521.57	-5.91901e-06
1530.25	1.65028e-05
1538.92	0.000233878
1547.6	1.95557e-05
1556.28	-4.43886e-05
1564.96	1.96034e-05
1573.64	-5.23758e-05
1582.32	3.93654e-06
1590.99	-6.31024e-05
1599.67	4.80091e-07
1608.35	-5.34713e-05
1617.03	3.39195e-05
1625.71	-5.74357e-05
1634.38	-3.3717e-06
1643.06	-5.09669e-05
1651.74	4.7363e-06
1660.42	-4.64667e-05
1669.1	1.42413e-05
1677.78	-4.43733e-05
1686.45	-1.30923e-05
1695.13	-1.95991e-05
1703.81	-7.38123e-07
1712.49	-4.4517e-05
1721.17	-9.5201e-06
1729.84	-4.16334e-05
1738.52	-1.4465e-05
1747.2	-3.96913e-05
1755.88	-1.60021e-05
1764.56	-5.00854e-05
1773.23	4.39847e-06
1781.91	-4.40145e-05
1790.59	-5.24399e-06
1799.27	-3.85469e-05
1807.95	-6.40353e-06
1816.63	-3.67899e-05
1825.3	-4.65825e-06
1833.98	-4.05393e-05
1842.66	-2.03504e-05
1851.34	-4.20876e-05
1860.02	-1.88692e-05
1868.69	-4.16362e-05
1877.37	-1.62829e-05
1886.05	-3.63599e-05
1894.73	-1.32257e-05
1903.41	-4.01339e-05
1912.09	-7.38967e-06
1920.76	-3.55624e-05
1929.44	-1.05477e-05
1938.12	-4.19626e-05
1946.8	-1.56228e-05
1955.48	-3.86359e-05
1964.15	-1.48572e-05
1972.83	-4.15558e-05
1981.51	-1.68279e-05
1990.19	-3.92474e-05
1998.87	-1.73808e-05
2007.54	-3.77694e-05
2016.22	-1.578e-05
2024.9	-4.22152e-05
2033.58	-2.13393e-05
2042.26	-3.68514e-05
2050.94	-1.64219e-05
2059.61	-3.84528e-05
2068.29	-1.92599e-05
2076.97	-4.16196e-05
2085.65	-2.42223e-05
2094.33	-3.83411e-05
2103	-1.50151e-05
2111.68	-3.1953e-05
2120.36	-2.25079e-05
2129.04	-3.6419e-05
2137.72	-1.65065e-05
2146.4	-2.99913e-05
2155.07	-2.56847e-05
2163.75	-2.76509e-05
2172.43	-9.48041e-06
2181.11	2.01145e-05
2189.79	-8.02843e-06
2198.46	-3.14854e-05
2207.14	-2.47944e-05
2215.82	-3.54291e-05
2224.5	-2.29447e-05
2233.18	-3.20806e-05
2241.85	-2.19095e-05
2250.53	-2.62668e-05
2259.21	-1.84043e-05
2267.89	-2.87416e-05
2276.57	-2.09872e-05
2285.25	-2.82338e-05
2293.92	-1.75424e-05
2302.6	-2.5487e-05
2311.28	-1.62265e-05
2319.96	-2.77146e-05
2328.64	-4.748e-06
2337.31	-1.69785e-05
2345.99	-1.48536e-05
2354.67	-2.21934e-05
2363.35	-9.84665e-06
2372.03	-2.3883e-05
2380.71	-1.76283e-05
2389.38	-3.38577e-05
2398.06	-1.89269e-05
2406.74	-3.19793e-05
2415.42	-2.52696e-05
2424.1	-3.08036e-05
2432.77	-2.14232e-05
2441.45	-3.27889e-05
2450.13	-1.89737e-05
2458.81	-2.8137e-05
2467.49	-2.32721e-05
2476.16	-2.78706e-05
2484.84	-2.79852e-05
2493.52	-3.01607e-05
2502.2	-2.383e-05
2510.88	-2.95346e-05
2519.56	-2.34184e-05
2528.23	-2.48545e-05
2536.91	-1.16263e-05
2545.59	-2.70544e-05
2554.27	-6.51649e-05
2562.95	-8.73177e-05
2571.62	-8.43554e-05
2580.3	-1.9629e-05
2588.98	-1.90367e-05
2597.66	-1.72109e-05
2606.34	-2.1157e-05
2615.02	-2.01679e-05
2623.69	-2.15176e-05
2632.37	-3.02549e-05
2641.05	-1.71037e-05
2649.73	-1.83804e-05
2658.41	-3.03827e-05
2667.08	-2.89117e-05
2675.76	-2.44499e-05
2684.44	-2.55117e-05
2693.12	-2.46136e-05
2701.8	-2.83477e-05
2710.47	-2.03506e-05
2719.15	-2.38347e-05
2727.83	-2.13014e-05
2736.51	-2.18714e-05
2745.19	-2.84919e-05
2753.87	-1.6375e-05
2762.54	-2.07496e-05
2771.22	-2.33015e-05
2779.9	-2.11542e-05
2788.58	-2.83476e-05
2797.26	-2.51748e-05
2805.93	-2.30317e-05
2814.61	-2.92771e-05
2823.29	-2.67677e-05
2831.97	-2.9761e-05
2840.65	-1.8185e-05
2849.33	-2.2283e-05
2858	-2.15917e-05
2866.68	-2.75638e-05
2875.36	-2.07435e-05
2884.04	-2.44183e-05
2892.72	-2.5376e-05
2901.39	-2.28549e-05
2910.07	-1.80612e-05
2918.75	-2.23344e-05
2927.43	-2.15786e-05
2936.11	-2.72315e-05
2944.78	-2.81864e-05
2953.46	-2.4168e-05
2962.14	-2.0157e-05
2970.82	-2.92376e-05
2979.5	-3.02974e-05
2988.18	-1.85229e-05
2996.85	-1.64058e-05
3005.53	-2.64283e-05
3014.21	-2.16595e-05
3022.89	-2.692e-05
3031.57	-2.6545e-05
3040.24	-3.16797e-05
3048.92	-1.5857e-05
3057.6	-1.8078e-05
3066.28	-1.42607e-05
3074.96	-2.34532e-05
3083.64	-1.35701e-05
3092.31	-2.91463e-05
3100.99	-1.77709e-05
3109.67	-3.03769e-05
3118.35	-1.29487e-05
3127.03	-1.61964e-05
3135.7	-1.51487e-05
3144.38	-3.37208e-05
3153.06	-2.75428e-05
3161.74	-2.71533e-05
3170.42	-1.67573e-05
3179.09	-2.58386e-05
3187.77	-2.52062e-05
3196.45	-1.548e-05
3205.13	-1.5776e-05
3213.81	-1.81232e-05
3222.49	-1.32919e-05
3231.16	-2.22815e-05
3239.84	-2.42415e-05
3248.52	-2.60514e-05
3257.2	-3.16817e-05
3265.88	-2.49279e-05
3274.55	-1.36251e-05
3283.23	-1.46121e-05
3291.91	-1.69404e-05
3300.59	-2.24855e-05
3309.27	-1.47037e-05
3317.95	-3.21535e-05
3326.62	-1.13223e-05
3335.3	-2.79626e-05
3343.98	-1.41888e-05
3352.66	-1.82021e-05
3361.34	-2.04645e-05
3370.01	-2.45666e-05
3378.69	-1.44199e-05
3387.37	-1.02227e-05
3396.05	-1.94285e-05
3404.73	-2.3672e-05
3413.4	-2.42303e-05
3422.08	-2.60604e-05
3430.76	-1.7109e-05
3439.44	-5.2526e-06
3448.12	-7.80643e-06
3456.8	-3.22804e-05
3465.47	-8.75282e-06
3474.15	-1.9601e-05
3482.83	-2.18058e-05
3491.51	-2.97734e-05
3500.19	-5.31791e-06
3508.86	-2.37508e-05
3517.54	-1.80507e-05
3526.22	-2.5714e-05
3534.9	-1.11589e-06
3543.58	-2.70752e-05
3552.26	-1.30414e-05
3560.93	-1.89424e-05
3569.61	-1.01855e-05
3578.29	-3.29755e-05
3586.97	-2.28848e-05
3595.65	-3.63567e-05
3604.32	-1.6664e-05
3613	-2.22435e-05
3621.68	-1.41502e-05
3630.36	-2.44085e-05
3639.04	-5.34672e-06
3647.72	-1.77728e-05
3656.39	9.85188e-06
3665.07	-7.19974e-06
3673.75	-1.77069e-05
3682.43	-2.04757e-05
3691.11	6.52518e-06
3699.78	-1.13612e-05
3708.46	-1.81003e-05
3717.14	-2.66615e-05
3725.82	-1.63459e-05
3734.5	-1.15934e-05
3743.17	-2.26911e-05
3751.85	1.2601e-05
3760.53	1.87968e-06
3769.21	-2.36526e-05
3777.89	-1.37149e-05
3786.57	-2.0452e-05
3795.24	-1.5983e-05
3803.92	-2.33401e-05
3812.6	-8.01621e-06
3821.28	-1.26032e-05
3829.96	-1.94816e-05
3838.63	-1.95424e-05
3847.31	-6.04006e-05
3855.99	-4.51271e-05
3864.67	1.99551e-06
3873.35	-2.49e-05
3882.03	-1.67985e-05
3890.7	-1.17089e-05
3899.38	1.99312e-06
3908.06	-1.79654e-05
3916.74	-4.25639e-06
3925.42	-1.63633e-05
3934.09	-1.25625e-05
3942.77	-1.98784e-05
3951.45	-1.20266e-05
3960.13	-3.33388e-05
3968.81	-4.71244e-06
