Infrared Spectrum: Carbon tetrafluoride
Formula: C F4
CAS: 75-73-0
State: gas
Melting point: -150 C
Boiling point: -129 C
Class: IUPAC A
Instrument: IFS66V (Bruker)
Instrument parameters: KBr Beam Splitter; MCT Detector; Multipass cell
Sampling: 1 L/min Flow
Resolution: 1.9290
Temperature: 23 C
Pressure: 101.3 Pa
Origin: NIST, Analytical Chemistry Division, 301-975-3108
cm-1	(micromol/mol)-1m-1 (base 10)
575.65	-5.84127e-05
584.328	1.07482e-05
593.006	-3.48824e-05
601.684	-1.66244e-05
610.363	-1.72247e-05
619.041	-5.98975e-06
627.719	-3.54112e-05
636.397	-3.09472e-05
645.075	-7.69798e-06
653.753	-6.28654e-07
662.431	-3.66894e-05
671.11	-3.03591e-05
679.788	-3.42731e-05
688.466	-4.70143e-05
697.144	-3.79467e-05
705.822	-1.61176e-05
714.5	-2.58922e-05
723.179	-1.89961e-05
731.857	-3.30694e-05
740.535	-2.51234e-05
749.213	-2.97419e-05
757.891	-2.50155e-05
766.569	-2.98484e-05
775.247	-2.78605e-05
783.926	-3.80421e-05
792.604	-2.77511e-05
801.282	-3.68377e-05
809.96	-3.25411e-05
818.638	-3.6973e-05
827.316	-3.28993e-05
835.994	-3.73961e-05
844.673	-3.18868e-05
853.351	-3.34215e-05
862.029	-2.36751e-05
870.707	-3.39395e-05
879.385	-2.48218e-05
888.063	-3.85071e-05
896.742	-2.4824e-05
905.42	-4.18884e-05
914.098	-3.22337e-05
922.776	-3.6373e-05
931.454	-2.90179e-05
940.132	-4.00934e-05
948.81	-2.5417e-05
957.489	-3.95827e-05
966.167	-2.69047e-05
974.845	-3.16394e-05
983.523	-2.91241e-05
992.201	-3.57671e-05
1000.88	-2.37283e-05
1009.56	-3.33655e-05
1018.24	-2.52653e-05
1026.91	-3.23725e-05
1035.59	-2.8942e-05
1044.27	-3.24337e-05
1052.95	-2.04054e-05
1061.63	-2.53258e-05
1070.3	-2.08511e-05
1078.98	-3.36416e-05
1087.66	-2.69434e-05
1096.34	-3.2188e-05
1105.02	-2.22577e-05
1113.7	-3.68225e-05
1122.37	-2.07837e-05
1131.05	-3.92226e-05
1139.73	-2.44502e-05
1148.41	-3.51342e-05
1157.09	-2.36926e-05
1165.76	-3.88806e-05
1174.44	-1.62057e-05
1183.12	-4.0224e-05
1191.8	-1.94152e-05
1200.48	-3.83177e-05
1209.15	-1.5989e-05
1217.83	-4.18805e-05
1226.51	-1.06102e-05
1235.19	2.37772e-05
1243.87	0.000233036
1252.55	0.000194493
1261.22	0.000689134
1269.9	0.00109311
1278.58	0.0126812
1287.26	0.00397284
1295.94	-5.5027e-05
1304.61	1.75487e-05
1313.29	-5.12295e-05
1321.97	-5.98241e-06
1330.65	-4.46376e-05
1339.33	-8.93384e-06
1348.01	-4.37456e-05
1356.68	9.19533e-06
1365.36	-4.05884e-05
1374.04	-1.73911e-05
1382.72	-4.08529e-05
1391.4	-2.18008e-05
1400.07	-3.59799e-05
1408.75	-2.16241e-05
1417.43	-3.06698e-05
1426.11	-2.01824e-05
1434.79	-3.49489e-05
1443.46	-2.45812e-05
1452.14	-3.54087e-05
1460.82	-2.40033e-05
1469.5	-3.15567e-05
1478.18	-2.11122e-05
1486.86	-2.64809e-05
1495.53	-1.06843e-05
1504.21	-2.18695e-05
1512.89	-3.60423e-06
1521.57	1.73525e-05
1530.25	-9.72381e-06
1538.92	0.000170725
1547.6	-1.69376e-05
1556.28	-8.68995e-06
1564.96	-1.08339e-05
1573.64	-2.837e-05
1582.32	-2.59682e-05
1590.99	-3.43922e-05
1599.67	-2.51019e-05
1608.35	-2.92186e-05
1617.03	-2.69037e-06
1625.71	-3.25907e-05
1634.38	-1.70428e-05
1643.06	-2.76666e-05
1651.74	-6.52949e-06
1660.42	-2.54483e-05
1669.1	-1.43677e-05
1677.78	-2.76147e-05
1686.45	-2.17229e-05
1695.13	-1.4018e-06
1703.81	-1.87722e-05
1712.49	-2.81268e-05
1721.17	-2.6012e-05
1729.84	-2.45339e-05
1738.52	-2.38813e-05
1747.2	-2.50353e-05
1755.88	-2.86173e-05
1764.56	-3.37035e-05
1773.23	-1.62133e-05
1781.91	-2.89036e-05
1790.59	-2.20856e-05
1799.27	-2.63597e-05
1807.95	-2.23893e-05
1816.63	-2.64925e-05
1825.3	-2.15172e-05
1833.98	-2.77361e-05
1842.66	-2.61818e-05
1851.34	-3.17962e-05
1860.02	-3.10406e-05
1868.69	-2.64597e-05
1877.37	-2.75083e-05
1886.05	-2.77865e-05
1894.73	-2.42525e-05
1903.41	-2.65892e-05
1912.09	-1.95775e-05
1920.76	-2.36315e-05
1929.44	-2.23728e-05
1938.12	-2.96129e-05
1946.8	-2.42042e-05
1955.48	-2.8663e-05
1964.15	-2.50563e-05
1972.83	-2.98606e-05
1981.51	-2.50527e-05
1990.19	-2.83868e-05
1998.87	-2.72564e-05
2007.54	-2.86172e-05
2016.22	-2.54828e-05
2024.9	-3.28074e-05
2033.58	-3.10963e-05
2042.26	-3.03498e-05
2050.94	-2.63822e-05
2059.61	-3.038e-05
2068.29	-2.78251e-05
2076.97	-3.19324e-05
2085.65	-2.87312e-05
2094.33	-2.9278e-05
2103	-2.66512e-05
2111.68	-2.75149e-05
2120.36	-2.89869e-05
2129.04	-2.83014e-05
2137.72	-2.59329e-05
2146.4	-2.3966e-05
2155.07	-2.81125e-05
2163.75	-2.33341e-05
2172.43	-1.62463e-05
2181.11	2.94719e-05
2189.79	-2.25313e-06
2198.46	-2.75261e-05
2207.14	-2.80827e-05
2215.82	-2.82139e-05
2224.5	-2.66458e-05
2233.18	-2.98036e-05
2241.85	-2.70263e-05
2250.53	-2.51136e-05
2259.21	-2.4856e-05
2267.89	-2.7691e-05
2276.57	-2.71858e-05
2285.25	-2.56893e-05
2293.92	-2.25488e-05
2302.6	-2.57021e-05
2311.28	-2.25767e-05
2319.96	-2.11223e-05
2328.64	-1.47989e-05
2337.31	-1.3708e-05
2345.99	-1.88201e-05
2354.67	-1.75306e-05
2363.35	-1.13346e-05
2372.03	-1.93448e-05
2380.71	-2.29721e-05
2389.38	-2.94674e-05
2398.06	-2.39134e-05
2406.74	-2.73214e-05
2415.42	-2.81147e-05
2424.1	-2.59916e-05
2432.77	-2.64886e-05
2441.45	-2.82875e-05
2450.13	-2.20944e-05
2458.81	-2.52439e-05
2467.49	-2.69341e-05
2476.16	-2.57437e-05
2484.84	-2.7804e-05
2493.52	-2.77458e-05
2502.2	-2.39717e-05
2510.88	-2.7526e-05
2519.56	-2.54504e-05
2528.23	-2.5615e-05
2536.91	-1.72641e-05
2545.59	-2.47986e-05
2554.27	-6.59891e-05
2562.95	-9.76992e-05
2571.62	-8.32358e-05
2580.3	-1.86685e-05
2588.98	-2.03248e-05
2597.66	-1.83894e-05
2606.34	-1.97778e-05
2615.02	-2.14604e-05
2623.69	-2.4131e-05
2632.37	-2.79677e-05
2641.05	-1.96987e-05
2649.73	-2.1842e-05
2658.41	-2.73929e-05
2667.08	-2.64123e-05
2675.76	-2.57258e-05
2684.44	-2.32843e-05
2693.12	-2.72719e-05
2701.8	-2.66745e-05
2710.47	-2.14001e-05
2719.15	-2.20498e-05
2727.83	-2.36527e-05
2736.51	-2.40448e-05
2745.19	-2.58495e-05
2753.87	-1.88629e-05
2762.54	-2.21685e-05
2771.22	-2.41611e-05
2779.9	-2.56987e-05
2788.58	-2.58775e-05
2797.26	-2.41846e-05
2805.93	-2.38918e-05
2814.61	-2.69078e-05
2823.29	-2.60548e-05
2831.97	-2.66239e-05
2840.65	-1.62672e-05
2849.33	-2.30684e-05
2858	-2.18223e-05
2866.68	-2.63083e-05
2875.36	-2.27693e-05
2884.04	-2.32089e-05
2892.72	-2.51861e-05
2901.39	-2.41994e-05
2910.07	-1.63888e-05
2918.75	-2.40582e-05
2927.43	-2.34302e-05
2936.11	-2.31823e-05
2944.78	-2.87058e-05
2953.46	-2.31458e-05
2962.14	-2.29372e-05
2970.82	-2.61035e-05
2979.5	-2.79833e-05
2988.18	-2.189e-05
2996.85	-1.92547e-05
3005.53	-2.31099e-05
3014.21	-2.48068e-05
3022.89	-2.22284e-05
3031.57	-2.54637e-05
3040.24	-2.66956e-05
3048.92	-2.3233e-05
3057.6	-2.16439e-05
3066.28	-1.78897e-05
3074.96	-2.20878e-05
3083.64	-1.72774e-05
3092.31	-2.27827e-05
3100.99	-2.01969e-05
3109.67	-2.68361e-05
3118.35	-1.69824e-05
3127.03	-1.76963e-05
3135.7	-2.05494e-05
3144.38	-2.57289e-05
3153.06	-2.56452e-05
3161.74	-2.33811e-05
3170.42	-1.90213e-05
3179.09	-2.01682e-05
3187.77	-2.45266e-05
3196.45	-1.81423e-05
3205.13	-2.18487e-05
3213.81	-1.96669e-05
3222.49	-1.84372e-05
3231.16	-2.10345e-05
3239.84	-2.6697e-05
3248.52	-2.23859e-05
3257.2	-2.55195e-05
3265.88	-2.18077e-05
3274.55	-1.84172e-05
3283.23	-1.7947e-05
3291.91	-2.15503e-05
3300.59	-2.35025e-05
3309.27	-1.94102e-05
3317.95	-2.45066e-05
3326.62	-2.57083e-05
3335.3	-2.32983e-05
3343.98	-2.05555e-05
3352.66	-1.83828e-05
3361.34	-2.3549e-05
3370.01	-2.00969e-05
3378.69	-2.3206e-05
3387.37	-1.63783e-05
3396.05	-2.33136e-05
3404.73	-1.99655e-05
3413.4	-2.28382e-05
3422.08	-1.69634e-05
3430.76	-2.05997e-05
3439.44	-1.03294e-05
3448.12	-1.57628e-05
3456.8	-2.375e-05
3465.47	-1.18838e-05
3474.15	-2.05066e-05
3482.83	-2.28124e-05
3491.51	-2.14706e-05
3500.19	-1.24657e-05
3508.86	-2.22072e-05
3517.54	-2.25262e-05
3526.22	-2.03641e-05
3534.9	-1.35313e-05
3543.58	-2.13489e-05
3552.26	-1.93691e-05
3560.93	-1.55829e-05
3569.61	-1.69732e-05
3578.29	-2.33303e-05
3586.97	-2.13427e-05
3595.65	-2.89698e-05
3604.32	-2.10194e-05
3613	-1.63342e-05
3621.68	-1.7197e-05
3630.36	-1.18484e-05
3639.04	-1.12505e-05
3647.72	-7.40631e-06
3656.39	-4.2507e-06
3665.07	-1.19698e-05
3673.75	-1.56517e-05
3682.43	-1.58434e-05
3691.11	-7.39912e-06
3699.78	-1.10893e-05
3708.46	-1.71586e-05
3717.14	-2.09946e-05
3725.82	-1.65787e-05
3734.5	-1.58509e-05
3743.17	-1.23839e-05
3751.85	4.23166e-06
3760.53	-1.16046e-05
3769.21	-1.59984e-05
3777.89	-1.69353e-05
3786.57	-1.72113e-05
3795.24	-2.00831e-05
3803.92	-1.6434e-05
3812.6	-1.31484e-05
3821.28	-7.16693e-06
3829.96	-2.28407e-05
3838.63	-1.17161e-05
3847.31	-3.28726e-05
3855.99	-2.78487e-05
3864.67	-7.30284e-06
3873.35	-1.51195e-05
3882.03	-2.35885e-05
3890.7	-6.49495e-06
3899.38	-1.22889e-05
3908.06	-1.56175e-05
3916.74	-8.034e-06
3925.42	-6.58997e-06
3934.09	-1.9941e-05
3942.77	-1.28589e-05
3951.45	-1.76106e-05
3960.13	-1.91793e-05
3968.81	-1.22849e-05
