Infrared Spectrum: Carbon tetrafluoride
Formula: C F4
CAS: 75-73-0
State: gas
Melting point: -150 C
Boiling point: -129 C
Class: IUPAC A
Instrument: IFS66V (Bruker)
Instrument parameters: KBr Beam Splitter; MCT Detector; Multipass cell
Sampling: 1 L/min Flow
Resolution: 0.2410
Temperature: 23 C
Pressure: 101.3 Pa
Origin: NIST, Analytical Chemistry Division, 301-975-3108
cm-1	(micromol/mol)-1m-1 (base 10)
575.048	-0.000203695
583.606	-5.88324e-05
592.163	-4.19248e-05
600.721	1.94916e-05
609.278	-5.11134e-05
617.836	-5.39198e-05
626.394	-3.10032e-05
634.951	-3.92448e-05
643.509	1.33632e-05
652.067	-2.0518e-05
660.624	-3.71241e-05
669.182	-5.40049e-06
677.739	-2.12553e-05
686.297	-6.35372e-05
694.855	-4.03054e-05
703.412	-6.40747e-05
711.97	-3.55247e-05
720.528	-2.40589e-05
729.085	-2.37515e-05
737.643	-4.9393e-05
746.2	-3.8717e-05
754.758	-3.48392e-05
763.316	-1.80845e-05
771.873	-2.42557e-05
780.431	-5.18025e-05
788.988	-5.83319e-05
797.546	-5.20651e-05
806.104	-6.06177e-05
814.661	-2.72759e-05
823.219	-3.67325e-05
831.777	-4.93722e-05
840.334	-4.18048e-05
848.892	-1.71328e-05
857.449	-4.8924e-05
866.007	-2.29398e-05
874.565	-2.64949e-05
883.122	-1.74829e-05
891.68	-2.30077e-05
900.238	-2.83291e-05
908.795	-1.01799e-05
917.353	-6.00572e-05
925.91	-1.71166e-05
934.468	-1.51187e-05
943.026	-1.66857e-05
951.583	-3.54445e-05
960.141	-3.09867e-05
968.698	-4.24064e-05
977.256	-2.70955e-05
985.814	-2.13543e-05
994.371	-4.60205e-05
1002.93	-3.56855e-05
1011.49	-3.0139e-05
1020.04	-4.40552e-05
1028.6	-3.09375e-05
1037.16	-2.43446e-05
1045.72	-4.15017e-05
1054.27	-2.02785e-05
1062.83	-3.36774e-05
1071.39	-2.149e-05
1079.95	-4.68146e-05
1088.51	-2.68511e-05
1097.06	-4.68189e-05
1105.62	-7.86268e-06
1114.18	-3.15291e-05
1122.74	-2.79879e-05
1131.29	-1.06073e-05
1139.85	-2.90697e-05
1148.41	-3.49366e-05
1156.97	-2.8654e-05
1165.52	-4.47796e-05
1174.08	-2.1959e-05
1182.64	-4.14059e-05
1191.2	-3.51136e-05
1199.75	-3.40156e-05
1208.31	-3.38743e-05
1216.87	-2.87604e-05
1225.43	-2.71689e-05
1233.98	1.49326e-05
1242.54	6.72264e-05
1251.1	0.000153122
1259.66	0.000376916
1268.22	0.000914903
1276.77	0.00727333
1285.33	0.0167964
1293.89	5.05579e-05
1302.45	-2.25584e-05
1311	-1.45333e-05
1319.56	-2.52754e-05
1328.12	-2.39486e-05
1336.68	-1.86191e-05
1345.23	-2.98935e-05
1353.79	-3.3657e-05
1362.35	-4.00922e-05
1370.91	-2.3357e-05
1379.46	-2.77788e-05
1388.02	-3.66906e-05
1396.58	-2.46009e-05
1405.14	-2.57828e-05
1413.69	-2.10121e-05
1422.25	-2.47384e-05
1430.81	-3.33422e-05
1439.37	-3.24528e-05
1447.93	-9.9768e-06
1456.48	1.82541e-05
1465.04	-5.33775e-06
1473.6	1.25151e-05
1482.16	-3.60784e-05
1490.71	7.91122e-07
1499.27	-2.26967e-05
1507.83	-1.72003e-05
1516.39	1.75849e-06
1524.94	-1.21916e-06
1533.5	-2.4207e-05
1542.06	3.73329e-05
1550.62	-1.66025e-05
1559.17	-7.58772e-06
1567.73	-2.64436e-05
1576.29	5.40934e-05
1584.85	-3.18256e-05
1593.4	-2.94367e-05
1601.96	-3.03151e-05
1610.52	-2.66736e-05
1619.08	-3.24226e-05
1627.64	-2.34989e-05
1636.19	-2.29001e-05
1644.75	-3.12297e-05
1653.31	9.37642e-05
1661.87	-2.68219e-05
1670.42	-3.35371e-05
1678.98	-2.38411e-05
1687.54	-3.07101e-05
1696.1	4.02516e-05
1704.65	-1.76451e-05
1713.21	-1.93618e-05
1721.77	-3.76296e-05
1730.33	-2.47526e-05
1738.88	-2.70751e-05
1747.44	-2.15038e-05
1756	-3.3621e-05
1764.56	-3.27331e-05
1773.11	-2.02574e-05
1781.67	-2.60075e-05
1790.23	-2.58159e-05
1798.79	-2.81682e-05
1807.35	-2.63708e-05
1815.9	-2.55214e-05
1824.46	-2.61437e-05
1833.02	-2.26384e-05
1841.58	-2.60334e-05
1850.13	-3.65865e-05
1858.69	-3.33289e-05
1867.25	-3.53474e-05
1875.81	-2.38637e-05
1884.36	-3.91181e-05
1892.92	-2.52242e-05
1901.48	-1.50802e-05
1910.04	-1.68158e-05
1918.59	-1.43917e-05
1927.15	-2.86457e-05
1935.71	-2.51936e-05
1944.27	-2.6887e-05
1952.82	-2.80149e-05
1961.38	-2.59233e-05
1969.94	-3.17551e-05
1978.5	-2.80405e-05
1987.06	-2.85898e-05
1995.61	-3.18065e-05
2004.17	-3.50469e-05
2012.73	-3.61723e-05
2021.29	-2.94713e-05
2029.84	-2.89055e-05
2038.4	-2.39752e-05
2046.96	-2.54918e-05
2055.52	-3.36289e-05
2064.07	-3.76405e-05
2072.63	-3.23562e-05
2081.19	-2.30055e-05
2089.75	-2.74313e-05
2098.3	-1.81327e-05
2106.86	-2.99689e-05
2115.42	-3.5718e-05
2123.98	-3.28153e-05
2132.53	-1.69066e-05
2141.09	-3.21527e-05
2149.65	-2.02552e-05
2158.21	-2.89513e-05
2166.77	-2.18922e-05
2175.32	-6.23469e-06
2183.88	6.87892e-05
2192.44	-2.14693e-05
2201	-3.09096e-05
2209.55	-3.11947e-05
2218.11	-2.54526e-05
2226.67	-2.61025e-05
2235.23	-1.49977e-05
2243.78	-3.24193e-05
2252.34	-3.34669e-05
2260.9	-3.71131e-05
2269.46	-2.28254e-05
2278.01	-1.56566e-05
2286.57	-2.33453e-05
2295.13	-2.59232e-05
2303.69	-4.47726e-05
2312.24	-2.38625e-05
2320.8	-1.58929e-05
2329.36	-2.56066e-05
2337.92	-1.59441e-05
2346.48	-3.13746e-05
2355.03	-1.70134e-05
2363.59	-2.61486e-05
2372.15	-2.4657e-05
2380.71	-1.39613e-05
2389.26	-2.93804e-05
2397.82	-1.6779e-05
2406.38	-3.28601e-05
2414.94	-2.6475e-05
2423.49	-2.47042e-05
2432.05	-2.56022e-05
2440.61	-3.07165e-05
2449.17	-2.52997e-05
2457.72	-1.85351e-05
2466.28	-1.90962e-05
2474.84	-2.24846e-05
2483.4	-2.33919e-05
2491.95	-2.11438e-05
2500.51	-3.08798e-05
2509.07	-2.5661e-05
2517.63	-2.71926e-05
2526.19	-3.25332e-05
2534.74	-2.12817e-05
2543.3	-2.29091e-05
2551.86	-6.20809e-05
2560.42	-0.000133408
2568.97	-0.000134698
2577.53	-2.70458e-05
2586.09	-1.55141e-05
2594.65	-1.36368e-05
2603.2	-7.93951e-06
2611.76	-2.06496e-05
2620.32	-1.77325e-05
2628.88	-3.62512e-05
2637.43	-3.41511e-05
2645.99	-3.14528e-05
2654.55	-3.4872e-05
2663.11	-3.57822e-05
2671.66	-2.0892e-05
2680.22	-3.8163e-05
2688.78	-1.75295e-05
2697.34	-2.57898e-05
2705.9	-1.31929e-05
2714.45	-3.34382e-05
2723.01	-3.00361e-05
2731.57	-3.36725e-05
2740.13	-3.00289e-05
2748.68	-1.63658e-05
2757.24	-2.15667e-05
2765.8	-2.5285e-05
2774.36	-2.63998e-05
2782.91	-1.73686e-05
2791.47	-2.33103e-05
2800.03	-2.9596e-05
2808.59	-3.55282e-05
2817.14	-2.71006e-05
2825.7	-2.69075e-05
2834.26	-2.49445e-05
2842.82	-3.14842e-05
2851.37	-2.19765e-05
2859.93	-2.10454e-05
2868.49	-1.82804e-05
2877.05	-2.76748e-05
2885.61	-2.14477e-05
2894.16	-1.36217e-05
2902.72	-3.3959e-05
2911.28	-3.33005e-05
2919.84	-2.94685e-05
2928.39	-3.45294e-05
2936.95	-2.21462e-05
2945.51	-2.90336e-05
2954.07	-3.03271e-05
2962.62	-2.33928e-05
2971.18	-1.84636e-05
2979.74	-3.51896e-05
2988.3	1.20345e-06
2996.85	-1.96999e-05
3005.41	-1.81733e-05
3013.97	-2.08108e-05
3022.53	-2.12012e-05
3031.08	-4.07745e-05
3039.64	-3.08063e-05
3048.2	-2.77945e-05
3056.76	-2.67672e-05
3065.32	-3.03631e-05
3073.87	-2.73612e-05
3082.43	-1.88326e-05
3090.99	-2.14363e-05
3099.55	-2.73255e-05
3108.1	-3.10626e-05
3116.66	-3.38147e-05
3125.22	-2.41491e-05
3133.78	-7.32079e-06
3142.33	-2.27075e-05
3150.89	-3.59823e-05
3159.45	-1.74958e-05
3168.01	-4.17417e-05
3176.56	-1.88841e-05
3185.12	-3.66971e-05
3193.68	-8.30713e-06
3202.24	-1.60543e-05
3210.79	-2.15037e-05
3219.35	-2.34252e-05
3227.91	-1.41064e-05
3236.47	-2.85987e-05
3245.03	-1.90962e-05
3253.58	-1.64766e-05
3262.14	-2.38568e-05
3270.7	-2.76576e-05
3279.26	-4.14402e-05
3287.81	-3.03154e-05
3296.37	-2.04737e-05
3304.93	-8.96334e-06
3313.49	-3.35682e-05
3322.04	-2.62153e-05
3330.6	-1.84284e-05
3339.16	-2.63691e-05
3347.72	-3.77073e-05
3356.27	-1.93748e-05
3364.83	-4.75351e-05
3373.39	-3.57294e-05
3381.95	1.52916e-06
3390.5	-2.59933e-05
3399.06	-2.09621e-05
3407.62	-2.70708e-05
3416.18	-2.40384e-05
3424.74	-1.05386e-05
3433.29	-3.24407e-05
3441.85	-1.89192e-05
3450.41	-1.0361e-05
3458.97	-9.65912e-06
3467.52	-2.44744e-05
3476.08	-2.56766e-05
3484.64	-6.91243e-06
3493.2	-1.8905e-07
3501.75	-2.68272e-05
3510.31	-1.66622e-05
3518.87	-9.19709e-06
3527.43	-2.34784e-05
3535.98	-1.01042e-05
3544.54	-8.67057e-06
3553.1	-1.68909e-05
3561.66	-1.91401e-06
3570.21	-1.42635e-05
3578.77	-3.78549e-05
3587.33	-3.40999e-05
3595.89	-3.04342e-05
3604.45	-3.03247e-05
3613	-1.75503e-05
3621.56	-1.75637e-05
3630.12	-3.98186e-05
3638.68	-1.65768e-05
3647.23	4.03244e-07
3655.79	-1.52255e-05
3664.35	-1.58171e-05
3672.91	-2.48129e-05
3681.46	-3.49369e-05
3690.02	-1.99282e-05
3698.58	-1.51296e-05
3707.14	-2.90718e-05
3715.69	-2.59607e-05
3724.25	-7.17342e-06
3732.81	-3.22882e-05
3741.37	-1.44544e-05
3749.92	2.92538e-07
3758.48	-2.8094e-05
3767.04	-1.45878e-05
3775.6	-1.19646e-05
3784.16	-2.48485e-05
3792.71	-1.19264e-05
3801.27	3.89329e-05
3809.83	-1.841e-05
3818.39	-1.11812e-06
3826.94	-1.7631e-05
3835.5	-1.93965e-05
3844.06	-3.08734e-05
3852.62	-2.10785e-05
3861.17	-3.82662e-05
3869.73	-1.59024e-05
3878.29	-2.75233e-05
3886.85	-2.29689e-05
3895.4	-4.05862e-05
3903.96	1.17301e-05
3912.52	-2.1117e-05
3921.08	-2.56747e-05
3929.63	-3.25444e-05
3938.19	-1.57171e-05
3946.75	-3.83642e-05
3955.31	-1.77447e-05
3963.87	-3.86424e-05
3972.42	-7.84673e-06
