Infrared Spectrum: Carbon tetrafluoride
Formula: C F4
CAS: 75-73-0
State: gas
Melting point: -150 C
Boiling point: -129 C
Class: IUPAC A
Instrument: IFS66V (Bruker)
Instrument parameters: KBr Beam Splitter; MCT Detector; Multipass cell
Sampling: 1 L/min Flow
Resolution: 0.2410
Temperature: 23 C
Pressure: 101.3 Pa
Origin: NIST, Analytical Chemistry Division, 301-975-3108
cm-1	(micromol/mol)-1m-1 (base 10)
575.048	-0.000190635
583.606	-5.51795e-05
592.163	-4.03327e-05
600.721	1.29588e-05
609.278	-4.82063e-05
617.836	-5.01989e-05
626.394	-3.39168e-05
634.951	-3.80207e-05
643.509	1.51158e-05
652.067	-1.94242e-05
660.624	-3.52196e-05
669.182	-7.29181e-06
677.739	-2.34411e-05
686.297	-6.26419e-05
694.855	-3.96634e-05
703.412	-6.22201e-05
711.97	-3.57815e-05
720.528	-2.36547e-05
729.085	-2.36816e-05
737.643	-4.7254e-05
746.2	-3.87731e-05
754.758	-3.41178e-05
763.316	-1.98918e-05
771.873	-2.44944e-05
780.431	-5.06766e-05
788.988	-5.81286e-05
797.546	-5.20528e-05
806.104	-5.9536e-05
814.661	-2.74576e-05
823.219	-3.64714e-05
831.777	-4.79004e-05
840.334	-4.21069e-05
848.892	-1.84456e-05
857.449	-4.79699e-05
866.007	-2.23469e-05
874.565	-2.67755e-05
883.122	-1.82179e-05
891.68	-2.36841e-05
900.238	-2.96036e-05
908.795	-1.25322e-05
917.353	-5.84611e-05
925.91	-1.73963e-05
934.468	-1.62519e-05
943.026	-1.7433e-05
951.583	-3.50427e-05
960.141	-3.0292e-05
968.698	-4.22431e-05
977.256	-2.84037e-05
985.814	-2.23971e-05
994.371	-4.45048e-05
1002.93	-3.44908e-05
1011.49	-3.00469e-05
1020.04	-4.28588e-05
1028.6	-3.06879e-05
1037.16	-2.41555e-05
1045.72	-4.06717e-05
1054.27	-2.01815e-05
1062.83	-3.31728e-05
1071.39	-2.09701e-05
1079.95	-4.46516e-05
1088.51	-2.72391e-05
1097.06	-4.57639e-05
1105.62	-1.03228e-05
1114.18	-3.17242e-05
1122.74	-2.86607e-05
1131.29	-1.16402e-05
1139.85	-2.95619e-05
1148.41	-3.43576e-05
1156.97	-2.94506e-05
1165.52	-4.32595e-05
1174.08	-2.20742e-05
1182.64	-3.93055e-05
1191.2	-3.42582e-05
1199.75	-3.33199e-05
1208.31	-3.38629e-05
1216.87	-2.72796e-05
1225.43	-2.54292e-05
1233.98	1.68536e-05
1242.54	7.67184e-05
1251.1	0.000158234
1259.66	0.000390161
1268.22	0.000937188
1276.77	0.00729354
1285.33	0.0164708
1293.89	7.16102e-05
1302.45	-1.82183e-05
1311	-1.2195e-05
1319.56	-2.46029e-05
1328.12	-2.25862e-05
1336.68	-1.9338e-05
1345.23	-2.88765e-05
1353.79	-3.32438e-05
1362.35	-3.91732e-05
1370.91	-2.41734e-05
1379.46	-2.75723e-05
1388.02	-3.57303e-05
1396.58	-2.46296e-05
1405.14	-2.64115e-05
1413.69	-2.17752e-05
1422.25	-2.51162e-05
1430.81	-3.27778e-05
1439.37	-3.21339e-05
1447.93	-1.10761e-05
1456.48	1.74999e-05
1465.04	-7.43115e-06
1473.6	9.02888e-06
1482.16	-3.51118e-05
1490.71	-1.62043e-06
1499.27	-2.19577e-05
1507.83	-1.61815e-05
1516.39	1.71286e-06
1524.94	-7.4386e-07
1533.5	-2.22773e-05
1542.06	3.3761e-05
1550.62	-1.5405e-05
1559.17	-5.57639e-06
1567.73	-2.58982e-05
1576.29	4.72225e-05
1584.85	-3.13389e-05
1593.4	-2.90789e-05
1601.96	-3.01204e-05
1610.52	-2.71136e-05
1619.08	-3.14939e-05
1627.64	-2.37607e-05
1636.19	-2.15587e-05
1644.75	-3.08741e-05
1653.31	8.62071e-05
1661.87	-2.66953e-05
1670.42	-3.30182e-05
1678.98	-2.41758e-05
1687.54	-3.00763e-05
1696.1	3.48067e-05
1704.65	-1.80898e-05
1713.21	-1.96264e-05
1721.77	-3.65565e-05
1730.33	-2.44376e-05
1738.88	-2.65942e-05
1747.44	-2.16195e-05
1756	-3.33021e-05
1764.56	-3.2502e-05
1773.11	-1.89015e-05
1781.67	-2.57396e-05
1790.23	-2.58565e-05
1798.79	-2.75476e-05
1807.35	-2.57463e-05
1815.9	-2.6111e-05
1824.46	-2.55352e-05
1833.02	-2.32461e-05
1841.58	-2.61872e-05
1850.13	-3.59409e-05
1858.69	-3.27852e-05
1867.25	-3.47498e-05
1875.81	-2.44685e-05
1884.36	-3.80422e-05
1892.92	-2.57039e-05
1901.48	-1.56517e-05
1910.04	-1.80376e-05
1918.59	-1.44769e-05
1927.15	-2.84547e-05
1935.71	-2.54959e-05
1944.27	-2.70842e-05
1952.82	-2.81319e-05
1961.38	-2.56385e-05
1969.94	-3.17976e-05
1978.5	-2.79647e-05
1987.06	-2.8368e-05
1995.61	-3.14735e-05
2004.17	-3.48202e-05
2012.73	-3.5865e-05
2021.29	-2.8692e-05
2029.84	-2.84057e-05
2038.4	-2.47995e-05
2046.96	-2.57714e-05
2055.52	-3.34846e-05
2064.07	-3.68272e-05
2072.63	-3.22215e-05
2081.19	-2.35873e-05
2089.75	-2.80428e-05
2098.3	-1.94498e-05
2106.86	-3.01289e-05
2115.42	-3.51072e-05
2123.98	-3.27896e-05
2132.53	-1.81534e-05
2141.09	-3.15471e-05
2149.65	-2.06925e-05
2158.21	-2.82467e-05
2166.77	-2.22446e-05
2175.32	-6.6817e-06
2183.88	6.76625e-05
2192.44	-2.10909e-05
2201	-3.06863e-05
2209.55	-3.08064e-05
2218.11	-2.54106e-05
2226.67	-2.58765e-05
2235.23	-1.64917e-05
2243.78	-3.15115e-05
2252.34	-3.32404e-05
2260.9	-3.61564e-05
2269.46	-2.31524e-05
2278.01	-1.69104e-05
2286.57	-2.33012e-05
2295.13	-2.54902e-05
2303.69	-4.33967e-05
2312.24	-2.35666e-05
2320.8	-1.59731e-05
2329.36	-2.50617e-05
2337.92	-1.60294e-05
2346.48	-2.96976e-05
2355.03	-1.67928e-05
2363.59	-2.48057e-05
2372.15	-2.31652e-05
2380.71	-1.41335e-05
2389.26	-2.96807e-05
2397.82	-1.76984e-05
2406.38	-3.29404e-05
2414.94	-2.65003e-05
2423.49	-2.4751e-05
2432.05	-2.55177e-05
2440.61	-3.08256e-05
2449.17	-2.52087e-05
2457.72	-1.89094e-05
2466.28	-1.94536e-05
2474.84	-2.31123e-05
2483.4	-2.38214e-05
2491.95	-2.15559e-05
2500.51	-3.13356e-05
2509.07	-2.52144e-05
2517.63	-2.67685e-05
2526.19	-3.17308e-05
2534.74	-2.10371e-05
2543.3	-2.33974e-05
2551.86	-6.15686e-05
2560.42	-0.000132181
2568.97	-0.000132321
2577.53	-2.69842e-05
2586.09	-1.53141e-05
2594.65	-1.35008e-05
2603.2	-9.2e-06
2611.76	-2.04557e-05
2620.32	-1.86242e-05
2628.88	-3.53628e-05
2637.43	-3.34631e-05
2645.99	-3.09485e-05
2654.55	-3.42215e-05
2663.11	-3.515e-05
2671.66	-2.1116e-05
2680.22	-3.67353e-05
2688.78	-1.84363e-05
2697.34	-2.70368e-05
2705.9	-1.42836e-05
2714.45	-3.26067e-05
2723.01	-2.947e-05
2731.57	-3.28408e-05
2740.13	-3.02249e-05
2748.68	-1.63e-05
2757.24	-2.21257e-05
2765.8	-2.48343e-05
2774.36	-2.69812e-05
2782.91	-1.80944e-05
2791.47	-2.45533e-05
2800.03	-2.88593e-05
2808.59	-3.48258e-05
2817.14	-2.66937e-05
2825.7	-2.73924e-05
2834.26	-2.49446e-05
2842.82	-3.0004e-05
2851.37	-2.1836e-05
2859.93	-2.01999e-05
2868.49	-1.87901e-05
2877.05	-2.69119e-05
2885.61	-2.13339e-05
2894.16	-1.47259e-05
2902.72	-3.22953e-05
2911.28	-3.27843e-05
2919.84	-2.92555e-05
2928.39	-3.36243e-05
2936.95	-2.15172e-05
2945.51	-2.84684e-05
2954.07	-2.98247e-05
2962.62	-2.3286e-05
2971.18	-1.9066e-05
2979.74	-3.37456e-05
2988.3	-1.49575e-06
2996.85	-2.05252e-05
3005.41	-1.88462e-05
3013.97	-2.15674e-05
3022.53	-2.04352e-05
3031.08	-3.95608e-05
3039.64	-3.02432e-05
3048.2	-2.72165e-05
3056.76	-2.64282e-05
3065.32	-3.00624e-05
3073.87	-2.63893e-05
3082.43	-2.00038e-05
3090.99	-2.09502e-05
3099.55	-2.72356e-05
3108.1	-3.00219e-05
3116.66	-3.26797e-05
3125.22	-2.40439e-05
3133.78	-7.21614e-06
3142.33	-2.19006e-05
3150.89	-3.58091e-05
3159.45	-1.7212e-05
3168.01	-4.02881e-05
3176.56	-1.9726e-05
3185.12	-3.62408e-05
3193.68	-1.027e-05
3202.24	-1.64727e-05
3210.79	-2.20979e-05
3219.35	-2.32137e-05
3227.91	-1.48852e-05
3236.47	-2.84636e-05
3245.03	-1.9312e-05
3253.58	-1.84549e-05
3262.14	-2.32557e-05
3270.7	-2.77374e-05
3279.26	-3.95946e-05
3287.81	-2.9851e-05
3296.37	-2.16333e-05
3304.93	-1.12258e-05
3313.49	-3.22524e-05
3322.04	-2.61914e-05
3330.6	-1.97036e-05
3339.16	-2.60989e-05
3347.72	-3.70195e-05
3356.27	-1.92548e-05
3364.83	-4.5151e-05
3373.39	-3.53984e-05
3381.95	-1.36549e-06
3390.5	-2.59408e-05
3399.06	-2.09489e-05
3407.62	-2.66518e-05
3416.18	-2.35171e-05
3424.74	-1.15714e-05
3433.29	-3.1038e-05
3441.85	-1.86732e-05
3450.41	-9.52851e-06
3458.97	-1.04989e-05
3467.52	-2.37415e-05
3476.08	-2.48116e-05
3484.64	-7.74033e-06
3493.2	-1.18238e-06
3501.75	-2.51815e-05
3510.31	-1.71708e-05
3518.87	-1.0066e-05
3527.43	-2.38072e-05
3535.98	-1.06939e-05
3544.54	-9.08394e-06
3553.1	-1.73603e-05
3561.66	-3.23364e-06
3570.21	-1.46594e-05
3578.77	-3.69583e-05
3587.33	-3.19925e-05
3595.89	-3.03362e-05
3604.45	-3.05225e-05
3613	-1.75459e-05
3621.56	-1.77897e-05
3630.12	-3.71387e-05
3638.68	-1.64493e-05
3647.23	-8.69583e-08
3655.79	-1.51192e-05
3664.35	-1.61846e-05
3672.91	-2.46375e-05
3681.46	-3.44783e-05
3690.02	-1.9245e-05
3698.58	-1.57717e-05
3707.14	-2.86136e-05
3715.69	-2.51504e-05
3724.25	-8.61772e-06
3732.81	-3.0989e-05
3741.37	-1.50608e-05
3749.92	1.34046e-06
3758.48	-2.78072e-05
3767.04	-1.4907e-05
3775.6	-1.27563e-05
3784.16	-2.29985e-05
3792.71	-1.13107e-05
3801.27	3.52212e-05
3809.83	-1.90145e-05
3818.39	-2.2473e-06
3826.94	-1.78874e-05
3835.5	-1.93395e-05
3844.06	-3.00315e-05
3852.62	-1.96459e-05
3861.17	-3.76414e-05
3869.73	-1.28518e-05
3878.29	-2.68191e-05
3886.85	-2.25096e-05
3895.4	-3.92827e-05
3903.96	1.02206e-05
3912.52	-1.98568e-05
3921.08	-2.52028e-05
3929.63	-3.06549e-05
3938.19	-1.4763e-05
3946.75	-3.47064e-05
3955.31	-1.74019e-05
3963.87	-3.64761e-05
3972.42	-8.80409e-06
