Infrared Spectrum: Carbon tetrafluoride
Formula: C F4
CAS: 75-73-0
State: gas
Melting point: -150 C
Boiling point: -129 C
Class: IUPAC A
Instrument: IFS66V (Bruker)
Instrument parameters: KBr Beam Splitter; MCT Detector; Multipass cell
Sampling: 1 L/min Flow
Resolution: 0.2410
Temperature: 23 C
Pressure: 101.3 Pa
Origin: NIST, Analytical Chemistry Division, 301-975-3108
cm-1	(micromol/mol)-1m-1 (base 10)
575.048	-0.000183514
583.606	-4.3554e-05
592.163	-3.12624e-05
600.721	1.54937e-05
609.278	-4.26737e-05
617.836	-5.127e-05
626.394	-2.9533e-05
634.951	-3.8276e-05
643.509	6.75632e-06
652.067	-1.7639e-05
660.624	-4.04293e-05
669.182	-1.0605e-05
677.739	-2.60765e-05
686.297	-5.76405e-05
694.855	-4.26314e-05
703.412	-6.07626e-05
711.97	-3.57598e-05
720.528	-2.45669e-05
729.085	-2.61945e-05
737.643	-4.73744e-05
746.2	-3.69343e-05
754.758	-3.38743e-05
763.316	-1.83109e-05
771.873	-2.68682e-05
780.431	-4.70864e-05
788.988	-5.15064e-05
797.546	-5.07872e-05
806.104	-5.90205e-05
814.661	-2.28251e-05
823.219	-3.145e-05
831.777	-4.77468e-05
840.334	-4.10033e-05
848.892	-1.50612e-05
857.449	-4.35241e-05
866.007	-2.22604e-05
874.565	-2.91935e-05
883.122	-1.96379e-05
891.68	-2.14101e-05
900.238	-2.84286e-05
908.795	-1.32994e-05
917.353	-5.57592e-05
925.91	-2.09962e-05
934.468	-1.74629e-05
943.026	-1.9283e-05
951.583	-3.44934e-05
960.141	-3.1286e-05
968.698	-4.17188e-05
977.256	-2.64567e-05
985.814	-2.49557e-05
994.371	-4.25059e-05
1002.93	-3.57623e-05
1011.49	-3.09591e-05
1020.04	-4.36618e-05
1028.6	-3.0048e-05
1037.16	-2.30164e-05
1045.72	-3.92851e-05
1054.27	-2.00785e-05
1062.83	-3.152e-05
1071.39	-2.63557e-05
1079.95	-4.49932e-05
1088.51	-2.67367e-05
1097.06	-4.37514e-05
1105.62	-1.19983e-05
1114.18	-2.94343e-05
1122.74	-2.63368e-05
1131.29	-1.53951e-05
1139.85	-2.92401e-05
1148.41	-3.37903e-05
1156.97	-2.80137e-05
1165.52	-4.2114e-05
1174.08	-2.28112e-05
1182.64	-4.19891e-05
1191.2	-3.59567e-05
1199.75	-3.09018e-05
1208.31	-3.24133e-05
1216.87	-2.91503e-05
1225.43	-2.81447e-05
1233.98	1.76281e-05
1242.54	6.85693e-05
1251.1	0.000156991
1259.66	0.000375231
1268.22	0.000923429
1276.77	0.00727398
1285.33	0.0167633
1293.89	5.04573e-05
1302.45	-2.35244e-05
1311	-1.37664e-05
1319.56	-2.59835e-05
1328.12	-2.41486e-05
1336.68	-2.0098e-05
1345.23	-2.90197e-05
1353.79	-3.38333e-05
1362.35	-3.84375e-05
1370.91	-2.37082e-05
1379.46	-2.73743e-05
1388.02	-3.78953e-05
1396.58	-2.45024e-05
1405.14	-2.35424e-05
1413.69	-1.93818e-05
1422.25	-2.62782e-05
1430.81	-3.3261e-05
1439.37	-3.20207e-05
1447.93	-1.32585e-05
1456.48	1.40456e-05
1465.04	-4.13675e-06
1473.6	9.62792e-06
1482.16	-3.37186e-05
1490.71	-5.36767e-07
1499.27	-2.20365e-05
1507.83	-1.67081e-05
1516.39	2.39409e-06
1524.94	-2.61957e-06
1533.5	-2.23087e-05
1542.06	3.29347e-05
1550.62	-1.53505e-05
1559.17	-6.32863e-06
1567.73	-2.70557e-05
1576.29	5.26982e-05
1584.85	-3.19389e-05
1593.4	-2.86086e-05
1601.96	-3.068e-05
1610.52	-2.69497e-05
1619.08	-3.3002e-05
1627.64	-2.27416e-05
1636.19	-2.27691e-05
1644.75	-2.92849e-05
1653.31	8.3052e-05
1661.87	-2.62275e-05
1670.42	-3.1769e-05
1678.98	-2.44185e-05
1687.54	-3.01629e-05
1696.1	4.46649e-05
1704.65	-1.62732e-05
1713.21	-2.00664e-05
1721.77	-3.64572e-05
1730.33	-2.36487e-05
1738.88	-2.77943e-05
1747.44	-2.13917e-05
1756	-3.32233e-05
1764.56	-3.33981e-05
1773.11	-1.97424e-05
1781.67	-2.66107e-05
1790.23	-2.60318e-05
1798.79	-2.90728e-05
1807.35	-2.67812e-05
1815.9	-2.43715e-05
1824.46	-2.6901e-05
1833.02	-2.2955e-05
1841.58	-2.68027e-05
1850.13	-3.71474e-05
1858.69	-3.30664e-05
1867.25	-3.39624e-05
1875.81	-2.52028e-05
1884.36	-3.83874e-05
1892.92	-2.55168e-05
1901.48	-1.60427e-05
1910.04	-1.73908e-05
1918.59	-1.57211e-05
1927.15	-2.75501e-05
1935.71	-2.49662e-05
1944.27	-2.70796e-05
1952.82	-2.78688e-05
1961.38	-2.59415e-05
1969.94	-3.09526e-05
1978.5	-2.76123e-05
1987.06	-2.91627e-05
1995.61	-3.23232e-05
2004.17	-3.36439e-05
2012.73	-3.54456e-05
2021.29	-2.97993e-05
2029.84	-3.00255e-05
2038.4	-2.36455e-05
2046.96	-2.65053e-05
2055.52	-3.16721e-05
2064.07	-3.69693e-05
2072.63	-3.17562e-05
2081.19	-2.36424e-05
2089.75	-2.70558e-05
2098.3	-1.89748e-05
2106.86	-2.96141e-05
2115.42	-3.56693e-05
2123.98	-3.18292e-05
2132.53	-1.84722e-05
2141.09	-3.06058e-05
2149.65	-2.1769e-05
2158.21	-2.80444e-05
2166.77	-2.17571e-05
2175.32	-8.49502e-06
2183.88	6.95684e-05
2192.44	-2.20859e-05
2201	-3.13006e-05
2209.55	-2.96812e-05
2218.11	-2.56858e-05
2226.67	-2.67947e-05
2235.23	-1.56432e-05
2243.78	-3.3978e-05
2252.34	-3.28139e-05
2260.9	-3.54599e-05
2269.46	-2.58639e-05
2278.01	-1.70169e-05
2286.57	-2.48879e-05
2295.13	-2.6098e-05
2303.69	-4.16506e-05
2312.24	-2.55916e-05
2320.8	-1.69458e-05
2329.36	-2.51844e-05
2337.92	-1.55709e-05
2346.48	-3.067e-05
2355.03	-1.76256e-05
2363.59	-2.53528e-05
2372.15	-2.53066e-05
2380.71	-1.55709e-05
2389.26	-2.93693e-05
2397.82	-1.76004e-05
2406.38	-3.2358e-05
2414.94	-2.69823e-05
2423.49	-2.48953e-05
2432.05	-2.71091e-05
2440.61	-2.90476e-05
2449.17	-2.56598e-05
2457.72	-2.09467e-05
2466.28	-2.04516e-05
2474.84	-2.31079e-05
2483.4	-2.30068e-05
2491.95	-2.19192e-05
2500.51	-2.84828e-05
2509.07	-2.6129e-05
2517.63	-2.78984e-05
2526.19	-3.07492e-05
2534.74	-2.20087e-05
2543.3	-2.33053e-05
2551.86	-6.05196e-05
2560.42	-0.000130741
2568.97	-0.000136126
2577.53	-2.46063e-05
2586.09	-1.57514e-05
2594.65	-1.44983e-05
2603.2	-8.46743e-06
2611.76	-2.12481e-05
2620.32	-1.86812e-05
2628.88	-3.65378e-05
2637.43	-3.40513e-05
2645.99	-3.37739e-05
2654.55	-3.42173e-05
2663.11	-3.41868e-05
2671.66	-2.23177e-05
2680.22	-3.74106e-05
2688.78	-1.77275e-05
2697.34	-2.53969e-05
2705.9	-1.43054e-05
2714.45	-3.25484e-05
2723.01	-2.8957e-05
2731.57	-3.11127e-05
2740.13	-2.85492e-05
2748.68	-1.8531e-05
2757.24	-2.06604e-05
2765.8	-2.42843e-05
2774.36	-2.44488e-05
2782.91	-1.88811e-05
2791.47	-2.30194e-05
2800.03	-2.84235e-05
2808.59	-3.47798e-05
2817.14	-2.63679e-05
2825.7	-2.71981e-05
2834.26	-2.4649e-05
2842.82	-3.1055e-05
2851.37	-2.16039e-05
2859.93	-2.27578e-05
2868.49	-1.88043e-05
2877.05	-2.86366e-05
2885.61	-2.14392e-05
2894.16	-1.47482e-05
2902.72	-3.43332e-05
2911.28	-3.01388e-05
2919.84	-2.92342e-05
2928.39	-3.16966e-05
2936.95	-2.30363e-05
2945.51	-2.88795e-05
2954.07	-2.93356e-05
2962.62	-2.15832e-05
2971.18	-2.01856e-05
2979.74	-3.49447e-05
2988.3	-1.37736e-06
2996.85	-1.88344e-05
3005.41	-1.87656e-05
3013.97	-2.14581e-05
3022.53	-2.25338e-05
3031.08	-3.94936e-05
3039.64	-3.01612e-05
3048.2	-2.83937e-05
3056.76	-2.70926e-05
3065.32	-2.80491e-05
3073.87	-2.54172e-05
3082.43	-1.88744e-05
3090.99	-2.05653e-05
3099.55	-2.64843e-05
3108.1	-2.8014e-05
3116.66	-3.23151e-05
3125.22	-2.25806e-05
3133.78	-7.79633e-06
3142.33	-2.19285e-05
3150.89	-3.60318e-05
3159.45	-2.01389e-05
3168.01	-4.06969e-05
3176.56	-1.78171e-05
3185.12	-3.54113e-05
3193.68	-1.04564e-05
3202.24	-1.52382e-05
3210.79	-2.34975e-05
3219.35	-2.19055e-05
3227.91	-1.4882e-05
3236.47	-2.63077e-05
3245.03	-1.99764e-05
3253.58	-1.67159e-05
3262.14	-2.59271e-05
3270.7	-2.73419e-05
3279.26	-3.82616e-05
3287.81	-2.98542e-05
3296.37	-2.07593e-05
3304.93	-8.77813e-06
3313.49	-3.32685e-05
3322.04	-2.697e-05
3330.6	-1.71813e-05
3339.16	-2.79448e-05
3347.72	-3.59156e-05
3356.27	-1.86573e-05
3364.83	-4.57851e-05
3373.39	-3.30673e-05
3381.95	-2.20481e-07
3390.5	-2.47218e-05
3399.06	-2.1793e-05
3407.62	-2.68859e-05
3416.18	-2.25551e-05
3424.74	-1.14076e-05
3433.29	-2.69756e-05
3441.85	-1.91426e-05
3450.41	-1.23099e-05
3458.97	-1.249e-05
3467.52	-2.50938e-05
3476.08	-2.67792e-05
3484.64	-6.35051e-06
3493.2	-3.54853e-06
3501.75	-2.61709e-05
3510.31	-1.81221e-05
3518.87	-1.22665e-05
3527.43	-2.45674e-05
3535.98	-1.05947e-05
3544.54	-8.94448e-06
3553.1	-1.90512e-05
3561.66	-1.91541e-06
3570.21	-1.43829e-05
3578.77	-3.41976e-05
3587.33	-3.48546e-05
3595.89	-3.17705e-05
3604.45	-2.71202e-05
3613	-1.57198e-05
3621.56	-1.82821e-05
3630.12	-3.64964e-05
3638.68	-1.5459e-05
3647.23	-2.20783e-06
3655.79	-1.2738e-05
3664.35	-1.55592e-05
3672.91	-2.52706e-05
3681.46	-2.91535e-05
3690.02	-1.89435e-05
3698.58	-1.17515e-05
3707.14	-2.46783e-05
3715.69	-2.51207e-05
3724.25	-5.97614e-06
3732.81	-2.89883e-05
3741.37	-1.03314e-05
3749.92	4.69598e-07
3758.48	-2.67716e-05
3767.04	-1.45637e-05
3775.6	-1.12081e-05
3784.16	-2.49531e-05
3792.71	-1.17649e-05
3801.27	4.0943e-05
3809.83	-1.81118e-05
3818.39	-3.81487e-06
3826.94	-1.55112e-05
3835.5	-1.85744e-05
3844.06	-2.96025e-05
3852.62	-2.28114e-05
3861.17	-3.6109e-05
3869.73	-1.59132e-05
3878.29	-2.58052e-05
3886.85	-1.92787e-05
3895.4	-3.84587e-05
3903.96	1.18805e-05
3912.52	-2.0781e-05
3921.08	-2.18478e-05
3929.63	-3.10667e-05
3938.19	-1.51903e-05
3946.75	-3.91947e-05
3955.31	-1.97597e-05
3963.87	-4.08406e-05
3972.42	-8.55555e-06
