Infrared Spectrum: Dichlorodifluoromethane
Formula: C Cl2 F2
CAS: 75-71-8
State: gas
Melting point: -158 C
Boiling point: -29.8 C
Class: IUPAC A
Instrument: IFS66V (Bruker)
Instrument parameters: KBr Beam Splitter; MCT Detector; Multipass cell
Sampling: 1 L/min Flow
Resolution: 0.2410
Temperature: 23 C
Pressure: 101.3 Pa
Origin: NIST, Analytical Chemistry Division, 301-975-3108
cm-1	(micromol/mol)-1m-1 (base 10)
575.05	4.33589e-06
583.608	1.13722e-05
592.165	-2.07241e-06
600.723	6.58316e-07
609.281	-8.17402e-07
617.838	-4.74872e-07
626.396	-6.55086e-07
634.954	2.1409e-06
643.511	8.30098e-06
652.069	2.09107e-05
660.626	4.62312e-05
669.184	7.93455e-05
677.742	5.19438e-05
686.299	8.57541e-06
694.857	2.44952e-07
703.415	-2.40934e-06
711.972	-1.15136e-06
720.53	2.31048e-06
729.088	1.32899e-06
737.645	-1.04174e-06
746.203	8.98277e-07
754.761	-2.75349e-07
763.318	2.95548e-06
771.876	-1.0596e-07
780.434	9.85394e-07
788.991	1.26167e-06
797.549	1.17588e-06
806.106	-1.10877e-06
814.664	1.69793e-06
823.222	7.31013e-07
831.779	5.53715e-06
840.337	9.1027e-06
848.895	1.35241e-05
857.452	3.8152e-05
866.01	0.00012315
874.568	0.000310881
883.125	0.000521517
891.683	0.000516877
900.241	0.000282137
908.798	0.000931535
917.356	0.00162484
925.914	0.00176267
934.471	0.000902728
943.029	1.72515e-05
951.586	8.11189e-07
960.144	1.51441e-06
968.702	-6.78615e-07
977.259	4.93817e-07
985.817	-7.5591e-07
994.375	-2.73035e-07
1002.93	-2.30144e-06
1011.49	-2.28067e-06
1020.05	-5.29627e-07
1028.61	1.16897e-06
1037.16	-1.08518e-06
1045.72	1.9779e-06
1054.28	4.39429e-06
1062.84	1.63892e-05
1071.39	6.18238e-05
1079.95	0.000281972
1088.51	0.000942015
1097.07	0.00158686
1105.62	0.00128984
1114.18	0.000898173
1122.74	0.000315481
1131.3	0.000238392
1139.85	0.000332112
1148.41	0.000907718
1156.97	0.00118631
1165.53	0.000607616
1174.09	0.000392401
1182.64	5.06483e-05
1191.2	9.72112e-06
1199.76	7.02223e-06
1208.32	9.55087e-06
1216.87	3.28516e-06
1225.43	7.59153e-06
1233.99	1.1944e-05
1242.55	2.15608e-05
1251.1	9.53991e-06
1259.66	1.98516e-06
1268.22	3.53007e-08
1276.78	-1.15043e-06
1285.33	-1.03264e-06
1293.89	4.49713e-07
1302.45	6.06282e-07
1311.01	1.30119e-06
1319.57	1.97979e-06
1328.12	2.62285e-06
1336.68	1.83046e-06
1345.24	4.68424e-06
1353.8	4.29768e-06
1362.35	6.23397e-06
1370.91	4.47274e-06
1379.47	8.74591e-06
1388.03	5.70337e-06
1396.58	1.70811e-06
1405.14	-2.27883e-07
1413.7	8.49386e-07
1422.26	-1.11938e-06
1430.81	-4.66243e-07
1439.37	1.18693e-07
1447.93	-2.04619e-06
1456.49	-2.90725e-06
1465.05	-3.0381e-07
1473.6	-3.07928e-07
1482.16	1.28568e-06
1490.72	-1.82717e-07
1499.28	-3.21868e-08
1507.83	-6.89121e-07
1516.39	6.03605e-07
1524.95	-3.6718e-07
1533.51	-4.53933e-07
1542.06	-1.26696e-06
1550.62	6.83606e-08
1559.18	5.22803e-07
1567.74	9.50879e-07
1576.29	9.08259e-07
1584.85	5.45056e-06
1593.41	5.5162e-06
1601.97	9.17775e-07
1610.53	8.14158e-07
1619.08	2.71114e-07
1627.64	-1.06701e-06
1636.2	-6.69666e-07
1644.76	-7.98195e-07
1653.31	-4.31599e-06
1661.87	-1.07602e-06
1670.43	-3.56005e-07
1678.99	-8.18639e-08
1687.54	3.37962e-07
1696.1	-1.52467e-06
1704.66	-4.17497e-07
1713.22	-5.19907e-08
1721.77	-3.36666e-07
1730.33	1.15055e-06
1738.89	1.22971e-07
1747.45	1.15874e-06
1756.01	3.46859e-06
1764.56	3.01911e-06
1773.12	2.43134e-06
1781.68	6.47112e-07
1790.24	1.14672e-06
1798.79	2.04693e-06
1807.35	2.49628e-06
1815.91	9.30944e-07
1824.47	1.01706e-06
1833.02	2.6221e-06
1841.58	8.43943e-07
1850.14	4.11051e-07
1858.7	-7.5006e-07
1867.25	-7.91531e-07
1875.81	-4.06831e-07
1884.37	9.06818e-07
1892.93	-5.74328e-08
1901.49	-1.06972e-06
1910.04	8.91962e-07
1918.6	5.36524e-07
1927.16	-1.85205e-07
1935.72	-4.76327e-07
1944.27	1.64615e-07
1952.83	3.62451e-07
1961.39	9.56146e-08
1969.95	5.17288e-07
1978.5	2.22805e-07
1987.06	3.20733e-07
1995.62	4.08752e-07
2004.18	6.54562e-07
2012.73	1.05143e-06
2021.29	9.4663e-07
2029.85	3.96849e-07
2038.41	6.99612e-07
2046.97	2.70416e-07
2055.52	3.03097e-08
2064.08	3.69406e-07
2072.64	-3.26379e-07
2081.2	-1.17514e-06
2089.75	-6.57909e-07
2098.31	-3.88119e-07
2106.87	-8.392e-07
2115.43	-9.08739e-07
2123.98	1.896e-07
2132.54	-2.82799e-07
2141.1	8.81965e-07
2149.66	3.50461e-07
2158.21	-3.64532e-07
2166.77	8.04641e-07
2175.33	2.07737e-06
2183.89	4.09983e-06
2192.45	7.58937e-06
2201	7.03536e-06
2209.56	2.23029e-06
2218.12	2.81767e-06
2226.68	6.16299e-06
2235.23	1.21733e-05
2243.79	1.6675e-05
2252.35	1.09514e-05
2260.91	7.17225e-06
2269.46	2.46277e-06
2278.02	2.18188e-06
2286.58	5.68246e-07
2295.14	1.49373e-06
2303.69	5.38014e-06
2312.25	8.33753e-06
2320.81	4.25905e-06
2329.37	1.66901e-06
2337.93	-5.2759e-07
2346.48	-1.69068e-07
2355.04	-2.88837e-07
2363.6	5.71432e-07
2372.16	7.90236e-07
2380.71	7.57103e-07
2389.27	6.56425e-07
2397.83	1.38118e-07
2406.39	3.79694e-07
2414.94	7.20711e-08
2423.5	3.99047e-07
2432.06	1.77086e-08
2440.62	1.19245e-07
2449.17	-8.53314e-07
2457.73	-5.87759e-07
2466.29	4.63304e-08
2474.85	1.75456e-07
2483.41	-5.20678e-07
2491.96	8.2574e-07
2500.52	-2.95822e-08
2509.08	8.29931e-07
2517.64	8.68069e-07
2526.19	4.26824e-07
2534.75	-5.69046e-07
2543.31	-5.35477e-09
2551.87	-6.25402e-08
2560.42	4.62969e-07
2568.98	-9.98781e-08
2577.54	1.708e-06
2586.1	1.25008e-07
2594.65	3.85514e-07
2603.21	-8.76407e-07
2611.77	1.85761e-06
2620.33	5.61407e-07
2628.89	1.70683e-08
2637.44	4.75992e-07
2646	3.7236e-07
2654.56	2.10742e-07
2663.12	2.54148e-07
2671.67	1.84885e-07
2680.23	-1.11402e-07
2688.79	4.16042e-07
2697.35	-2.90001e-07
2705.9	9.15447e-07
2714.46	2.87804e-07
2723.02	1.39543e-06
2731.58	5.64142e-08
2740.13	-2.03714e-07
2748.69	-8.43871e-07
2757.25	4.60103e-08
2765.81	-1.00502e-06
2774.37	6.82617e-07
2782.92	-1.22953e-06
2791.48	7.96827e-07
2800.04	-6.8071e-07
2808.6	-2.61933e-07
2817.15	3.98508e-07
2825.71	-2.16082e-08
2834.27	5.98745e-07
2842.83	-4.58124e-07
2851.38	-1.08891e-06
2859.94	-4.89176e-07
2868.5	2.67331e-07
2877.06	1.87226e-06
2885.61	-1.14637e-06
2894.17	4.82351e-07
2902.73	4.77098e-07
2911.29	-3.94434e-07
2919.85	9.47387e-07
2928.4	-1.58523e-06
2936.96	8.59324e-07
2945.52	-7.59708e-08
2954.08	-1.17397e-06
2962.63	-1.75516e-06
2971.19	3.57896e-07
2979.75	-3.83986e-07
2988.31	2.28276e-07
2996.86	7.75175e-07
3005.42	1.20773e-07
3013.98	1.55584e-06
3022.54	1.30408e-06
3031.09	-1.53004e-07
3039.65	6.51448e-07
3048.21	-6.84814e-07
3056.77	4.14907e-07
3065.33	-8.9883e-07
3073.88	6.27148e-09
3082.44	6.16337e-07
3091	7.69952e-07
3099.56	-3.17808e-07
3108.11	7.12723e-07
3116.67	-1.48828e-07
3125.23	-2.33049e-07
3133.79	2.67389e-07
3142.34	4.35759e-07
3150.9	2.27723e-07
3159.46	6.68284e-07
3168.02	5.60897e-07
3176.57	-9.19172e-07
3185.13	-1.17175e-06
3193.69	-2.946e-07
3202.25	1.04549e-06
3210.81	1.39806e-07
3219.36	9.41915e-07
3227.92	-8.40117e-07
3236.48	2.0999e-06
3245.04	-4.58895e-07
3253.59	-5.32872e-07
3262.15	4.35875e-07
3270.71	-4.39528e-07
3279.27	1.18978e-06
3287.82	3.1842e-07
3296.38	9.39733e-07
3304.94	-4.91955e-07
3313.5	-4.73562e-07
3322.05	-2.08298e-07
3330.61	2.7692e-07
3339.17	1.37361e-07
3347.73	1.3477e-06
3356.29	-7.30475e-07
3364.84	2.57043e-07
3373.4	-1.96831e-07
3381.96	2.11969e-06
3390.52	-7.32017e-07
3399.07	5.64448e-07
3407.63	-2.10422e-07
3416.19	-6.15129e-07
3424.75	-1.7905e-07
3433.3	9.32283e-07
3441.86	9.52814e-07
3450.42	-1.03469e-06
3458.98	-2.2717e-06
3467.53	3.83433e-07
3476.09	-6.65999e-07
3484.65	1.41392e-07
3493.21	-6.18301e-07
3501.77	1.33642e-06
3510.32	5.9144e-07
3518.88	3.81716e-07
3527.44	8.9672e-07
3536	9.79952e-07
3544.55	1.08187e-07
3553.11	-7.14614e-07
3561.67	-3.29755e-07
3570.23	-1.55915e-06
3578.78	-4.08257e-07
3587.34	-1.48624e-07
3595.9	-9.27903e-07
3604.46	5.22221e-07
3613.01	5.13723e-07
3621.57	2.22198e-06
3630.13	5.35753e-07
3638.69	-8.31648e-07
3647.25	-1.22346e-06
3655.8	-7.23039e-08
3664.36	4.53657e-07
3672.92	-4.21397e-08
3681.48	1.0659e-06
3690.03	5.44498e-08
3698.59	9.76168e-07
3707.15	1.5921e-06
3715.71	7.20071e-07
3724.26	3.61549e-07
3732.82	1.41146e-06
3741.38	-1.08355e-06
3749.94	5.55746e-07
3758.49	9.39849e-08
3767.05	9.13992e-07
3775.61	-6.12975e-07
3784.17	1.15116e-06
3792.73	2.5834e-06
3801.28	-1.49677e-06
3809.84	7.45681e-07
3818.4	3.103e-07
3826.96	1.16743e-06
3835.51	8.78342e-07
3844.07	1.7953e-07
3852.63	3.06517e-07
3861.19	-4.28512e-07
3869.74	-3.41759e-07
3878.3	-2.28931e-07
3886.86	-3.3022e-07
3895.42	1.09685e-07
3903.97	2.35828e-07
3912.53	-1.70727e-07
3921.09	-1.4858e-07
3929.65	-5.59777e-08
3938.21	-4.2227e-07
3946.76	-5.0767e-07
3955.32	-2.5246e-08
3963.88	-6.37727e-07
3972.44	-3.71749e-07
