Infrared Spectrum: Carbon tetrafluoride
Formula: C F4
CAS: 75-73-0
State: gas
Melting point: -150 C
Boiling point: -129 C
Class: IUPAC A
Instrument: IFS66V (Bruker)
Instrument parameters: KBr Beam Splitter; MCT Detector; Multipass cell
Sampling: 1 L/min Flow
Resolution: 0.1250
Temperature: 23 C
Pressure: 101.3 Pa
Origin: NIST, Analytical Chemistry Division, 301-975-3108
cm-1	(micromol/mol)-1m-1 (base 10)
575.048	-0.000218384
583.606	-3.41355e-05
592.163	-3.79364e-05
600.721	-1.40945e-05
609.278	-5.87631e-05
617.836	-6.4002e-05
626.394	-3.29096e-05
634.951	-6.04515e-05
643.509	3.62373e-05
652.067	-1.8991e-05
660.624	-3.18974e-05
669.182	-9.903e-06
677.739	-3.70114e-06
686.297	-6.98501e-05
694.855	-3.27683e-05
703.412	-7.04648e-05
711.97	-3.9643e-05
720.528	-3.28579e-05
729.085	-1.73062e-05
737.643	-6.03295e-05
746.2	-3.51026e-05
754.758	-3.9773e-05
763.316	-2.58001e-05
771.873	-2.14395e-05
780.431	-5.67177e-05
788.988	-7.21227e-05
797.546	-5.66496e-05
806.104	-5.39218e-05
814.661	-3.57536e-05
823.219	-3.83785e-05
831.777	-5.18667e-05
840.334	-5.22581e-05
848.892	-2.21243e-05
857.449	-5.82395e-05
866.007	-2.42964e-05
874.565	-8.66603e-06
883.122	-1.53177e-05
891.68	-2.3287e-05
900.238	-3.54778e-05
908.795	-8.61923e-06
917.353	-6.79845e-05
925.91	-1.26603e-05
934.468	-1.32492e-05
943.026	-1.08372e-05
951.583	-3.51961e-05
960.141	-1.96681e-05
968.698	-4.53481e-05
977.256	-3.29074e-05
985.814	-1.13182e-05
994.371	-5.27253e-05
1002.93	-3.86403e-05
1011.49	-2.67486e-05
1020.04	-4.31001e-05
1028.6	-3.96902e-05
1037.16	-2.2609e-05
1045.72	-4.47969e-05
1054.27	-2.3378e-05
1062.83	-4.22575e-05
1071.39	-3.97191e-06
1079.95	-5.35978e-05
1088.51	-3.4952e-05
1097.06	-5.11247e-05
1105.62	1.81891e-06
1114.18	-3.64139e-05
1122.74	-3.51065e-05
1131.29	-4.68189e-06
1139.85	-2.61051e-05
1148.41	-3.95841e-05
1156.97	-3.25043e-05
1165.52	-5.14424e-05
1174.08	-2.36367e-05
1182.64	-2.97267e-05
1191.2	-3.40088e-05
1199.75	-4.09774e-05
1208.31	-3.3637e-05
1216.87	-2.72862e-05
1225.43	-2.53239e-05
1233.98	2.11238e-06
1242.54	7.20214e-05
1251.1	0.00014522
1259.66	0.000379903
1268.22	0.000905144
1276.77	0.00724634
1285.33	0.0168612
1293.89	5.65948e-05
1302.45	-2.71716e-05
1311	-1.44804e-05
1319.56	-2.58367e-05
1328.12	-2.46643e-05
1336.68	-1.8918e-05
1345.23	-3.57722e-05
1353.79	-4.06141e-05
1362.35	-4.01668e-05
1370.91	-3.36201e-05
1379.46	-2.8415e-05
1388.02	-3.59317e-05
1396.58	-2.32181e-05
1405.14	-3.74678e-05
1413.69	-2.05863e-05
1422.25	-2.11374e-05
1430.81	-3.01143e-05
1439.37	-3.51286e-05
1447.93	2.04311e-06
1456.48	3.3508e-05
1465.04	-1.31232e-05
1473.6	1.4038e-05
1482.16	-4.34824e-05
1490.71	-2.65822e-06
1499.27	-2.25147e-05
1507.83	-1.79302e-05
1516.39	-2.56998e-06
1524.94	-4.41077e-07
1533.5	-2.84537e-05
1542.06	4.0255e-05
1550.62	-1.61645e-05
1559.17	-9.50965e-06
1567.73	-2.3452e-05
1576.29	4.78744e-05
1584.85	-3.14401e-05
1593.4	-3.1937e-05
1601.96	-2.5373e-05
1610.52	-2.97034e-05
1619.08	-3.23524e-05
1627.64	-2.59062e-05
1636.19	-2.4325e-05
1644.75	-3.6557e-05
1653.31	0.000115547
1661.87	-2.96778e-05
1670.42	-4.14101e-05
1678.98	-2.69443e-05
1687.54	-3.44723e-05
1696.1	3.08341e-05
1704.65	-1.84857e-05
1713.21	-1.6771e-05
1721.77	-4.32377e-05
1730.33	-2.87345e-05
1738.88	-2.54057e-05
1747.44	-2.36133e-05
1756	-3.22527e-05
1764.56	-3.2657e-05
1773.11	-2.47852e-05
1781.67	-2.41115e-05
1790.23	-2.30784e-05
1798.79	-2.91927e-05
1807.35	-2.31598e-05
1815.9	-2.36792e-05
1824.46	-2.28679e-05
1833.02	-2.73984e-05
1841.58	-2.34927e-05
1850.13	-3.90474e-05
1858.69	-3.06966e-05
1867.25	-4.10632e-05
1875.81	-2.19769e-05
1884.36	-4.0318e-05
1892.92	-2.04871e-05
1901.48	-1.32121e-05
1910.04	-1.6904e-05
1918.59	-1.00881e-05
1927.15	-3.44829e-05
1935.71	-2.78886e-05
1944.27	-2.80144e-05
1952.82	-2.74449e-05
1961.38	-3.18576e-05
1969.94	-3.46756e-05
1978.5	-3.4543e-05
1987.06	-2.71448e-05
1995.61	-2.58002e-05
2004.17	-3.97573e-05
2012.73	-3.55406e-05
2021.29	-2.59984e-05
2029.84	-2.38997e-05
2038.4	-2.39438e-05
2046.96	-2.20091e-05
2055.52	-3.9124e-05
2064.07	-3.80632e-05
2072.63	-3.51301e-05
2081.19	-2.45127e-05
2089.75	-2.55448e-05
2098.3	-1.90879e-05
2106.86	-3.02699e-05
2115.42	-3.64526e-05
2123.98	-3.40688e-05
2132.53	-9.59044e-06
2141.09	-3.67653e-05
2149.65	-1.66428e-05
2158.21	-3.42362e-05
2166.77	-2.45055e-05
2175.32	-1.05293e-06
2183.88	6.88828e-05
2192.44	-1.92941e-05
2201	-3.11688e-05
2209.55	-3.43088e-05
2218.11	-2.93826e-05
2226.67	-2.44267e-05
2235.23	-1.85417e-05
2243.78	-2.42886e-05
2252.34	-3.42164e-05
2260.9	-3.90386e-05
2269.46	-2.00783e-05
2278.01	-1.65045e-05
2286.57	-1.97646e-05
2295.13	-2.16276e-05
2303.69	-5.36828e-05
2312.24	-1.91526e-05
2320.8	-1.43914e-05
2329.36	-2.46024e-05
2337.92	-1.30412e-05
2346.48	-3.05712e-05
2355.03	-2.20706e-05
2363.59	-3.04373e-05
2372.15	-2.27004e-05
2380.71	-8.77231e-06
2389.26	-2.90751e-05
2397.82	-1.7311e-05
2406.38	-3.17103e-05
2414.94	-2.55917e-05
2423.49	-2.53577e-05
2432.05	-2.31672e-05
2440.61	-3.54901e-05
2449.17	-2.10883e-05
2457.72	-1.29496e-05
2466.28	-1.73653e-05
2474.84	-2.26114e-05
2483.4	-2.5295e-05
2491.95	-2.2998e-05
2500.51	-3.73843e-05
2509.07	-2.59131e-05
2517.63	-3.06322e-05
2526.19	-4.17621e-05
2534.74	-1.73729e-05
2543.3	-2.40436e-05
2551.86	-6.26405e-05
2560.42	-0.000137643
2568.97	-0.000136643
2577.53	-3.34789e-05
2586.09	-1.21665e-05
2594.65	-1.27751e-05
2603.2	-6.25843e-06
2611.76	-1.97527e-05
2620.32	-1.35267e-05
2628.88	-3.51565e-05
2637.43	-3.23372e-05
2645.99	-2.49665e-05
2654.55	-4.18499e-05
2663.11	-3.69937e-05
2671.66	-1.96041e-05
2680.22	-3.81232e-05
2688.78	-2.0806e-05
2697.34	-2.97067e-05
2705.9	-8.33018e-06
2714.45	-2.81557e-05
2723.01	-3.03516e-05
2731.57	-4.24235e-05
2740.13	-2.9391e-05
2748.68	-1.13508e-05
2757.24	-2.20999e-05
2765.8	-3.13847e-05
2774.36	-2.87165e-05
2782.91	-1.60159e-05
2791.47	-1.93503e-05
2800.03	-2.94567e-05
2808.59	-3.97196e-05
2817.14	-3.21817e-05
2825.7	-2.62409e-05
2834.26	-2.43149e-05
2842.82	-3.66037e-05
2851.37	-1.7449e-05
2859.93	-1.8397e-05
2868.49	-1.85086e-05
2877.05	-2.30373e-05
2885.61	-2.32479e-05
2894.16	-1.27648e-05
2902.72	-3.46364e-05
2911.28	-4.57605e-05
2919.84	-2.33626e-05
2928.39	-3.92766e-05
2936.95	-1.95762e-05
2945.51	-2.70944e-05
2954.07	-3.64824e-05
2962.62	-2.5722e-05
2971.18	-1.9203e-05
2979.74	-2.99877e-05
2988.3	7.86943e-06
2996.85	-2.21914e-05
3005.41	-2.0737e-05
3013.97	-1.10881e-05
3022.53	-2.1884e-05
3031.08	-4.34703e-05
3039.64	-2.70334e-05
3048.2	-2.92654e-05
3056.76	-2.32183e-05
3065.32	-3.84437e-05
3073.87	-2.69019e-05
3082.43	-2.06034e-05
3090.99	-2.41064e-05
3099.55	-3.42959e-05
3108.1	-4.27839e-05
3116.66	-3.32157e-05
3125.22	-2.75441e-05
3133.78	-5.07757e-06
3142.33	-2.266e-05
3150.89	-4.27352e-05
3159.45	-9.59451e-07
3168.01	-4.48083e-05
3176.56	-2.11275e-05
3185.12	-4.07243e-05
3193.68	2.94284e-06
3202.24	-1.02448e-05
3210.79	-1.56071e-05
3219.35	-3.76362e-05
3227.91	-1.6409e-05
3236.47	-4.28572e-05
3245.03	-1.4805e-05
3253.58	-7.12045e-06
3262.14	-2.11221e-05
3270.7	-2.60509e-05
3279.26	-4.78589e-05
3287.81	-3.39547e-05
3296.37	-1.97547e-05
3304.93	-1.40112e-05
3313.49	-3.08842e-05
3322.04	-1.92664e-05
3330.6	-1.7297e-05
3339.16	-1.47008e-05
3347.72	-3.93246e-05
3356.27	-1.63433e-05
3364.83	-4.31119e-05
3373.39	-3.22914e-05
3381.95	4.3081e-06
3390.5	-2.30008e-05
3399.06	-2.54832e-05
3407.62	-1.99278e-05
3416.18	-2.42515e-05
3424.74	-8.56975e-06
3433.29	-4.99676e-05
3441.85	-2.38786e-05
3450.41	-5.71142e-06
3458.97	-1.20093e-05
3467.52	-1.82575e-05
3476.08	-2.65464e-05
3484.64	-1.01358e-05
3493.2	1.30525e-05
3501.75	-3.11017e-05
3510.31	-5.35847e-06
3518.87	2.57278e-06
3527.43	-3.42052e-05
3535.98	-1.45247e-05
3544.54	-7.26003e-06
3553.1	-1.68311e-05
3561.66	-3.53351e-06
3570.21	-8.46394e-06
3578.77	-4.69894e-05
3587.33	-3.29797e-05
3595.89	-3.00622e-05
3604.45	-4.13947e-05
3613	-2.97525e-05
3621.56	-2.4479e-05
3630.12	-4.66968e-05
3638.68	-2.17371e-05
3647.23	8.07548e-06
3655.79	-2.44675e-05
3664.35	-1.88736e-05
3672.91	-3.2875e-05
3681.46	-5.0585e-05
3690.02	-2.94963e-05
3698.58	-1.87256e-05
3707.14	-3.25784e-05
3715.69	-2.87814e-05
3724.25	-3.49009e-06
3732.81	-3.87609e-05
3741.37	-2.52704e-05
3749.92	-3.93047e-06
3758.48	-2.60516e-05
3767.04	-1.41406e-05
3775.6	-5.519e-07
3784.16	-2.86477e-05
3792.71	-2.36643e-05
3801.27	2.83593e-05
3809.83	-2.41908e-05
3818.39	5.58687e-06
3826.94	-3.18771e-05
3835.5	-3.0498e-05
3844.06	-3.09223e-05
3852.62	-1.2546e-05
3861.17	-5.05923e-05
3869.73	-1.17708e-05
3878.29	-2.77746e-05
3886.85	-2.87089e-05
3895.4	-4.74812e-05
3903.96	4.18506e-06
3912.52	-9.47927e-06
3921.08	-3.43414e-05
3929.63	-3.32363e-05
3938.19	-2.19004e-05
3946.75	-2.99848e-05
3955.31	-1.40595e-05
3963.87	-3.7692e-05
3972.42	-9.33108e-06
