Infrared Spectrum: Silane, dichlorodimethyl-,
Formula: C2 H6 Cl2 Si
CAS: 75-78-5
State: SOLUTION (5% CCl4 FOR 3800-1300, 2% CS2 FOR 1300-550, AND 5% CCl4 FOR 600-230)
Boiling point: 69.6 C
Class: COBLENTZ III
Instrument: PERKIN-ELMER 521 (GRATING)
Instrument parameters: FILTERS AT 3150, 2500, 2000, 1150, 700, 410. GRATING CHANGES: 2000, 630
Path length: 0.011 CM, 0.011 CM, AND 0.020 CM
Resolution: 2
Origin: DOW CORNING CORP.
1/CM	TRANSMITTANCE
234	0.8772
243	0.8855
252	0.892
261	0.8943
270	0.8941
279	0.8933
288	0.8927
297	0.8922
306	0.8919
315	0.8904
324	0.8841
333	0.8765
342	0.8687
351	0.8605
360	0.8509
369	0.8416
378	0.8346
387	0.8319
396	0.8304
405	0.8295
414	0.8282
423	0.8221
432	0.8089
441	0.7748
450	0.5485
459	0.173
468	0.2559
477	0.6989
486	0.7044
495	0.6956
504	0.6403
513	0.5342
522	0.2282
531	0.0004
540	0.2452
549	0.63
558	0.725
567	0.7619
576	0.7823
585	0.7952
594	0.8006
603	0.8068
612	0.8148
621	0.8229
630	0.827
639	0.8253
648	0.8191
657	0.8123
666	0.795
675	0.7717
684	0.4951
693	0.7354
702	0.8486
711	0.8613
720	0.868
729	0.8897
738	0.8888
747	0.8872
756	0.8851
765	0.8829
774	0.8604
783	0.7851
792	0.6012
801	0.234
810	0.305
819	0.4107
828	0.541
837	0.3316
846	0.748
855	0.8328
864	0.864
873	0.883
882	0.8941
891	0.9014
900	0.9069
909	0.9083
918	0.9089
927	0.9098
936	0.9114
945	0.9123
954	0.9113
963	0.9081
972	0.9033
981	0.9002
990	0.897
999	0.8987
1008	0.8984
1017	0.8976
1026	0.8953
1035	0.8917
1044	0.8853
1053	0.8779
1062	0.8723
1071	0.8696
1080	0.8683
1089	0.8688
1098	0.8704
1107	0.8756
1116	0.8824
1125	0.8895
1134	0.8962
1143	0.901
1152	0.9036
1161	0.9053
1170	0.9056
1179	0.9057
1188	0.9046
1197	0.9013
1206	0.8964
1215	0.8887
1224	0.8776
1233	0.8591
1242	0.83
1251	0.6453
1260	0.5887
1269	0.8452
1278	0.8763
1287	0.8877
1296	0.9038
1305	0.9193
1314	0.9183
1323	0.9147
1332	0.9065
1341	0.901
1350	0.896
1359	0.8829
1368	0.8615
1377	0.8329
1386	0.7808
1395	0.6651
1404	0.726
1413	0.8484
1422	0.8729
1431	0.8828
1440	0.8872
1449	0.8905
1458	0.8937
1467	0.8968
1476	0.8994
1485	0.9004
1494	0.9009
1503	0.9014
1512	0.9017
1521	0.9018
1530	0.9018
1539	0.9018
1548	0.9019
1557	0.9022
1566	0.9024
1575	0.9027
1584	0.903
1593	0.9034
1602	0.9038
1611	0.9043
1620	0.9048
1629	0.9053
1638	0.9056
1647	0.906
1656	0.906
1665	0.9058
1674	0.9057
1683	0.9059
1692	0.9045
1701	0.9019
1710	0.8986
1719	0.8968
1728	0.8986
1737	0.9047
1746	0.9069
1755	0.9077
1764	0.908
1773	0.9083
1782	0.9094
1791	0.9106
1800	0.911
1809	0.9113
1818	0.9118
1827	0.9124
1836	0.9115
1845	0.9104
1854	0.9092
1863	0.9079
1872	0.9066
1881	0.9045
1890	0.9026
1899	0.9009
1908	0.8992
1917	0.8964
1926	0.8915
1935	0.8862
1944	0.8832
1953	0.8938
1962	0.9062
1971	0.9085
1980	0.9116
1989	0.9243
1998	0.9343
2007	0.9261
2016	0.9261
2025	0.9264
2034	0.9257
2043	0.9213
2052	0.9141
2061	0.9162
2070	0.9238
2079	0.9251
2088	0.9266
2097	0.9277
2106	0.928
2115	0.9283
2124	0.9286
2133	0.9289
2142	0.9294
2151	0.9298
2160	0.9307
2169	0.9315
2178	0.9321
2187	0.9323
2196	0.9322
2205	0.9324
2214	0.933
2223	0.9333
2232	0.9336
2241	0.9345
2250	0.9354
2259	0.9356
2268	0.9356
2277	0.9355
2286	0.9355
2295	0.9352
2304	0.9349
2313	0.9344
2322	0.9336
2331	0.9329
2340	0.9321
2349	0.9313
2358	0.9304
2367	0.9295
2376	0.9286
2385	0.9277
2394	0.9269
2403	0.926
2412	0.925
2421	0.9238
2430	0.9227
2439	0.9215
2448	0.9203
2457	0.9192
2466	0.9182
2475	0.9172
2484	0.9161
2493	0.9151
2502	0.9147
2511	0.9142
2520	0.9142
2529	0.9142
2538	0.9143
2547	0.9143
2556	0.9144
2565	0.9144
2574	0.9142
2583	0.9139
2592	0.9137
2601	0.9134
2610	0.9131
2619	0.9129
2628	0.9129
2637	0.9127
2646	0.9125
2655	0.9121
2664	0.9118
2673	0.9109
2682	0.9101
2691	0.9093
2700	0.9086
2709	0.9076
2718	0.9065
2727	0.9054
2736	0.9036
2745	0.9011
2754	0.8987
2763	0.896
2772	0.8933
2781	0.8906
2790	0.888
2799	0.8864
2808	0.8853
2817	0.8835
2826	0.8814
2835	0.8782
2844	0.8744
2853	0.8701
2862	0.8661
2871	0.8628
2880	0.8595
2889	0.8556
2898	0.8522
2907	0.8503
2916	0.8501
2925	0.8492
2934	0.8469
2943	0.8375
2952	0.8177
2961	0.7771
2970	0.7471
2979	0.7854
2988	0.835
2997	0.8575
3006	0.8581
3015	0.8559
3024	0.8526
3033	0.8492
3042	0.8465
3051	0.8468
3060	0.8522
3069	0.8592
3078	0.8598
3087	0.8584
3096	0.8549
3105	0.8508
3114	0.8466
3123	0.8426
3132	0.8397
3141	0.8379
3150	0.8382
3159	0.8411
3168	0.8468
3177	0.8524
3186	0.8574
3195	0.8606
3204	0.864
3213	0.8677
3222	0.8719
3231	0.8759
3240	0.8797
3249	0.8827
3258	0.8848
3267	0.8865
3276	0.8883
3285	0.89
3294	0.8915
3303	0.8923
3312	0.8932
3321	0.894
3330	0.8948
3339	0.8953
3348	0.8959
3357	0.8964
3366	0.8969
3375	0.8975
3384	0.8978
3393	0.8978
3402	0.8979
3411	0.8979
3420	0.898
3429	0.898
3438	0.8982
3447	0.8984
3456	0.8987
3465	0.899
3474	0.8993
3483	0.8995
3492	0.8998
3501	0.9
3510	0.9002
3519	0.9003
3528	0.9005
3537	0.9007
3546	0.9008
3555	0.9007
3564	0.9007
3573	0.9006
3582	0.901
3591	0.9013
3600	0.9017
3609	0.9021
3618	0.9025
3627	0.9029
3636	0.9027
3645	0.902
3654	0.9015
3663	0.899
3672	0.8965
3681	0.8953
3690	0.8952
3699	0.895
3708	0.8948
3717	0.8946
3726	0.8958
3735	0.8971
3744	0.8984
3753	0.8986
3762	0.8948
3771	0.8924
3780	0.8926
3789	0.8932
3798	0.8955
3807	0.8992
