Infrared Spectrum: Dichlorodifluoromethane
Formula: C Cl2 F2
CAS: 75-71-8
State: gas
Melting point: -158 C
Boiling point: -29.8 C
Class: IUPAC A
Instrument: IFS66V (Bruker)
Instrument parameters: KBr Beam Splitter; MCT Detector; Multipass cell
Sampling: 1 L/min Flow
Resolution: 0.1250
Temperature: 23 C
Pressure: 101.3 Pa
Origin: NIST, Analytical Chemistry Division, 301-975-3108
cm-1	(micromol/mol)-1m-1 (base 10)
575.05	3.42529e-06
583.608	1.09306e-05
592.165	-1.01531e-06
600.723	2.10393e-07
609.281	1.01493e-06
617.838	-1.49072e-06
626.396	1.50647e-07
634.954	2.50365e-06
643.511	8.72031e-06
652.069	2.088e-05
660.626	4.66947e-05
669.184	7.85064e-05
677.742	5.201e-05
686.299	8.5122e-06
694.857	4.14121e-07
703.415	-9.22519e-07
711.972	-2.61874e-07
720.53	2.28349e-06
729.088	1.08262e-06
737.645	-5.42185e-07
746.203	9.13366e-07
754.761	1.88683e-07
763.318	2.43058e-06
771.876	-4.81274e-07
780.434	8.0662e-07
788.991	9.19056e-07
797.549	1.19833e-06
806.106	-8.24649e-07
814.664	3.67078e-07
823.222	8.16238e-07
831.779	5.09674e-06
840.337	9.63478e-06
848.895	1.32659e-05
857.452	3.84171e-05
866.01	0.000123525
874.568	0.000311148
883.125	0.000521671
891.683	0.000513576
900.241	0.000282885
908.798	0.000932597
917.356	0.00161299
925.914	0.00175327
934.471	0.000903752
943.029	1.84119e-05
951.586	2.19211e-06
960.144	1.47031e-06
968.702	-2.20753e-07
977.259	4.45173e-07
985.817	-2.4306e-07
994.375	-2.86757e-07
1002.93	-1.28459e-06
1011.49	-2.20563e-06
1020.05	2.08952e-08
1028.61	1.23094e-06
1037.16	-7.31974e-07
1045.72	1.8111e-06
1054.28	4.88662e-06
1062.84	1.7147e-05
1071.39	6.30744e-05
1079.95	0.000282459
1088.51	0.000941421
1097.07	0.00158568
1105.62	0.0012948
1114.18	0.000897799
1122.74	0.000316662
1131.3	0.000237562
1139.85	0.000334947
1148.41	0.000903845
1156.97	0.00118309
1165.53	0.000615879
1174.09	0.000390517
1182.64	5.25641e-05
1191.2	8.8183e-06
1199.76	8.27268e-06
1208.32	9.32521e-06
1216.87	3.80555e-06
1225.43	7.03397e-06
1233.99	1.23672e-05
1242.55	2.05083e-05
1251.1	9.59052e-06
1259.66	1.89004e-06
1268.22	2.59357e-07
1276.78	-9.87605e-07
1285.33	-9.121e-07
1293.89	3.73553e-07
1302.45	5.77296e-07
1311.01	1.15935e-06
1319.57	1.89099e-06
1328.12	2.62004e-06
1336.68	2.38604e-06
1345.24	4.66869e-06
1353.8	4.2812e-06
1362.35	6.35787e-06
1370.91	4.65767e-06
1379.47	8.0929e-06
1388.03	5.5761e-06
1396.58	1.62914e-06
1405.14	-3.22276e-07
1413.7	6.55581e-07
1422.26	-7.12955e-07
1430.81	-5.08747e-07
1439.37	1.76256e-07
1447.93	-1.92539e-06
1456.49	-2.72678e-06
1465.05	-4.79863e-07
1473.6	8.24023e-08
1482.16	1.50108e-06
1490.72	-1.89876e-07
1499.28	-1.51752e-07
1507.83	-4.23332e-07
1516.39	1.62811e-07
1524.95	1.5133e-07
1533.51	-5.19733e-07
1542.06	-7.24014e-07
1550.62	3.87813e-07
1559.18	5.88108e-07
1567.74	1.19779e-06
1576.29	9.4759e-07
1584.85	5.32584e-06
1593.41	5.05755e-06
1601.97	8.34776e-07
1610.53	6.22506e-07
1619.08	-2.35726e-09
1627.64	-7.74608e-07
1636.2	-4.50644e-07
1644.76	-4.68775e-07
1653.31	-3.65282e-06
1661.87	-8.08817e-07
1670.43	-2.65789e-07
1678.99	-2.68699e-07
1687.54	3.57707e-07
1696.1	-1.86058e-06
1704.66	-2.26021e-07
1713.22	-1.0142e-07
1721.77	-4.38247e-07
1730.33	1.03718e-06
1738.89	1.6837e-07
1747.45	1.03219e-06
1756.01	3.21955e-06
1764.56	3.12228e-06
1773.12	2.27534e-06
1781.68	8.596e-07
1790.24	1.15334e-06
1798.79	2.06115e-06
1807.35	2.52492e-06
1815.91	1.11378e-06
1824.47	9.98111e-07
1833.02	2.56259e-06
1841.58	1.04943e-06
1850.14	4.40764e-07
1858.7	-5.38052e-07
1867.25	-8.16879e-07
1875.81	-1.11024e-07
1884.37	5.3536e-07
1892.93	-2.58819e-07
1901.49	-7.97817e-07
1910.04	8.79695e-07
1918.6	4.77055e-07
1927.16	-2.84618e-08
1935.72	-1.75776e-07
1944.27	1.94198e-07
1952.83	3.291e-07
1961.39	-1.60687e-07
1969.95	1.26754e-07
1978.5	2.00935e-07
1987.06	7.88664e-08
1995.62	4.64235e-07
2004.18	8.00931e-07
2012.73	8.10098e-07
2021.29	9.98184e-07
2029.85	3.91407e-07
2038.41	7.79817e-07
2046.97	2.23503e-07
2055.52	-3.43098e-07
2064.08	4.1028e-07
2072.64	2.59153e-08
2081.2	-7.77314e-07
2089.75	-6.27992e-07
2098.31	-1.48842e-07
2106.87	-5.17652e-07
2115.43	-9.19958e-07
2123.98	1.81553e-07
2132.54	1.27889e-07
2141.1	7.35815e-07
2149.66	5.40133e-08
2158.21	-2.31055e-07
2166.77	6.71485e-07
2175.33	2.19317e-06
2183.89	4.53747e-06
2192.45	7.53409e-06
2201	6.97443e-06
2209.56	2.37021e-06
2218.12	2.56848e-06
2226.68	6.00699e-06
2235.23	1.26679e-05
2243.79	1.65562e-05
2252.35	1.08544e-05
2260.91	6.85404e-06
2269.46	2.2864e-06
2278.02	2.0328e-06
2286.58	5.65917e-07
2295.14	1.67342e-06
2303.69	5.30413e-06
2312.25	8.35814e-06
2320.81	4.11301e-06
2329.37	1.55269e-06
2337.93	-4.0462e-07
2346.48	-2.7401e-07
2355.04	-7.10453e-07
2363.6	2.48793e-07
2372.16	3.7399e-07
2380.71	7.50468e-07
2389.27	1.63029e-07
2397.83	1.73215e-07
2406.39	4.56028e-07
2414.94	6.27585e-08
2423.5	2.34591e-07
2432.06	2.50204e-07
2440.62	4.85276e-08
2449.17	-4.9971e-07
2457.73	-4.59288e-07
2466.29	2.96098e-07
2474.85	7.6611e-08
2483.41	-6.18461e-07
2491.96	5.79959e-07
2500.52	2.16708e-07
2509.08	6.4231e-07
2517.64	8.00174e-07
2526.19	5.09198e-07
2534.75	6.31222e-08
2543.31	-1.0193e-07
2551.87	-3.41949e-08
2560.42	2.59823e-07
2568.98	-2.44602e-07
2577.54	1.43755e-06
2586.1	1.18562e-07
2594.65	3.7105e-07
2603.21	-1.00632e-06
2611.77	1.48294e-06
2620.33	5.88486e-07
2628.89	-1.72167e-07
2637.44	3.01744e-07
2646	3.00376e-07
2654.56	3.21577e-07
2663.12	-5.007e-08
2671.67	4.04809e-08
2680.23	-3.73699e-07
2688.79	4.98124e-07
2697.35	-4.38538e-07
2705.9	7.46394e-07
2714.46	2.29149e-07
2723.02	1.33105e-06
2731.58	-7.90556e-08
2740.13	-8.95323e-08
2748.69	-8.27646e-07
2757.25	2.16839e-07
2765.81	-9.45189e-07
2774.37	2.82711e-07
2782.92	-4.92129e-07
2791.48	5.07044e-07
2800.04	-1.04264e-06
2808.6	-3.31792e-07
2817.15	4.17032e-07
2825.71	-1.33389e-07
2834.27	6.01189e-07
2842.83	-2.93828e-07
2851.38	-8.77498e-07
2859.94	-4.87226e-07
2868.5	2.22005e-07
2877.06	1.43845e-06
2885.61	-1.18578e-06
2894.17	3.98348e-07
2902.73	6.35137e-07
2911.29	-9.35062e-07
2919.85	2.01939e-07
2928.4	-1.41417e-06
2936.96	5.94132e-07
2945.52	6.81132e-08
2954.08	-1.1266e-06
2962.63	-1.80392e-06
2971.19	4.36079e-07
2979.75	-6.18054e-07
2988.31	-8.90958e-08
2996.86	3.58056e-07
3005.42	-1.16888e-07
3013.98	1.21147e-06
3022.54	1.23878e-06
3031.09	5.56867e-08
3039.65	2.31797e-07
3048.21	-8.26293e-07
3056.77	2.23547e-07
3065.33	-1.03052e-06
3073.88	-7.68293e-09
3082.44	1.24513e-07
3091	8.50346e-07
3099.56	-4.45653e-07
3108.11	2.98848e-07
3116.67	-2.46465e-07
3125.23	-1.65489e-07
3133.79	4.15504e-07
3142.34	5.11177e-07
3150.9	1.51709e-07
3159.46	3.28474e-07
3168.02	3.89894e-07
3176.57	-6.19451e-07
3185.13	-1.61135e-06
3193.69	-2.14365e-07
3202.25	7.39642e-07
3210.81	-4.13336e-07
3219.36	4.9616e-07
3227.92	-1.09389e-06
3236.48	2.11227e-06
3245.04	-5.5611e-07
3253.59	-2.36032e-07
3262.15	2.25628e-07
3270.71	-2.09767e-07
3279.27	1.02375e-06
3287.82	-5.71229e-07
3296.38	7.93175e-07
3304.94	-6.65941e-07
3313.5	-2.24536e-07
3322.05	9.45815e-09
3330.61	-1.71906e-07
3339.17	7.73386e-08
3347.73	1.07395e-06
3356.29	1.12334e-07
3364.84	6.41554e-07
3373.4	-2.11426e-07
3381.96	1.86726e-06
3390.52	-9.91563e-07
3399.07	-8.15438e-08
3407.63	-5.85387e-08
3416.19	-4.9146e-07
3424.75	-2.00615e-07
3433.3	8.0937e-07
3441.86	6.80608e-07
3450.42	-6.8736e-07
3458.98	-1.8949e-06
3467.53	5.38518e-07
3476.09	-5.45532e-07
3484.65	-4.49146e-07
3493.21	3.70177e-08
3501.77	9.68282e-07
3510.32	5.06491e-07
3518.88	-1.6025e-07
3527.44	4.38e-07
3536	7.35742e-07
3544.55	6.6923e-07
3553.11	-3.33262e-07
3561.67	-1.10689e-07
3570.23	-9.59042e-07
3578.78	-2.39917e-07
3587.34	-3.29871e-07
3595.9	-7.48518e-07
3604.46	6.20324e-07
3613.01	1.64746e-07
3621.57	2.23901e-06
3630.13	-1.18532e-07
3638.69	-5.50945e-07
3647.25	-9.51519e-07
3655.8	-3.73204e-07
3664.36	3.39067e-07
3672.92	-4.30841e-07
3681.48	7.04123e-07
3690.03	-1.55448e-07
3698.59	9.10936e-07
3707.15	1.44486e-06
3715.71	3.01948e-07
3724.26	7.77256e-07
3732.82	1.30167e-06
3741.38	-8.70674e-07
3749.94	7.92753e-07
3758.49	-1.97079e-07
3767.05	4.71831e-07
3775.61	-4.93104e-07
3784.17	8.71285e-07
3792.73	2.35648e-06
3801.28	-1.6751e-06
3809.84	6.54664e-07
3818.4	2.32918e-07
3826.96	1.0271e-06
3835.51	2.4191e-07
3844.07	6.82908e-07
3852.63	3.83433e-07
3861.19	-5.11599e-07
3869.74	-4.50368e-07
3878.3	2.40906e-07
3886.86	-2.56549e-07
3895.42	8.9576e-08
3903.97	5.0703e-07
3912.53	-2.48749e-07
3921.09	-2.93901e-07
3929.65	3.98246e-07
3938.21	1.47256e-08
3946.76	-2.7724e-07
3955.32	4.83064e-07
3963.88	-5.85503e-07
3972.44	-1.3723e-07
