Infrared Spectrum: Dichlorodifluoromethane
Formula: C Cl2 F2
CAS: 75-71-8
State: gas
Melting point: -158 C
Boiling point: -29.8 C
Class: IUPAC A
Instrument: IFS66V (Bruker)
Instrument parameters: KBr Beam Splitter; MCT Detector; Multipass cell
Sampling: 1 L/min Flow
Resolution: 0.2410
Temperature: 23 C
Pressure: 101.3 Pa
Origin: NIST, Analytical Chemistry Division, 301-975-3108
cm-1	(micromol/mol)-1m-1 (base 10)
575.05	-1.32548e-06
583.608	8.89027e-06
592.165	-5.78562e-07
600.723	4.24162e-07
609.281	1.27817e-06
617.838	-1.79094e-06
626.396	-5.63764e-07
634.954	1.3691e-06
643.511	6.46072e-06
652.069	1.99574e-05
660.626	4.6613e-05
669.184	7.99549e-05
677.742	5.26196e-05
686.299	9.518e-06
694.857	5.98424e-07
703.415	-4.32368e-07
711.972	-1.77697e-07
720.53	2.58203e-06
729.088	8.98844e-07
737.645	-1.04325e-06
746.203	6.36082e-07
754.761	8.6884e-08
763.318	1.52732e-06
771.876	-6.51899e-07
780.434	7.16913e-07
788.991	7.07033e-07
797.549	7.86642e-07
806.106	-5.48864e-07
814.664	3.69435e-07
823.222	1.26728e-06
831.779	4.31948e-06
840.337	9.01835e-06
848.895	1.34865e-05
857.452	3.79397e-05
866.01	0.000123859
874.568	0.000312071
883.125	0.000524304
891.683	0.000516027
900.241	0.000282129
908.798	0.000931888
917.356	0.00161318
925.914	0.00175767
934.471	0.000903221
943.029	1.67726e-05
951.586	1.83462e-06
960.144	8.63107e-07
968.702	-7.58835e-08
977.259	4.04387e-07
985.817	-2.01444e-07
994.375	-3.54695e-07
1002.93	-1.16271e-06
1011.49	-1.82829e-06
1020.05	-5.2663e-07
1028.61	9.15171e-07
1037.16	-5.09038e-07
1045.72	1.82144e-06
1054.28	4.19809e-06
1062.84	1.65093e-05
1071.39	6.23541e-05
1079.95	0.000281243
1088.51	0.000942047
1097.07	0.00158725
1105.62	0.00129317
1114.18	0.000897678
1122.74	0.000316499
1131.3	0.00023685
1139.85	0.000334626
1148.41	0.000905349
1156.97	0.00117263
1165.53	0.000613286
1174.09	0.00039054
1182.64	5.18947e-05
1191.2	8.78668e-06
1199.76	8.04561e-06
1208.32	9.46676e-06
1216.87	3.77118e-06
1225.43	7.06272e-06
1233.99	1.22135e-05
1242.55	2.01141e-05
1251.1	9.5313e-06
1259.66	1.93167e-06
1268.22	1.53251e-07
1276.78	-7.47718e-07
1285.33	-8.67181e-07
1293.89	5.49184e-07
1302.45	5.58438e-07
1311.01	1.25136e-06
1319.57	1.91964e-06
1328.12	2.32337e-06
1336.68	2.56149e-06
1345.24	3.86937e-06
1353.8	3.90187e-06
1362.35	6.21255e-06
1370.91	5.02106e-06
1379.47	7.31311e-06
1388.03	5.94213e-06
1396.58	1.6203e-06
1405.14	-3.18347e-07
1413.7	2.13754e-08
1422.26	-6.81554e-07
1430.81	-6.46719e-07
1439.37	5.33294e-08
1447.93	-1.07708e-06
1456.49	-2.01687e-06
1465.05	-2.55647e-07
1473.6	-3.39722e-07
1482.16	1.2613e-06
1490.72	-3.88337e-07
1499.28	-4.45246e-07
1507.83	-8.79026e-08
1516.39	3.12701e-08
1524.95	-2.27432e-08
1533.51	-3.93896e-07
1542.06	-7.80414e-07
1550.62	5.56954e-07
1559.18	5.34385e-07
1567.74	1.02225e-06
1576.29	7.0728e-07
1584.85	5.15165e-06
1593.41	5.16528e-06
1601.97	6.99452e-07
1610.53	7.01227e-07
1619.08	5.81894e-08
1627.64	-8.2446e-07
1636.2	-4.12143e-07
1644.76	-2.94309e-07
1653.31	-3.54481e-06
1661.87	-6.56483e-07
1670.43	-2.37021e-07
1678.99	-1.88639e-07
1687.54	6.87098e-08
1696.1	-2.19116e-06
1704.66	-2.86393e-07
1713.22	5.26164e-08
1721.77	-3.60516e-07
1730.33	7.84648e-07
1738.89	2.83657e-07
1747.45	1.20591e-06
1756.01	3.13685e-06
1764.56	3.27757e-06
1773.12	2.07612e-06
1781.68	7.00572e-07
1790.24	1.15292e-06
1798.79	2.1423e-06
1807.35	2.39937e-06
1815.91	1.2417e-06
1824.47	1.10652e-06
1833.02	2.51565e-06
1841.58	1.12383e-06
1850.14	5.97551e-07
1858.7	-5.77791e-07
1867.25	-9.14225e-07
1875.81	-2.50292e-07
1884.37	4.6099e-07
1892.93	-2.20884e-08
1901.49	-5.11322e-07
1910.04	4.54326e-07
1918.6	1.07255e-07
1927.16	-1.19013e-07
1935.72	-6.40972e-08
1944.27	2.01299e-07
1952.83	1.1328e-07
1961.39	5.80003e-08
1969.95	-2.40383e-08
1978.5	1.82411e-07
1987.06	1.92437e-07
1995.62	1.78614e-07
2004.18	5.00744e-07
2012.73	8.08352e-07
2021.29	8.49982e-07
2029.85	3.29304e-07
2038.41	6.6063e-07
2046.97	-9.79573e-08
2055.52	5.69672e-08
2064.08	2.68626e-07
2072.64	2.06304e-07
2081.2	-6.89499e-07
2089.75	-4.01433e-07
2098.31	-2.27985e-07
2106.87	-3.205e-07
2115.43	-9.98461e-07
2123.98	9.21515e-08
2132.54	-1.22781e-07
2141.1	6.82122e-07
2149.66	-1.79399e-07
2158.21	-3.2635e-07
2166.77	5.78679e-07
2175.33	2.29193e-06
2183.89	4.54803e-06
2192.45	7.4675e-06
2201	6.96975e-06
2209.56	2.32871e-06
2218.12	2.64213e-06
2226.68	6.0189e-06
2235.23	1.24145e-05
2243.79	1.66873e-05
2252.35	1.10245e-05
2260.91	6.79834e-06
2269.46	2.16584e-06
2278.02	2.01005e-06
2286.58	5.85081e-07
2295.14	1.5193e-06
2303.69	5.03286e-06
2312.25	8.17692e-06
2320.81	3.96272e-06
2329.37	1.05159e-06
2337.93	-4.2713e-07
2346.48	-4.79746e-07
2355.04	-5.50348e-07
2363.6	5.08776e-07
2372.16	4.72587e-07
2380.71	6.59073e-07
2389.27	1.41523e-07
2397.83	2.5505e-07
2406.39	3.39489e-07
2414.94	2.90918e-07
2423.5	-2.97277e-08
2432.06	4.63333e-07
2440.62	1.86078e-07
2449.17	-2.88765e-07
2457.73	-4.05638e-07
2466.29	3.40217e-07
2474.85	-3.61738e-08
2483.41	-3.8224e-07
2491.96	2.14685e-07
2500.52	1.79807e-07
2509.08	7.95998e-07
2517.64	7.11209e-07
2526.19	3.49093e-07
2534.75	2.21393e-07
2543.31	5.05691e-07
2551.87	1.0695e-07
2560.42	2.31972e-07
2568.98	-1.37216e-08
2577.54	1.09457e-06
2586.1	-1.0516e-07
2594.65	1.44433e-07
2603.21	-6.58476e-07
2611.77	1.46622e-06
2620.33	5.22032e-07
2628.89	-2.65934e-07
2637.44	1.38482e-07
2646	7.75859e-08
2654.56	1.33316e-07
2663.12	-3.84947e-07
2671.67	4.32892e-08
2680.23	-2.10291e-07
2688.79	2.71565e-07
2697.35	-5.79057e-07
2705.9	6.59786e-07
2714.46	4.10964e-07
2723.02	6.6047e-07
2731.58	-2.59008e-08
2740.13	-4.99827e-08
2748.69	-6.24922e-07
2757.25	1.91491e-08
2765.81	-8.41324e-07
2774.37	1.68981e-07
2782.92	-3.90185e-07
2791.48	4.46221e-07
2800.04	-2.80019e-07
2808.6	-1.7777e-07
2817.15	-2.17319e-07
2825.71	-5.8626e-08
2834.27	5.01922e-07
2842.83	-7.45739e-08
2851.38	-2.87062e-07
2859.94	-4.99521e-07
2868.5	1.58068e-07
2877.06	1.27624e-06
2885.61	-9.60584e-07
2894.17	3.58566e-07
2902.73	4.19142e-07
2911.29	-3.58871e-07
2919.85	1.40606e-07
2928.4	-8.39243e-07
2936.96	3.69057e-07
2945.52	2.32816e-08
2954.08	-6.54489e-07
2962.63	-1.29661e-06
2971.19	3.58653e-07
2979.75	-5.45051e-07
2988.31	-4.88623e-08
2996.86	4.7752e-07
3005.42	-1.48755e-07
3013.98	1.02523e-06
3022.54	7.52447e-07
3031.09	2.25249e-07
3039.65	-6.22492e-08
3048.21	-4.34027e-07
3056.77	2.5844e-07
3065.33	-1.07389e-06
3073.88	-7.05141e-08
3082.44	-4.86585e-08
3091	9.10311e-07
3099.56	-2.23867e-07
3108.11	7.13217e-07
3116.67	-6.57865e-07
3125.23	-2.37123e-07
3133.79	5.9192e-07
3142.34	-9.78846e-08
3150.9	2.91748e-07
3159.46	3.10038e-07
3168.02	3.98625e-07
3176.57	-4.4478e-07
3185.13	-1.0659e-06
3193.69	-1.89017e-07
3202.25	1.01048e-06
3210.81	3.68868e-08
3219.36	6.46239e-07
3227.92	-1.03162e-06
3236.48	1.41539e-06
3245.04	-6.79852e-07
3253.59	-3.55845e-07
3262.15	1.54444e-07
3270.71	-6.69026e-07
3279.27	1.24148e-06
3287.82	-1.12392e-07
3296.38	4.99463e-07
3304.94	-2.05416e-07
3313.5	-4.40313e-08
3322.05	2.22892e-07
3330.61	3.72695e-07
3339.17	-8.48614e-08
3347.73	9.58402e-07
3356.29	-1.52174e-07
3364.84	8.14565e-07
3373.4	-3.36346e-07
3381.96	1.05114e-06
3390.52	-3.98785e-07
3399.07	-1.25459e-07
3407.63	1.70232e-07
3416.19	1.13338e-07
3424.75	1.08114e-08
3433.3	5.75623e-07
3441.86	6.4004e-07
3450.42	-3.97868e-07
3458.98	-1.38085e-06
3467.53	-8.64038e-08
3476.09	-4.91489e-07
3484.65	-4.44373e-07
3493.21	2.47716e-07
3501.77	5.34211e-07
3510.32	1.89003e-07
3518.88	7.53451e-08
3527.44	1.99014e-07
3536	8.27457e-07
3544.55	7.00733e-07
3553.11	-4.46847e-07
3561.67	-3.24924e-07
3570.23	-4.58226e-07
3578.78	-4.88695e-07
3587.34	4.84112e-08
3595.9	-7.58951e-07
3604.46	3.94769e-07
3613.01	8.62874e-08
3621.57	1.96655e-06
3630.13	3.35357e-07
3638.69	-5.37223e-08
3647.25	-4.52827e-07
3655.8	-3.63018e-07
3664.36	3.39344e-07
3672.92	6.31804e-08
3681.48	5.53273e-07
3690.03	-3.8774e-07
3698.59	1.09233e-06
3707.15	1.36976e-06
3715.71	2.95982e-07
3724.26	7.60057e-07
3732.82	1.14892e-06
3741.38	-3.37554e-07
3749.94	3.52556e-07
3758.49	3.43695e-08
3767.05	3.33669e-07
3775.61	1.54241e-09
3784.17	8.78517e-07
3792.73	1.64607e-06
3801.28	-1.21444e-06
3809.84	2.58149e-07
3818.4	4.09334e-07
3826.96	1.18784e-06
3835.51	-9.16276e-08
3844.07	5.72204e-07
3852.63	6.29476e-08
3861.19	-1.11723e-07
3869.74	-3.96151e-07
3878.3	2.39204e-07
3886.86	7.89828e-08
3895.42	5.32246e-07
3903.97	1.07241e-07
3912.53	-3.27587e-07
3921.09	-6.62071e-08
3929.65	5.25015e-07
3938.21	1.41654e-07
3946.76	1.28558e-07
3955.32	3.52804e-07
3963.88	-2.476e-07
3972.44	1.04403e-07
