Infrared Spectrum: Dichlorodifluoromethane
Formula: C Cl2 F2
CAS: 75-71-8
State: gas
Melting point: -158 C
Boiling point: -29.8 C
Class: IUPAC A
Instrument: IFS66V (Bruker)
Instrument parameters: KBr Beam Splitter; MCT Detector; Multipass cell
Sampling: 1 L/min Flow
Resolution: 0.9640
Temperature: 23 C
Pressure: 101.3 Pa
Origin: NIST, Analytical Chemistry Division, 301-975-3108
cm-1	(micromol/mol)-1m-1 (base 10)
575.17	-2.53889e-06
583.848	6.71727e-07
592.526	-2.54701e-06
601.205	-5.48141e-07
609.883	2.39821e-07
618.561	-1.67057e-06
627.239	-2.5728e-07
635.917	-1.59544e-07
644.595	3.73068e-06
653.274	2.58232e-05
661.952	5.47075e-05
670.63	7.43187e-05
679.308	4.63815e-05
687.986	6.66883e-06
696.664	-1.98535e-07
705.343	8.74518e-07
714.021	9.6842e-07
722.699	1.17541e-06
731.377	1.29263e-06
740.055	5.80056e-07
748.734	1.29233e-06
757.412	9.88621e-07
766.09	1.03188e-06
774.768	-3.10564e-07
783.446	-5.62718e-07
792.124	-2.3363e-07
800.803	-5.43655e-07
809.481	-1.74717e-07
818.159	7.39927e-07
826.837	1.96813e-06
835.515	3.29863e-06
844.194	6.67694e-06
852.872	1.95494e-05
861.55	6.95121e-05
870.228	0.000204925
878.906	0.000398741
887.584	0.000503555
896.263	0.000330827
904.941	0.00047361
913.619	0.00157669
922.297	0.0029561
930.975	0.00189567
939.653	9.47614e-05
948.332	2.44644e-06
957.01	4.45657e-07
965.688	8.31624e-09
974.366	-1.70123e-07
983.044	-3.51574e-07
991.723	-5.57988e-07
1000.4	-5.44383e-07
1009.08	-6.03357e-07
1017.76	-5.9958e-07
1026.44	-1.43235e-07
1035.11	-1.48907e-07
1043.79	4.07696e-07
1052.47	2.70357e-06
1061.15	1.34369e-05
1069.83	4.76966e-05
1078.5	0.000215464
1087.18	0.000822226
1095.86	0.00146701
1104.54	0.00151194
1113.22	0.00101662
1121.9	0.000335568
1130.57	0.000262884
1139.25	0.000310295
1147.93	0.000887767
1156.61	0.00105399
1165.29	0.000615827
1173.96	0.000397194
1182.64	5.23987e-05
1191.32	8.08096e-06
1200	8.75333e-06
1208.68	7.76777e-06
1217.36	4.40803e-06
1226.03	7.8511e-06
1234.71	1.22775e-05
1243.39	1.90955e-05
1252.07	8.50188e-06
1260.75	1.30346e-06
1269.42	2.07797e-08
1278.1	-4.31444e-07
1286.78	-1.13099e-07
1295.46	3.44578e-07
1304.14	4.30884e-07
1312.82	1.31031e-06
1321.49	1.85043e-06
1330.17	2.30056e-06
1338.85	2.95925e-06
1347.53	3.90976e-06
1356.21	5.972e-06
1364.88	5.27144e-06
1373.56	7.17963e-06
1382.24	7.05506e-06
1390.92	5.01897e-06
1399.6	9.71759e-07
1408.28	2.62329e-07
1416.95	-2.88194e-08
1425.63	1.16413e-08
1434.31	-5.05668e-09
1442.99	1.79712e-09
1451.67	-5.05457e-07
1460.34	4.4899e-08
1469.02	1.15514e-06
1477.7	1.46664e-06
1486.38	6.27767e-07
1495.06	-1.23932e-07
1503.73	-2.28722e-07
1512.41	-1.67081e-07
1521.09	-6.64921e-07
1529.77	5.57181e-07
1538.45	4.88243e-08
1547.13	4.16583e-07
1555.8	4.65746e-07
1564.48	7.63795e-07
1573.16	2.12713e-06
1581.84	4.26427e-06
1590.52	4.64634e-06
1599.19	3.26391e-06
1607.87	-1.31623e-07
1616.55	-1.24358e-06
1625.23	-3.6849e-07
1633.91	-9.3545e-08
1642.59	-8.64147e-08
1651.26	-4.1427e-07
1659.94	-2.36253e-07
1668.62	-4.69911e-07
1677.3	-1.11312e-07
1685.98	-2.32316e-07
1694.65	-3.71539e-07
1703.33	-3.8342e-07
1712.01	-2.34652e-07
1720.69	-5.37354e-08
1729.37	-1.72054e-07
1738.05	1.03218e-07
1746.72	1.5991e-06
1755.4	2.87454e-06
1764.08	3.15062e-06
1772.76	1.14117e-06
1781.44	4.81905e-07
1790.11	1.11851e-06
1798.79	2.25628e-06
1807.47	2.43155e-06
1816.15	1.84251e-06
1824.83	1.52822e-06
1833.51	1.984e-06
1842.18	1.37976e-06
1850.86	7.87227e-07
1859.54	-7.8563e-07
1868.22	-7.55432e-07
1876.9	-4.0305e-07
1885.57	-1.36949e-07
1894.25	-2.00812e-07
1902.93	-2.33448e-07
1911.61	2.75389e-09
1920.29	-8.99798e-08
1928.97	-1.50849e-07
1937.64	-1.52202e-07
1946.32	-4.11155e-08
1955	-5.9094e-08
1963.68	7.94081e-08
1972.36	2.25954e-07
1981.03	-9.81505e-09
1989.71	2.41684e-07
1998.39	3.34057e-07
2007.07	5.65446e-07
2015.75	6.53723e-07
2024.43	2.77532e-07
2033.1	9.1817e-08
2041.78	2.1779e-07
2050.46	1.7435e-07
2059.14	1.73e-07
2067.82	5.03704e-08
2076.49	1.49369e-07
2085.17	2.05578e-07
2093.85	-1.51289e-07
2102.53	-6.88582e-08
2111.21	-8.04558e-08
2119.89	-2.20202e-07
2128.56	-7.27143e-08
2137.24	2.1882e-08
2145.92	-5.30078e-08
2154.6	-2.25208e-07
2163.28	6.33722e-09
2171.95	9.48029e-07
2180.63	3.41775e-06
2189.31	6.91249e-06
2197.99	6.1077e-06
2206.67	3.79933e-06
2215.35	1.94831e-06
2224.02	4.28084e-06
2232.7	1.04608e-05
2241.38	1.58096e-05
2250.06	3.29561e-05
2258.74	8.6007e-06
2267.41	2.17708e-06
2276.09	1.74465e-06
2284.77	4.88715e-07
2293.45	1.34435e-06
2302.13	3.97368e-06
2310.81	4.16548e-06
2319.48	4.77713e-06
2328.16	1.52262e-06
2336.84	-2.22199e-07
2345.52	-5.72002e-07
2354.2	-2.20711e-08
2362.87	7.78551e-07
2371.55	7.28599e-07
2380.23	3.00461e-07
2388.91	7.43223e-09
2397.59	2.12435e-07
2406.27	2.08859e-07
2414.94	2.14833e-07
2423.62	4.81658e-09
2432.3	1.88632e-07
2440.98	2.57014e-07
2449.66	3.38336e-07
2458.33	1.77424e-07
2467.01	2.02889e-07
2475.69	1.98888e-07
2484.37	6.45473e-08
2493.05	5.79772e-08
2501.73	-2.01656e-07
2510.4	3.41206e-07
2519.08	1.42151e-07
2527.76	-1.09435e-07
2536.44	1.67911e-07
2545.12	9.97367e-08
2553.79	1.60079e-07
2562.47	1.27767e-07
2571.15	2.50513e-07
2579.83	9.46873e-08
2588.51	3.31409e-07
2597.19	-1.21153e-07
2605.86	1.25784e-07
2614.54	7.16775e-08
2623.22	-2.84204e-07
2631.9	1.83336e-07
2640.58	1.718e-07
2649.25	1.27861e-07
2657.93	1.85795e-07
2666.61	-6.80651e-09
2675.29	1.09257e-07
2683.97	2.78685e-07
2692.65	2.04465e-07
2701.32	-2.89279e-07
2710	2.02846e-07
2718.68	1.60257e-07
2727.36	7.92589e-08
2736.04	-2.08615e-07
2744.71	-1.46651e-07
2753.39	9.12785e-08
2762.07	7.63341e-08
2770.75	-1.95184e-07
2779.43	-3.16839e-07
2788.11	-1.30615e-07
2796.78	-3.51883e-07
2805.46	-1.35788e-07
2814.14	-2.99075e-07
2822.82	-2.30243e-07
2831.5	-6.31045e-07
2840.17	-3.34487e-07
2848.85	-2.232e-07
2857.53	-3.22209e-08
2866.21	3.3393e-07
2874.89	-3.02837e-07
2883.57	-6.86836e-08
2892.24	-4.53144e-07
2900.92	-1.48346e-07
2909.6	-3.93261e-07
2918.28	-5.20329e-08
2926.96	-4.65658e-07
2935.63	-3.22463e-08
2944.31	-2.78612e-07
2952.99	-2.48156e-07
2961.67	-4.90946e-07
2970.35	-7.84404e-08
2979.03	-3.59799e-07
2987.7	1.03178e-07
2996.38	-1.85722e-07
3005.06	-2.68844e-07
3013.74	-1.44512e-07
3022.42	3.30045e-07
3031.09	1.41711e-07
3039.77	-2.23647e-07
3048.45	1.16962e-07
3057.13	-8.20528e-08
3065.81	-4.59085e-07
3074.49	-1.9131e-07
3083.16	-2.49633e-08
3091.84	4.61977e-08
3100.52	1.30539e-07
3109.2	-1.70759e-07
3117.88	2.41047e-08
3126.55	8.88193e-08
3135.23	1.78806e-07
3143.91	4.21051e-08
3152.59	-1.05354e-07
3161.27	-2.4817e-07
3169.95	1.81695e-07
3178.62	2.63348e-07
3187.3	1.17941e-08
3195.98	-4.60871e-07
3204.66	-1.9697e-07
3213.34	-7.09027e-08
3222.01	-5.68207e-07
3230.69	-1.16613e-07
3239.37	-4.42754e-07
3248.05	9.92055e-09
3256.73	-3.35895e-07
3265.41	-1.49598e-07
3274.08	-9.07365e-08
3282.76	4.66975e-07
3291.44	-2.50397e-08
3300.12	1.44938e-07
3308.8	-2.75593e-07
3317.47	2.72461e-07
3326.15	3.40922e-07
3334.83	-1.51057e-07
3343.51	-3.0789e-07
3352.19	-1.07082e-07
3360.86	1.40052e-07
3369.54	8.56325e-08
3378.22	-1.44643e-07
3386.9	-5.03776e-08
3395.58	-1.41682e-07
3404.26	-3.01487e-07
3412.93	-2.42975e-08
3421.61	-3.74271e-07
3430.29	-5.64809e-07
3438.97	2.86808e-07
3447.65	-2.57574e-07
3456.32	4.44661e-08
3465	2.20442e-07
3473.68	-1.11283e-08
3482.36	-7.04196e-07
3491.04	-8.3759e-08
3499.72	2.56959e-07
3508.39	-6.04182e-07
3517.07	-7.31483e-07
3525.75	-8.01138e-08
3534.43	3.309e-07
3543.11	5.44514e-07
3551.78	-1.46738e-07
3560.46	1.68198e-07
3569.14	-2.29704e-07
3577.82	3.33421e-07
3586.5	2.63981e-07
3595.18	4.64061e-07
3603.85	3.87014e-07
3612.53	1.34661e-07
3621.21	2.41266e-07
3629.89	4.83877e-08
3638.57	2.13228e-07
3647.24	-2.0142e-07
3655.92	-5.51204e-07
3664.6	4.79763e-07
3673.28	-3.72899e-07
3681.96	8.07104e-08
3690.64	-1.02651e-07
3699.31	3.08225e-07
3707.99	2.76364e-07
3716.67	4.73218e-07
3725.35	3.96276e-07
3734.03	3.75824e-07
3742.7	2.44852e-07
3751.38	-9.7161e-08
3760.06	2.54198e-07
3768.74	9.84005e-07
3777.42	5.67134e-07
3786.1	2.18634e-07
3794.77	2.54307e-07
3803.45	3.07323e-07
3812.13	3.73747e-07
3820.81	-7.95099e-08
3829.49	1.57128e-07
3838.16	-8.31835e-07
3846.84	1.4863e-07
3855.52	1.29426e-07
3864.2	1.46957e-07
3872.88	2.97959e-07
3881.56	1.00599e-07
3890.23	-2.06476e-07
3898.91	-1.63909e-07
3907.59	3.1593e-07
3916.27	4.40404e-08
3924.95	1.67958e-07
3933.62	2.67829e-07
3942.3	1.22208e-07
3950.98	5.987e-07
3959.66	1.60941e-08
3968.34	4.28159e-07
