Infrared Spectrum: Dichlorodifluoromethane
Formula: C Cl2 F2
CAS: 75-71-8
State: gas
Melting point: -158 C
Boiling point: -29.8 C
Class: IUPAC A
Instrument: IFS66V (Bruker)
Instrument parameters: KBr Beam Splitter; MCT Detector; Multipass cell
Sampling: 1 L/min Flow
Resolution: 1.9290
Temperature: 23 C
Pressure: 101.3 Pa
Origin: NIST, Analytical Chemistry Division, 301-975-3108
cm-1	(micromol/mol)-1m-1 (base 10)
575.652	-1.17378e-06
584.33	-7.52318e-07
593.008	-1.64965e-06
601.687	-4.97199e-07
610.365	4.34573e-07
619.043	-8.6323e-07
627.721	-1.04324e-07
636.399	6.05328e-07
645.077	5.14069e-06
653.756	2.75024e-05
662.434	5.7698e-05
671.112	6.69183e-05
679.79	4.2468e-05
688.468	6.70354e-06
697.146	6.51635e-07
705.825	1.14097e-06
714.503	1.43689e-06
723.181	1.21907e-06
731.859	1.55971e-06
740.537	1.07886e-06
749.216	1.81744e-06
757.894	1.26807e-06
766.572	1.43754e-06
775.25	3.68741e-07
783.928	3.28535e-07
792.606	-6.95385e-08
801.285	2.25193e-07
809.963	1.52635e-07
818.641	1.10444e-06
827.319	3.53295e-06
835.997	5.20234e-06
844.676	9.29027e-06
853.354	2.3969e-05
862.032	7.79075e-05
870.71	0.000217732
879.388	0.000397291
888.066	0.000535256
896.745	0.000331674
905.423	0.000531203
914.101	0.00155898
922.779	0.00265716
931.457	0.0017262
940.135	0.000105138
948.814	1.22818e-05
957.492	5.80459e-06
966.17	3.50413e-06
974.848	2.3398e-06
983.526	1.63492e-06
992.205	1.14992e-06
1000.88	1.11943e-06
1009.56	8.85694e-07
1018.24	8.76356e-07
1026.92	1.52663e-06
1035.6	1.9486e-06
1044.27	3.10761e-06
1052.95	6.48299e-06
1061.63	1.90891e-05
1070.31	5.9791e-05
1078.99	0.000247855
1087.66	0.00086017
1096.34	0.00148923
1105.02	0.00141537
1113.7	0.000948493
1122.38	0.000334695
1131.06	0.000254889
1139.73	0.000343041
1148.41	0.000892535
1157.09	0.00114251
1165.77	0.000641615
1174.45	0.000369485
1183.12	5.53443e-05
1191.8	1.2339e-05
1200.48	1.17345e-05
1209.16	7.93324e-06
1217.84	6.10469e-06
1226.52	9.40393e-06
1235.19	1.382e-05
1243.87	1.62947e-05
1252.55	8.77603e-06
1261.23	1.77367e-06
1269.91	3.97277e-07
1278.58	1.9935e-07
1287.26	4.33416e-07
1295.94	7.02646e-07
1304.62	9.65459e-07
1313.3	1.44223e-06
1321.98	2.25696e-06
1330.65	2.59124e-06
1339.33	3.24841e-06
1348.01	4.14822e-06
1356.69	5.77143e-06
1365.37	5.68365e-06
1374.04	7.35276e-06
1382.72	7.11885e-06
1391.4	4.91963e-06
1400.08	1.0548e-06
1408.76	4.60213e-07
1417.44	2.12493e-07
1426.11	1.42977e-07
1434.79	1.43599e-07
1443.47	9.69173e-08
1452.15	-3.38245e-07
1460.83	2.77699e-07
1469.5	1.04391e-06
1478.18	1.62282e-06
1486.86	5.65271e-07
1495.54	-4.33088e-07
1504.22	-3.00712e-07
1512.9	3.45892e-08
1521.57	-1.95006e-07
1530.25	6.43865e-07
1538.93	-1.59835e-07
1547.61	5.84858e-07
1556.29	4.45301e-07
1564.96	8.13591e-07
1573.64	2.30493e-06
1582.32	4.42186e-06
1591	4.32872e-06
1599.68	2.93224e-06
1608.36	-5.11853e-08
1617.03	-7.19107e-07
1625.71	-2.1743e-07
1634.39	-4.09533e-07
1643.07	-3.77432e-08
1651.75	-8.14511e-07
1660.42	-2.19726e-07
1669.1	-4.62268e-07
1677.78	-1.47419e-07
1686.46	-1.50595e-07
1695.14	-8.03321e-07
1703.82	-3.45906e-07
1712.49	-2.04232e-07
1721.17	-1.09283e-08
1729.85	-1.94446e-08
1738.53	1.86679e-07
1747.21	1.57631e-06
1755.88	2.86911e-06
1764.56	3.12826e-06
1773.24	1.57099e-06
1781.92	5.7839e-07
1790.6	1.19951e-06
1799.28	2.19555e-06
1807.95	2.33011e-06
1816.63	1.92041e-06
1825.31	1.53793e-06
1833.99	1.78435e-06
1842.67	1.4759e-06
1851.34	6.88163e-07
1860.02	-6.6081e-07
1868.7	-6.794e-07
1877.38	-3.48253e-07
1886.06	-7.47879e-08
1894.74	-2.07349e-07
1903.41	-8.1489e-08
1912.09	-9.28392e-09
1920.77	-3.11441e-08
1929.45	-8.29841e-08
1938.13	-9.0973e-08
1946.8	-5.80318e-08
1955.48	6.04692e-08
1964.16	1.36592e-07
1972.84	2.53674e-07
1981.52	1.31328e-08
1990.19	1.73171e-07
1998.87	2.77048e-07
2007.55	5.91028e-07
2016.23	5.73544e-07
2024.91	2.44922e-07
2033.59	1.86326e-07
2042.26	1.95603e-07
2050.94	2.79907e-07
2059.62	2.33881e-07
2068.3	7.42022e-08
2076.98	5.41174e-08
2085.65	1.16871e-07
2094.33	-4.7038e-09
2103.01	-7.41259e-08
2111.69	-8.7044e-08
2120.37	-9.2228e-08
2129.05	-5.78462e-08
2137.72	2.76844e-09
2146.4	9.30829e-08
2155.08	-2.72937e-07
2163.76	3.41053e-08
2172.44	1.07952e-06
2181.11	3.70373e-06
2189.79	7.07017e-06
2198.47	6.33492e-06
2207.15	3.67071e-06
2215.83	2.26674e-06
2224.51	4.68051e-06
2233.18	1.06872e-05
2241.86	1.55885e-05
2250.54	2.18097e-05
2259.22	8.17835e-06
2267.9	2.20817e-06
2276.57	1.80129e-06
2285.25	5.89016e-07
2293.93	1.47444e-06
2302.61	4.14973e-06
2311.29	5.42717e-06
2319.97	4.52079e-06
2328.64	1.48892e-06
2337.32	-8.89285e-08
2346	-4.20843e-07
2354.68	-3.77541e-08
2363.36	6.51861e-07
2372.03	4.87188e-07
2380.71	2.16979e-07
2389.39	1.21371e-07
2398.07	2.74108e-07
2406.75	2.80569e-07
2415.43	3.45659e-07
2424.1	5.19128e-09
2432.78	1.77599e-07
2441.46	2.12915e-07
2450.14	2.936e-07
2458.82	2.37551e-07
2467.49	1.49783e-07
2476.17	6.17606e-08
2484.85	7.53409e-08
2493.53	-1.58976e-09
2502.21	3.9875e-08
2510.89	1.96174e-07
2519.56	2.41189e-07
2528.24	-7.86878e-09
2536.92	2.29293e-07
2545.6	1.33835e-07
2554.28	8.41701e-08
2562.95	2.14716e-07
2571.63	1.86963e-07
2580.31	4.32765e-08
2588.99	2.37515e-07
2597.67	7.62504e-09
2606.35	1.13528e-07
2615.02	6.87927e-08
2623.7	-2.30003e-07
2632.38	2.19555e-07
2641.06	2.36493e-07
2649.74	1.86366e-07
2658.41	8.92377e-08
2667.09	-6.80287e-09
2675.77	1.20393e-07
2684.45	1.96963e-07
2693.13	1.70377e-07
2701.81	-6.80251e-08
2710.48	1.91739e-07
2719.16	5.61765e-08
2727.84	4.961e-08
2736.52	-3.07584e-08
2745.2	-1.44388e-08
2753.87	-1.20451e-08
2762.55	2.20722e-07
2771.23	-1.85486e-07
2779.91	-1.56684e-07
2788.59	-4.25889e-08
2797.27	-3.86611e-07
2805.94	-6.4911e-08
2814.62	-2.93029e-07
2823.3	-1.76034e-07
2831.98	-4.47331e-07
2840.66	-1.84118e-07
2849.33	-2.90261e-07
2858.01	-3.01982e-08
2866.69	1.50995e-07
2875.37	-2.90574e-07
2884.05	-2.19143e-07
2892.73	-2.38523e-07
2901.4	-5.03158e-08
2910.08	-2.81723e-07
2918.76	-2.01903e-08
2927.44	-1.97818e-07
2936.12	1.81895e-10
2944.79	-8.40209e-08
2953.47	-1.90164e-07
2962.15	-4.04913e-07
2970.83	5.39137e-08
2979.51	-2.60474e-07
2988.19	-9.042e-08
2996.86	-4.44588e-08
3005.54	-2.40894e-07
3014.22	4.0137e-08
3022.9	2.53085e-07
3031.58	1.54141e-07
3040.25	-1.08682e-07
3048.93	1.1534e-07
3057.61	-4.91844e-08
3066.29	-3.86763e-07
3074.97	-1.46607e-08
3083.65	2.47632e-08
3092.32	2.49051e-08
3101	1.167e-07
3109.68	-2.43059e-07
3118.36	-8.86738e-08
3127.04	1.82732e-07
3135.71	1.40168e-07
3144.39	-1.6909e-08
3153.07	6.28447e-08
3161.75	-2.22159e-07
3170.43	2.24786e-08
3179.11	1.48001e-07
3187.78	9.24572e-08
3196.46	-4.60427e-07
3205.14	-1.51748e-07
3213.82	-1.23256e-07
3222.5	-4.06099e-07
3231.17	-2.64861e-07
3239.85	-1.64764e-07
3248.53	-6.83816e-08
3257.21	-1.49707e-07
3265.89	-2.29475e-07
3274.57	1.01898e-08
3283.24	3.0164e-07
3291.92	1.09184e-07
3300.6	-1.40507e-07
3309.28	-2.59739e-07
3317.96	3.4337e-07
3326.63	3.36895e-07
3335.31	4.99193e-08
3343.99	-2.61994e-07
3352.67	-1.7889e-07
3361.35	1.24132e-07
3370.03	-2.19369e-07
3378.7	1.50936e-07
3387.38	-1.93816e-07
3396.06	1.5603e-07
3404.74	-1.91761e-07
3413.42	-2.11511e-07
3422.09	-2.84331e-07
3430.77	-1.7722e-07
3439.45	2.04392e-07
3448.13	-5.79008e-08
3456.81	1.65601e-07
3465.49	2.86121e-08
3474.16	-1.82368e-07
3482.84	-3.84846e-07
3491.52	-1.41183e-07
3500.2	1.84543e-07
3508.88	-4.60092e-07
3517.55	-5.38951e-07
3526.23	-9.41634e-08
3534.91	1.02407e-07
3543.59	5.06814e-07
3552.27	-1.7391e-07
3560.95	1.89891e-07
3569.62	-8.75861e-08
3578.3	1.41907e-07
3586.98	1.10596e-07
3595.66	2.63719e-07
3604.34	3.59523e-07
3613.01	2.46933e-07
3621.69	3.34316e-07
3630.37	2.91003e-07
3639.05	3.66551e-07
3647.73	6.65627e-08
3656.41	-2.00186e-07
3665.08	4.08296e-07
3673.76	-3.90161e-07
3682.44	6.47692e-08
3691.12	7.67124e-08
3699.8	2.73134e-07
3708.47	4.53559e-07
3717.15	5.52157e-07
3725.83	3.11819e-07
3734.51	9.56331e-08
3743.19	1.01861e-09
3751.87	-4.13265e-07
3760.54	3.61436e-07
3769.22	6.56746e-07
3777.9	4.63192e-07
3786.58	3.17316e-07
3795.26	5.12653e-07
3803.93	1.98764e-07
3812.61	1.73109e-07
3821.29	1.4529e-07
3829.97	2.21188e-07
3838.65	-2.0764e-07
3847.33	1.84114e-08
3856	2.94142e-07
3864.68	1.54553e-07
3873.36	1.29535e-07
3882.04	2.82436e-07
3890.72	-2.34488e-07
3899.39	-1.76802e-09
3908.07	2.70929e-07
3916.75	8.42137e-08
3925.43	1.82102e-07
3934.11	2.63275e-07
3942.79	2.79467e-07
3951.46	3.36913e-07
3960.14	1.74819e-07
3968.82	2.59699e-07
