Infrared Spectrum: Carbon tetrafluoride
Formula: C F4
CAS: 75-73-0
State: gas
Melting point: -150 C
Boiling point: -129 C
Class: IUPAC A
Instrument: IFS66V (Bruker)
Instrument parameters: KBr Beam Splitter; MCT Detector; Multipass cell
Sampling: 1 L/min Flow
Resolution: 0.1250
Temperature: 23 C
Pressure: 101.3 Pa
Origin: NIST, Analytical Chemistry Division, 301-975-3108
cm-1	(micromol/mol)-1m-1 (base 10)
575.048	-0.000220621
583.606	-3.48491e-05
592.163	-3.96895e-05
600.721	-1.51554e-05
609.278	-5.96226e-05
617.836	-6.47432e-05
626.394	-3.28053e-05
634.951	-6.04202e-05
643.509	3.7296e-05
652.067	-1.9376e-05
660.624	-3.22252e-05
669.182	-1.00468e-05
677.739	-2.81584e-06
686.297	-7.04721e-05
694.855	-3.25272e-05
703.412	-7.05633e-05
711.97	-4.01248e-05
720.528	-3.30149e-05
729.085	-1.74338e-05
737.643	-6.0724e-05
746.2	-3.52547e-05
754.758	-3.97314e-05
763.316	-2.58012e-05
771.873	-2.19897e-05
780.431	-5.70082e-05
788.988	-7.25497e-05
797.546	-5.66303e-05
806.104	-5.40288e-05
814.661	-3.60333e-05
823.219	-3.87009e-05
831.777	-5.18139e-05
840.334	-5.24803e-05
848.892	-2.25106e-05
857.449	-5.89416e-05
866.007	-2.47204e-05
874.565	-8.58431e-06
883.122	-1.52371e-05
891.68	-2.32111e-05
900.238	-3.56982e-05
908.795	-8.40073e-06
917.353	-6.81768e-05
925.91	-1.23485e-05
934.468	-1.3104e-05
943.026	-1.07612e-05
951.583	-3.52133e-05
960.141	-1.94017e-05
968.698	-4.51879e-05
977.256	-3.29297e-05
985.814	-1.10642e-05
994.371	-5.3058e-05
1002.93	-3.8755e-05
1011.49	-2.67306e-05
1020.04	-4.29888e-05
1028.6	-3.98204e-05
1037.16	-2.24732e-05
1045.72	-4.48014e-05
1054.27	-2.34674e-05
1062.83	-4.26134e-05
1071.39	-3.26588e-06
1079.95	-5.37288e-05
1088.51	-3.4955e-05
1097.06	-5.12113e-05
1105.62	2.03718e-06
1114.18	-3.66059e-05
1122.74	-3.50614e-05
1131.29	-4.38691e-06
1139.85	-2.6075e-05
1148.41	-3.94774e-05
1156.97	-3.26432e-05
1165.52	-5.16154e-05
1174.08	-2.35523e-05
1182.64	-2.93858e-05
1191.2	-3.36822e-05
1199.75	-4.10462e-05
1208.31	-3.37135e-05
1216.87	-2.7015e-05
1225.43	-2.52796e-05
1233.98	1.87245e-06
1242.54	7.21752e-05
1251.1	0.000145035
1259.66	0.000380208
1268.22	0.000904624
1276.77	0.0072457
1285.33	0.0168611
1293.89	5.66957e-05
1302.45	-2.72246e-05
1311	-1.44403e-05
1319.56	-2.57711e-05
1328.12	-2.45586e-05
1336.68	-1.87258e-05
1345.23	-3.58354e-05
1353.79	-4.06074e-05
1362.35	-4.02546e-05
1370.91	-3.38519e-05
1379.46	-2.84929e-05
1388.02	-3.58152e-05
1396.58	-2.32142e-05
1405.14	-3.76607e-05
1413.69	-2.05886e-05
1422.25	-2.09973e-05
1430.81	-3.01263e-05
1439.37	-3.53183e-05
1447.93	2.50968e-06
1456.48	3.38619e-05
1465.04	-1.35115e-05
1473.6	1.41694e-05
1482.16	-4.36688e-05
1490.71	-2.53215e-06
1499.27	-2.24684e-05
1507.83	-1.7989e-05
1516.39	-2.73482e-06
1524.94	-4.27574e-07
1533.5	-2.87001e-05
1542.06	4.03621e-05
1550.62	-1.61004e-05
1559.17	-9.62804e-06
1567.73	-2.33163e-05
1576.29	4.77066e-05
1584.85	-3.14419e-05
1593.4	-3.20196e-05
1601.96	-2.51862e-05
1610.52	-2.96584e-05
1619.08	-3.22081e-05
1627.64	-2.6068e-05
1636.19	-2.43618e-05
1644.75	-3.68353e-05
1653.31	0.000116257
1661.87	-2.97394e-05
1670.42	-4.15417e-05
1678.98	-2.71276e-05
1687.54	-3.45303e-05
1696.1	3.03963e-05
1704.65	-1.8607e-05
1713.21	-1.67535e-05
1721.77	-4.32601e-05
1730.33	-2.8848e-05
1738.88	-2.52937e-05
1747.44	-2.37961e-05
1756	-3.22826e-05
1764.56	-3.25636e-05
1773.11	-2.49319e-05
1781.67	-2.41014e-05
1790.23	-2.29267e-05
1798.79	-2.89977e-05
1807.35	-2.31668e-05
1815.9	-2.35417e-05
1824.46	-2.27839e-05
1833.02	-2.75097e-05
1841.58	-2.34147e-05
1850.13	-3.91313e-05
1858.69	-3.0724e-05
1867.25	-4.13108e-05
1875.81	-2.17764e-05
1884.36	-4.04439e-05
1892.92	-2.02858e-05
1901.48	-1.31735e-05
1910.04	-1.69124e-05
1918.59	-9.94956e-06
1927.15	-3.46157e-05
1935.71	-2.78705e-05
1944.27	-2.80222e-05
1952.82	-2.75612e-05
1961.38	-3.20949e-05
1969.94	-3.48332e-05
1978.5	-3.46479e-05
1987.06	-2.69593e-05
1995.61	-2.5655e-05
2004.17	-3.98667e-05
2012.73	-3.55189e-05
2021.29	-2.56891e-05
2029.84	-2.38187e-05
2038.4	-2.38318e-05
2046.96	-2.18152e-05
2055.52	-3.92098e-05
2064.07	-3.8103e-05
2072.63	-3.51623e-05
2081.19	-2.43832e-05
2089.75	-2.53824e-05
2098.3	-1.90964e-05
2106.86	-3.02544e-05
2115.42	-3.64483e-05
2123.98	-3.4276e-05
2132.53	-9.5547e-06
2141.09	-3.69689e-05
2149.65	-1.65132e-05
2158.21	-3.4289e-05
2166.77	-2.45527e-05
2175.32	-8.17547e-07
2183.88	6.91427e-05
2192.44	-1.92951e-05
2201	-3.12383e-05
2209.55	-3.46442e-05
2218.11	-2.93742e-05
2226.67	-2.43956e-05
2235.23	-1.85695e-05
2243.78	-2.42432e-05
2252.34	-3.41648e-05
2260.9	-3.92812e-05
2269.46	-1.99533e-05
2278.01	-1.66537e-05
2286.57	-1.96854e-05
2295.13	-2.16632e-05
2303.69	-5.40508e-05
2312.24	-1.90136e-05
2320.8	-1.44673e-05
2329.36	-2.4556e-05
2337.92	-1.30439e-05
2346.48	-3.05913e-05
2355.03	-2.20552e-05
2363.59	-3.05367e-05
2372.15	-2.27661e-05
2380.71	-8.6346e-06
2389.26	-2.89905e-05
2397.82	-1.71862e-05
2406.38	-3.15876e-05
2414.94	-2.5559e-05
2423.49	-2.54393e-05
2432.05	-2.30627e-05
2440.61	-3.57239e-05
2449.17	-2.08944e-05
2457.72	-1.27978e-05
2466.28	-1.72956e-05
2474.84	-2.25445e-05
2483.4	-2.55206e-05
2491.95	-2.29847e-05
2500.51	-3.77377e-05
2509.07	-2.58583e-05
2517.63	-3.0607e-05
2526.19	-4.19109e-05
2534.74	-1.72582e-05
2543.3	-2.40871e-05
2551.86	-6.27994e-05
2560.42	-0.000138044
2568.97	-0.000136669
2577.53	-3.3719e-05
2586.09	-1.21527e-05
2594.65	-1.24397e-05
2603.2	-6.18801e-06
2611.76	-1.95065e-05
2620.32	-1.35634e-05
2628.88	-3.50295e-05
2637.43	-3.23077e-05
2645.99	-2.48682e-05
2654.55	-4.19067e-05
2663.11	-3.69954e-05
2671.66	-1.93125e-05
2680.22	-3.81777e-05
2688.78	-2.09517e-05
2697.34	-2.9671e-05
2705.9	-8.07664e-06
2714.45	-2.80754e-05
2723.01	-3.04063e-05
2731.57	-4.26949e-05
2740.13	-2.93088e-05
2748.68	-1.11167e-05
2757.24	-2.2091e-05
2765.8	-3.15778e-05
2774.36	-2.87518e-05
2782.91	-1.56734e-05
2791.47	-1.93712e-05
2800.03	-2.9652e-05
2808.59	-3.94853e-05
2817.14	-3.23489e-05
2825.7	-2.59715e-05
2834.26	-2.43598e-05
2842.82	-3.66881e-05
2851.37	-1.7521e-05
2859.93	-1.82338e-05
2868.49	-1.82639e-05
2877.05	-2.29065e-05
2885.61	-2.32465e-05
2894.16	-1.28496e-05
2902.72	-3.45882e-05
2911.28	-4.60509e-05
2919.84	-2.31995e-05
2928.39	-3.94486e-05
2936.95	-1.94762e-05
2945.51	-2.6751e-05
2954.07	-3.66439e-05
2962.62	-2.59661e-05
2971.18	-1.89448e-05
2979.74	-3.00567e-05
2988.3	8.05557e-06
2996.85	-2.22609e-05
3005.41	-2.07164e-05
3013.97	-1.09345e-05
3022.53	-2.16974e-05
3031.08	-4.33285e-05
3039.64	-2.69656e-05
3048.2	-2.9068e-05
3056.76	-2.3093e-05
3065.32	-3.8657e-05
3073.87	-2.70165e-05
3082.43	-2.04517e-05
3090.99	-2.43501e-05
3099.55	-3.44246e-05
3108.1	-4.3101e-05
3116.66	-3.31806e-05
3125.22	-2.77028e-05
3133.78	-5.01878e-06
3142.33	-2.26821e-05
3150.89	-4.27841e-05
3159.45	-6.3781e-07
3168.01	-4.46286e-05
3176.56	-2.13506e-05
3185.12	-4.12286e-05
3193.68	3.39568e-06
3202.24	-1.01883e-05
3210.79	-1.54207e-05
3219.35	-3.78892e-05
3227.91	-1.66838e-05
3236.47	-4.3174e-05
3245.03	-1.47714e-05
3253.58	-7.09403e-06
3262.14	-2.10262e-05
3270.7	-2.5904e-05
3279.26	-4.81752e-05
3287.81	-3.39365e-05
3296.37	-1.95523e-05
3304.93	-1.41106e-05
3313.49	-3.07975e-05
3322.04	-1.91058e-05
3330.6	-1.74798e-05
3339.16	-1.46427e-05
3347.72	-3.90315e-05
3356.27	-1.64298e-05
3364.83	-4.29982e-05
3373.39	-3.23687e-05
3381.95	4.57282e-06
3390.5	-2.30704e-05
3399.06	-2.55186e-05
3407.62	-1.96714e-05
3416.18	-2.46445e-05
3424.74	-8.70328e-06
3433.29	-5.05133e-05
3441.85	-2.37806e-05
3450.41	-5.64135e-06
3458.97	-1.20157e-05
3467.52	-1.80994e-05
3476.08	-2.62246e-05
3484.64	-1.04166e-05
3493.2	1.32278e-05
3501.75	-3.099e-05
3510.31	-5.44054e-06
3518.87	2.91223e-06
3527.43	-3.41502e-05
3535.98	-1.43476e-05
3544.54	-6.991e-06
3553.1	-1.66678e-05
3561.66	-3.67367e-06
3570.21	-8.22146e-06
3578.77	-4.74734e-05
3587.33	-3.2889e-05
3595.89	-3.00098e-05
3604.45	-4.15552e-05
3613	-2.9715e-05
3621.56	-2.45726e-05
3630.12	-4.69312e-05
3638.68	-2.16618e-05
3647.23	8.33519e-06
3655.79	-2.47765e-05
3664.35	-1.89176e-05
3672.91	-3.31989e-05
3681.46	-5.11826e-05
3690.02	-2.94686e-05
3698.58	-1.87921e-05
3707.14	-3.29013e-05
3715.69	-2.87573e-05
3724.25	-3.50476e-06
3732.81	-3.88559e-05
3741.37	-2.54757e-05
3749.92	-4.09635e-06
3758.48	-2.5921e-05
3767.04	-1.427e-05
3775.6	-9.91813e-08
3784.16	-2.86804e-05
3792.71	-2.38687e-05
3801.27	2.79917e-05
3809.83	-2.4168e-05
3818.39	5.72167e-06
3826.94	-3.20595e-05
3835.5	-3.10401e-05
3844.06	-3.0809e-05
3852.62	-1.20309e-05
3861.17	-5.08017e-05
3869.73	-1.1659e-05
3878.29	-2.74258e-05
3886.85	-2.9197e-05
3895.4	-4.76139e-05
3903.96	3.88542e-06
3912.52	-8.89861e-06
3921.08	-3.48175e-05
3929.63	-3.35426e-05
3938.19	-2.20171e-05
3946.75	-2.95769e-05
3955.31	-1.37949e-05
3963.87	-3.73846e-05
3972.42	-9.32328e-06
