Infrared Spectrum: Carbon tetrafluoride
Formula: C F4
CAS: 75-73-0
State: gas
Melting point: -150 C
Boiling point: -129 C
Class: IUPAC A
Instrument: IFS66V (Bruker)
Instrument parameters: KBr Beam Splitter; MCT Detector; Multipass cell
Sampling: 1 L/min Flow
Resolution: 1.9290
Temperature: 23 C
Pressure: 101.3 Pa
Origin: NIST, Analytical Chemistry Division, 301-975-3108
cm-1	(micromol/mol)-1m-1 (base 10)
575.65	-5.2821e-05
584.328	1.18597e-05
593.006	-3.15034e-05
601.684	-2.19034e-05
610.363	-1.30653e-05
619.041	-1.28016e-05
627.719	-3.10353e-05
636.397	-3.08617e-05
645.075	-5.52803e-06
653.753	-2.1228e-06
662.431	-3.28856e-05
671.11	-3.26193e-05
679.788	-3.43399e-05
688.466	-4.60364e-05
697.144	-3.65039e-05
705.822	-2.02639e-05
714.5	-2.54554e-05
723.179	-2.16488e-05
731.857	-3.1393e-05
740.535	-2.6776e-05
749.213	-2.83436e-05
757.891	-2.70327e-05
766.569	-2.88206e-05
775.247	-3.01423e-05
783.926	-3.66606e-05
792.604	-3.07966e-05
801.282	-3.48502e-05
809.96	-3.55841e-05
818.638	-3.42052e-05
827.316	-3.51436e-05
835.994	-3.68828e-05
844.673	-3.51235e-05
853.351	-3.23705e-05
862.029	-2.67288e-05
870.707	-3.21443e-05
879.385	-2.73353e-05
888.063	-3.51186e-05
896.742	-2.85293e-05
905.42	-3.84752e-05
914.098	-3.43889e-05
922.776	-3.34615e-05
931.454	-3.1549e-05
940.132	-3.61583e-05
948.81	-2.92546e-05
957.489	-3.51161e-05
966.167	-2.99018e-05
974.845	-3.02809e-05
983.523	-3.2819e-05
992.201	-3.23716e-05
1000.88	-2.76542e-05
1009.56	-3.04423e-05
1018.24	-2.93879e-05
1026.91	-2.9853e-05
1035.59	-3.15944e-05
1044.27	-2.88865e-05
1052.95	-2.38022e-05
1061.63	-2.22504e-05
1070.3	-2.55631e-05
1078.98	-2.95459e-05
1087.66	-3.07512e-05
1096.34	-2.78578e-05
1105.02	-2.762e-05
1113.7	-3.05137e-05
1122.37	-2.67131e-05
1131.05	-3.34681e-05
1139.73	-3.04098e-05
1148.41	-2.80442e-05
1157.09	-3.0762e-05
1165.76	-3.05203e-05
1174.44	-2.47645e-05
1183.12	-3.06698e-05
1191.8	-2.92897e-05
1200.48	-2.85506e-05
1209.15	-2.83282e-05
1217.83	-2.8807e-05
1226.51	-2.52252e-05
1235.19	4.22635e-05
1243.87	0.000185551
1252.55	0.000227021
1261.22	0.000624812
1269.9	0.00116519
1278.58	0.0125047
1287.26	0.00427802
1295.94	9.13249e-06
1304.61	-2.1521e-05
1313.29	-2.38825e-05
1321.97	-2.70612e-05
1330.65	-2.75745e-05
1339.33	-2.45087e-05
1348.01	-3.06529e-05
1356.68	-4.57048e-06
1365.36	-3.07162e-05
1374.04	-2.62988e-05
1382.72	-3.1957e-05
1391.4	-2.93285e-05
1400.07	-2.89436e-05
1408.75	-2.8264e-05
1417.43	-2.44938e-05
1426.11	-2.62925e-05
1434.79	-2.82792e-05
1443.46	-2.99263e-05
1452.14	-3.08254e-05
1460.82	-2.81047e-05
1469.5	-2.65783e-05
1478.18	-2.48159e-05
1486.86	-2.31486e-05
1495.53	-1.49142e-05
1504.21	-1.62483e-05
1512.89	-7.13984e-06
1521.57	1.7484e-05
1530.25	-1.21474e-05
1538.92	0.000145849
1547.6	-1.9473e-05
1556.28	-2.74927e-06
1564.96	-1.41079e-05
1573.64	-2.5659e-05
1582.32	-2.8811e-05
1590.99	-3.11638e-05
1599.67	-2.75693e-05
1608.35	-2.70981e-05
1617.03	-8.46993e-06
1625.71	-2.92175e-05
1634.38	-1.79751e-05
1643.06	-2.5685e-05
1651.74	-6.8454e-06
1660.42	-2.37627e-05
1669.1	-1.82328e-05
1677.78	-2.5852e-05
1686.45	-2.02357e-05
1695.13	-1.52898e-06
1703.81	-2.07864e-05
1712.49	-2.64478e-05
1721.17	-2.72053e-05
1729.84	-2.33892e-05
1738.52	-2.42061e-05
1747.2	-2.39639e-05
1755.88	-2.94474e-05
1764.56	-3.18781e-05
1773.23	-1.86103e-05
1781.91	-2.74894e-05
1790.59	-2.34128e-05
1799.27	-2.55971e-05
1807.95	-2.43939e-05
1816.63	-2.61072e-05
1825.3	-2.41016e-05
1833.98	-2.66183e-05
1842.66	-2.57223e-05
1851.34	-3.08561e-05
1860.02	-3.20834e-05
1868.69	-2.50385e-05
1877.37	-2.85266e-05
1886.05	-2.71939e-05
1894.73	-2.53594e-05
1903.41	-2.48543e-05
1912.09	-2.09808e-05
1920.76	-2.20334e-05
1929.44	-2.34966e-05
1938.12	-2.79705e-05
1946.8	-2.4948e-05
1955.48	-2.76331e-05
1964.15	-2.63021e-05
1972.83	-2.84409e-05
1981.51	-2.58917e-05
1990.19	-2.7275e-05
1998.87	-2.78927e-05
2007.54	-2.78375e-05
2016.22	-2.67796e-05
2024.9	-3.19094e-05
2033.58	-3.19182e-05
2042.26	-2.9908e-05
2050.94	-2.78419e-05
2059.61	-2.94137e-05
2068.29	-2.87608e-05
2076.97	-3.06503e-05
2085.65	-2.88688e-05
2094.33	-2.82472e-05
2103	-2.8166e-05
2111.68	-2.73855e-05
2120.36	-2.93825e-05
2129.04	-2.75807e-05
2137.72	-2.69533e-05
2146.4	-2.334e-05
2155.07	-2.78736e-05
2163.75	-2.32e-05
2172.43	-1.69885e-05
2181.11	3.03075e-05
2189.79	-4.38553e-07
2198.46	-2.72928e-05
2207.14	-2.82895e-05
2215.82	-2.73009e-05
2224.5	-2.6898e-05
2233.18	-2.94021e-05
2241.85	-2.7702e-05
2250.53	-2.56275e-05
2259.21	-2.58392e-05
2267.89	-2.79196e-05
2276.57	-2.79198e-05
2285.25	-2.5804e-05
2293.92	-2.33275e-05
2302.6	-2.59002e-05
2311.28	-2.34302e-05
2319.96	-2.0751e-05
2328.64	-1.59631e-05
2337.31	-1.36346e-05
2345.99	-1.95555e-05
2354.67	-1.69643e-05
2363.35	-1.14049e-05
2372.03	-1.9242e-05
2380.71	-2.37652e-05
2389.38	-2.89387e-05
2398.06	-2.45958e-05
2406.74	-2.66387e-05
2415.42	-2.8153e-05
2424.1	-2.53368e-05
2432.77	-2.71685e-05
2441.45	-2.78769e-05
2450.13	-2.26913e-05
2458.81	-2.53036e-05
2467.49	-2.71505e-05
2476.16	-2.57568e-05
2484.84	-2.78778e-05
2493.52	-2.73696e-05
2502.2	-2.41827e-05
2510.88	-2.70544e-05
2519.56	-2.58578e-05
2528.23	-2.59718e-05
2536.91	-1.83794e-05
2545.59	-2.50689e-05
2554.27	-6.59886e-05
2562.95	-0.000102488
2571.62	-8.29589e-05
2580.3	-1.8216e-05
2588.98	-2.01515e-05
2597.66	-1.88438e-05
2606.34	-1.92726e-05
2615.02	-2.20392e-05
2623.69	-2.43448e-05
2632.37	-2.73607e-05
2641.05	-2.05187e-05
2649.73	-2.28747e-05
2658.41	-2.68132e-05
2667.08	-2.61069e-05
2675.76	-2.59275e-05
2684.44	-2.31866e-05
2693.12	-2.75433e-05
2701.8	-2.63338e-05
2710.47	-2.1452e-05
2719.15	-2.17983e-05
2727.83	-2.40531e-05
2736.51	-2.42486e-05
2745.19	-2.52294e-05
2753.87	-1.98177e-05
2762.54	-2.2437e-05
2771.22	-2.45495e-05
2779.9	-2.61006e-05
2788.58	-2.5348e-05
2797.26	-2.45463e-05
2805.93	-2.41643e-05
2814.61	-2.63113e-05
2823.29	-2.58537e-05
2831.97	-2.59409e-05
2840.65	-1.64373e-05
2849.33	-2.30142e-05
2858	-2.16264e-05
2866.68	-2.55568e-05
2875.36	-2.30904e-05
2884.04	-2.28654e-05
2892.72	-2.43359e-05
2901.39	-2.3792e-05
2910.07	-1.62469e-05
2918.75	-2.40646e-05
2927.43	-2.40487e-05
2936.11	-2.30365e-05
2944.78	-2.82465e-05
2953.46	-2.30383e-05
2962.14	-2.35586e-05
2970.82	-2.57563e-05
2979.5	-2.74399e-05
2988.18	-2.27215e-05
2996.85	-1.95667e-05
3005.53	-2.2854e-05
3014.21	-2.52767e-05
3022.89	-2.14455e-05
3031.57	-2.50903e-05
3040.24	-2.60156e-05
3048.92	-2.44795e-05
3057.6	-2.24276e-05
3066.28	-1.91537e-05
3074.96	-2.23033e-05
3083.64	-1.84402e-05
3092.31	-2.20168e-05
3100.99	-2.07727e-05
3109.67	-2.55554e-05
3118.35	-1.8009e-05
3127.03	-1.83295e-05
3135.7	-2.09304e-05
3144.38	-2.43133e-05
3153.06	-2.51915e-05
3161.74	-2.3141e-05
3170.42	-1.97961e-05
3179.09	-1.99589e-05
3187.77	-2.40557e-05
3196.45	-1.92274e-05
3205.13	-2.28855e-05
3213.81	-2.03014e-05
3222.49	-1.93717e-05
3231.16	-2.14915e-05
3239.84	-2.64442e-05
3248.52	-2.21928e-05
3257.2	-2.40878e-05
3265.88	-2.17072e-05
3274.55	-1.89803e-05
3283.23	-1.9012e-05
3291.91	-2.19948e-05
3300.59	-2.32884e-05
3309.27	-1.99352e-05
3317.95	-2.36205e-05
3326.62	-2.76845e-05
3335.3	-2.29802e-05
3343.98	-2.16838e-05
3352.66	-1.90576e-05
3361.34	-2.30761e-05
3370.01	-1.9725e-05
3378.69	-2.45519e-05
3387.37	-1.80226e-05
3396.05	-2.32794e-05
3404.73	-2.00619e-05
3413.4	-2.14653e-05
3422.08	-1.57902e-05
3430.76	-2.08696e-05
3439.44	-1.14171e-05
3448.12	-1.62229e-05
3456.8	-2.21825e-05
3465.47	-1.2249e-05
3474.15	-2.10625e-05
3482.83	-2.21163e-05
3491.51	-2.01831e-05
3500.19	-1.35652e-05
3508.86	-2.20814e-05
3517.54	-2.28329e-05
3526.22	-1.97164e-05
3534.9	-1.56473e-05
3543.58	-2.10555e-05
3552.26	-2.03033e-05
3560.93	-1.63645e-05
3569.61	-1.76658e-05
3578.29	-2.15854e-05
3586.97	-2.02357e-05
3595.65	-2.79965e-05
3604.32	-2.13576e-05
3613	-1.58411e-05
3621.68	-1.67575e-05
3630.36	-9.72643e-06
3639.04	-1.24916e-05
3647.72	-6.02467e-06
3656.39	-7.14653e-06
3665.07	-1.31725e-05
3673.75	-1.41202e-05
3682.43	-1.54675e-05
3691.11	-9.26605e-06
3699.78	-1.15222e-05
3708.46	-1.67361e-05
3717.14	-2.07214e-05
3725.82	-1.6017e-05
3734.5	-1.5942e-05
3743.17	-8.83489e-06
3751.85	2.13025e-06
3760.53	-1.39217e-05
3769.21	-1.51128e-05
3777.89	-1.69351e-05
3786.57	-1.73758e-05
3795.24	-1.9842e-05
3803.92	-1.54561e-05
3812.6	-1.40622e-05
3821.28	-7.563e-06
3829.96	-2.25203e-05
3838.63	-1.14903e-05
3847.31	-2.9894e-05
3855.99	-2.35198e-05
3864.67	-9.04751e-06
3873.35	-1.43381e-05
3882.03	-2.36523e-05
3890.7	-7.48372e-06
3899.38	-1.39607e-05
3908.06	-1.53096e-05
3916.74	-9.06986e-06
3925.42	-6.00182e-06
3934.09	-2.07673e-05
3942.77	-1.28266e-05
3951.45	-1.81864e-05
3960.13	-1.70658e-05
3968.81	-1.3031e-05
