Infrared Spectrum: Dichlorodifluoromethane
Formula: C Cl2 F2
CAS: 75-71-8
State: gas
Melting point: -158 C
Boiling point: -29.8 C
Class: IUPAC A
Instrument: IFS66V (Bruker)
Instrument parameters: KBr Beam Splitter; MCT Detector; Multipass cell
Sampling: 1 L/min Flow
Resolution: 0.1250
Temperature: 23 C
Pressure: 101.3 Pa
Origin: NIST, Analytical Chemistry Division, 301-975-3108
cm-1	(micromol/mol)-1m-1 (base 10)
575.05	3.85965e-06
583.608	1.20165e-05
592.165	-1.17991e-06
600.723	2.61132e-07
609.281	1.01762e-06
617.838	-1.44609e-06
626.396	1.0647e-07
634.954	2.61794e-06
643.511	9.05758e-06
652.069	2.06979e-05
660.626	4.66176e-05
669.184	7.87475e-05
677.742	5.19943e-05
686.299	8.24448e-06
694.857	3.31617e-07
703.415	-1.20546e-06
711.972	-3.90156e-07
720.53	2.37445e-06
729.088	1.16139e-06
737.645	-7.97511e-07
746.203	9.43443e-07
754.761	1.08259e-08
763.318	2.6109e-06
771.876	-4.85989e-07
780.434	7.97875e-07
788.991	9.83866e-07
797.549	1.34064e-06
806.106	-9.11329e-07
814.664	4.49975e-07
823.222	7.61003e-07
831.779	5.17129e-06
840.337	9.47023e-06
848.895	1.33038e-05
857.452	3.81673e-05
866.01	0.000123154
874.568	0.000311144
883.125	0.000522739
891.683	0.000516081
900.241	0.000281481
908.798	0.000932661
917.356	0.00161789
925.914	0.00175904
934.471	0.000902794
943.029	1.70377e-05
951.586	1.70098e-06
960.144	1.19251e-06
968.702	-4.2665e-07
977.259	3.51436e-07
985.817	-4.20902e-07
994.375	-3.70236e-07
1002.93	-1.51303e-06
1011.49	-2.43673e-06
1020.05	-5.19762e-08
1028.61	1.2084e-06
1037.16	-8.60008e-07
1045.72	1.72314e-06
1054.28	4.76772e-06
1062.84	1.6732e-05
1071.39	6.25374e-05
1079.95	0.000281709
1088.51	0.000942039
1097.07	0.0015875
1105.62	0.00129114
1114.18	0.000898139
1122.74	0.000316171
1131.3	0.000236903
1139.85	0.000333978
1148.41	0.000904692
1156.97	0.00119153
1165.53	0.000614872
1174.09	0.000390383
1182.64	5.19453e-05
1191.2	8.62708e-06
1199.76	8.01936e-06
1208.32	9.19229e-06
1216.87	3.64219e-06
1225.43	6.98234e-06
1233.99	1.23132e-05
1242.55	2.05173e-05
1251.1	9.59467e-06
1259.66	1.79997e-06
1268.22	2.62806e-07
1276.78	-1.13182e-06
1285.33	-1.01655e-06
1293.89	3.59599e-07
1302.45	5.9192e-07
1311.01	1.13339e-06
1319.57	1.95174e-06
1328.12	2.61129e-06
1336.68	2.28235e-06
1345.24	4.64263e-06
1353.8	4.36053e-06
1362.35	6.42641e-06
1370.91	4.52273e-06
1379.47	8.24206e-06
1388.03	5.56583e-06
1396.58	1.61432e-06
1405.14	-3.44218e-07
1413.7	6.66247e-07
1422.26	-8.15263e-07
1430.81	-5.6276e-07
1439.37	1.87824e-07
1447.93	-2.04712e-06
1456.49	-2.91337e-06
1465.05	-5.48442e-07
1473.6	8.25042e-09
1482.16	1.4964e-06
1490.72	-2.18891e-07
1499.28	-1.52538e-07
1507.83	-4.55519e-07
1516.39	2.10844e-07
1524.95	9.51926e-08
1533.51	-6.07562e-07
1542.06	-8.39142e-07
1550.62	3.26859e-07
1559.18	6.10851e-07
1567.74	1.1571e-06
1576.29	8.27574e-07
1584.85	5.35417e-06
1593.41	5.09714e-06
1601.97	7.6758e-07
1610.53	6.84916e-07
1619.08	2.51441e-08
1627.64	-8.11131e-07
1636.2	-4.88433e-07
1644.76	-5.148e-07
1653.31	-3.96365e-06
1661.87	-9.02453e-07
1670.43	-2.90176e-07
1678.99	-2.62529e-07
1687.54	4.08607e-07
1696.1	-1.8572e-06
1704.66	-2.25191e-07
1713.22	-8.37992e-08
1721.77	-4.55155e-07
1730.33	1.12957e-06
1738.89	1.81044e-07
1747.45	9.74801e-07
1756.01	3.29343e-06
1764.56	3.11311e-06
1773.12	2.34539e-06
1781.68	8.62176e-07
1790.24	1.15753e-06
1798.79	2.02984e-06
1807.35	2.51968e-06
1815.91	1.0367e-06
1824.47	9.31002e-07
1833.02	2.62666e-06
1841.58	1.00162e-06
1850.14	3.95234e-07
1858.7	-5.4265e-07
1867.25	-8.37643e-07
1875.81	-1.2233e-07
1884.37	5.91716e-07
1892.93	-2.48939e-07
1901.49	-8.62772e-07
1910.04	9.70581e-07
1918.6	4.94618e-07
1927.16	-4.2227e-08
1935.72	-2.58659e-07
1944.27	2.17785e-07
1952.83	3.63702e-07
1961.39	-1.28063e-07
1969.95	1.3758e-07
1978.5	2.09767e-07
1987.06	1.1747e-07
1995.62	5.07626e-07
2004.18	8.37352e-07
2012.73	8.50011e-07
2021.29	1.03976e-06
2029.85	3.63717e-07
2038.41	8.18959e-07
2046.97	2.09593e-07
2055.52	-3.37656e-07
2064.08	4.42671e-07
2072.64	-2.09243e-08
2081.2	-8.40597e-07
2089.75	-6.87433e-07
2098.31	-1.89439e-07
2106.87	-5.89446e-07
2115.43	-9.79661e-07
2123.98	2.47367e-07
2132.54	1.00067e-07
2141.1	7.99446e-07
2149.66	9.5149e-08
2158.21	-2.50365e-07
2166.77	6.95858e-07
2175.33	2.20023e-06
2183.89	4.48318e-06
2192.45	7.53502e-06
2201	7.00859e-06
2209.56	2.33359e-06
2218.12	2.56728e-06
2226.68	6.00508e-06
2235.23	1.26567e-05
2243.79	1.65303e-05
2252.35	1.08149e-05
2260.91	6.87849e-06
2269.46	2.35029e-06
2278.02	2.07947e-06
2286.58	5.46157e-07
2295.14	1.67018e-06
2303.69	5.37176e-06
2312.25	8.39057e-06
2320.81	4.16882e-06
2329.37	1.57849e-06
2337.93	-4.59695e-07
2346.48	-2.68626e-07
2355.04	-7.06538e-07
2363.6	2.53086e-07
2372.16	4.38465e-07
2380.71	8.11335e-07
2389.27	2.32103e-07
2397.83	1.55841e-07
2406.39	4.84519e-07
2414.94	7.1198e-08
2423.5	2.41561e-07
2432.06	2.69252e-07
2440.62	4.07574e-08
2449.17	-5.81109e-07
2457.73	-5.08892e-07
2466.29	3.17736e-07
2474.85	8.69277e-08
2483.41	-6.74628e-07
2491.96	6.45715e-07
2500.52	1.94081e-07
2509.08	7.37416e-07
2517.64	8.39898e-07
2526.19	5.11337e-07
2534.75	-3.92877e-10
2543.31	-1.43473e-07
2551.87	-6.20309e-08
2560.42	3.064e-07
2568.98	-2.62791e-07
2577.54	1.60807e-06
2586.1	9.29809e-08
2594.65	3.96835e-07
2603.21	-1.09565e-06
2611.77	1.63677e-06
2620.33	6.14954e-07
2628.89	-1.48668e-07
2637.44	3.52804e-07
2646	3.42545e-07
2654.56	2.82013e-07
2663.12	-6.72256e-09
2671.67	5.57449e-08
2680.23	-3.87639e-07
2688.79	5.3587e-07
2697.35	-4.5469e-07
2705.9	7.8766e-07
2714.46	2.65701e-07
2723.02	1.44953e-06
2731.58	-4.98808e-08
2740.13	-1.31599e-07
2748.69	-8.69582e-07
2757.25	1.69679e-07
2765.81	-9.76081e-07
2774.37	3.26306e-07
2782.92	-6.06646e-07
2791.48	6.53325e-07
2800.04	-1.05541e-06
2808.6	-3.2066e-07
2817.15	4.85611e-07
2825.71	-1.05626e-07
2834.27	7.03876e-07
2842.83	-2.57582e-07
2851.38	-9.53207e-07
2859.94	-5.21406e-07
2868.5	2.16752e-07
2877.06	1.58577e-06
2885.61	-1.23278e-06
2894.17	4.51314e-07
2902.73	7.389e-07
2911.29	-9.36153e-07
2919.85	3.35342e-07
2928.4	-1.5242e-06
2936.96	6.44304e-07
2945.52	8.39593e-08
2954.08	-1.17019e-06
2962.63	-1.91699e-06
2971.19	4.84461e-07
2979.75	-6.22652e-07
2988.31	-6.16526e-08
2996.86	4.38582e-07
3005.42	-1.07459e-07
3013.98	1.40522e-06
3022.54	1.28682e-06
3031.09	4.26344e-09
3039.65	3.7156e-07
3048.21	-8.67749e-07
3056.77	3.09878e-07
3065.33	-1.08719e-06
3073.88	1.39253e-08
3082.44	2.01037e-07
3091	9.01289e-07
3099.56	-4.44984e-07
3108.11	3.73131e-07
3116.67	-2.96564e-07
3125.23	-2.08007e-07
3133.79	4.45319e-07
3142.34	4.97426e-07
3150.9	1.84754e-07
3159.46	4.26621e-07
3168.02	4.09116e-07
3176.57	-6.46792e-07
3185.13	-1.70436e-06
3193.69	-2.35828e-07
3202.25	8.21913e-07
3210.81	-3.94783e-07
3219.36	6.34482e-07
3227.92	-1.12833e-06
3236.48	2.29223e-06
3245.04	-4.87953e-07
3253.59	-2.7094e-07
3262.15	2.66705e-07
3270.71	-2.34402e-07
3279.27	1.0717e-06
3287.82	-5.00685e-07
3296.38	8.70746e-07
3304.94	-7.13683e-07
3313.5	-2.74781e-07
3322.05	-1.78541e-08
3330.61	-1.51563e-07
3339.17	1.19624e-07
3347.73	1.1614e-06
3356.29	5.23399e-08
3364.84	6.24427e-07
3373.4	-2.16708e-07
3381.96	2.05838e-06
3390.52	-1.11782e-06
3399.07	-2.41983e-08
3407.63	-2.56389e-08
3416.19	-5.36728e-07
3424.75	-1.76344e-07
3433.3	9.08608e-07
3441.86	7.51821e-07
3450.42	-8.21273e-07
3458.98	-2.07541e-06
3467.53	5.28929e-07
3476.09	-5.85896e-07
3484.65	-4.12521e-07
3493.21	2.64392e-08
3501.77	1.09515e-06
3510.32	5.6017e-07
3518.88	-8.74079e-08
3527.44	5.16008e-07
3536	8.60866e-07
3544.55	6.71863e-07
3553.11	-4.00385e-07
3561.67	-1.71484e-07
3570.23	-1.13098e-06
3578.78	-3.01555e-07
3587.34	-3.0899e-07
3595.9	-8.5039e-07
3604.46	6.60339e-07
3613.01	1.93717e-07
3621.57	2.3948e-06
3630.13	-1.14036e-07
3638.69	-6.64224e-07
3647.25	-1.06574e-06
3655.8	-3.98421e-07
3664.36	3.80785e-07
3672.92	-4.33503e-07
3681.48	7.26153e-07
3690.03	-1.86515e-07
3698.59	9.72065e-07
3707.15	1.56419e-06
3715.71	3.4384e-07
3724.26	8.17854e-07
3732.82	1.41271e-06
3741.38	-9.47023e-07
3749.94	8.23994e-07
3758.49	-1.81029e-07
3767.05	5.22876e-07
3775.61	-5.41472e-07
3784.17	9.58693e-07
3792.73	2.50706e-06
3801.28	-1.71159e-06
3809.84	7.12883e-07
3818.4	2.13711e-07
3826.96	1.11103e-06
3835.51	3.29245e-07
3844.07	6.2175e-07
3852.63	4.12608e-07
3861.19	-5.51687e-07
3869.74	-4.48273e-07
3878.3	1.67089e-07
3886.86	-3.58071e-07
3895.42	1.22287e-07
3903.97	5.49693e-07
3912.53	-3.04465e-07
3921.09	-3.0317e-07
3929.65	3.84758e-07
3938.21	-8.84555e-08
3946.76	-3.32563e-07
3955.32	3.96427e-07
3963.88	-6.64952e-07
3972.44	-1.78133e-07
