Infrared Spectrum: Carbon tetrafluoride
Formula: C F4
CAS: 75-73-0
State: gas
Melting point: -150 C
Boiling point: -129 C
Class: IUPAC A
Instrument: IFS66V (Bruker)
Instrument parameters: KBr Beam Splitter; MCT Detector; Multipass cell
Sampling: 1 L/min Flow
Resolution: 0.4820
Temperature: 23 C
Pressure: 101.3 Pa
Origin: NIST, Analytical Chemistry Division, 301-975-3108
cm-1	(micromol/mol)-1m-1 (base 10)
575.168	-0.000180247
583.846	1.25116e-05
592.524	3.07782e-05
601.202	-3.31168e-05
609.881	-1.83284e-05
618.559	1.04255e-06
627.237	-3.60723e-05
635.915	-3.99215e-05
644.593	-4.23978e-05
653.271	-1.89857e-05
661.949	-3.01959e-05
670.628	-2.40799e-05
679.306	-3.35929e-05
687.984	-3.41266e-05
696.662	-4.05269e-05
705.34	-1.08548e-05
714.018	-2.62391e-05
722.697	-2.69154e-05
731.375	-3.40786e-05
740.053	-2.7048e-05
748.731	-2.71081e-05
757.409	-3.37754e-05
766.087	-2.19034e-05
774.765	-3.19222e-05
783.444	-3.85484e-05
792.122	-3.00382e-05
800.8	-2.96553e-05
809.478	-1.63563e-05
818.156	-3.86758e-05
826.834	-3.47066e-05
835.512	-4.88399e-05
844.191	-3.19512e-05
852.869	-2.53307e-05
861.547	-2.3815e-05
870.225	-4.22379e-05
878.903	-2.30039e-05
887.581	-3.18322e-05
896.26	-3.00456e-05
904.938	-3.76882e-05
913.616	-3.70961e-05
922.294	-3.01865e-05
930.972	-3.12948e-05
939.65	-4.32859e-05
948.328	-2.08071e-05
957.007	-4.74551e-05
965.685	-2.8985e-05
974.363	-2.45374e-05
983.041	-2.42365e-05
991.719	-2.71829e-05
1000.4	-2.57038e-05
1009.08	-2.90884e-05
1017.75	-2.98171e-05
1026.43	-2.67575e-05
1035.11	-3.56603e-05
1043.79	-2.60843e-05
1052.47	-2.87222e-05
1061.14	-2.42531e-05
1069.82	-2.13472e-05
1078.5	-2.93435e-05
1087.18	-4.18584e-05
1095.86	-2.87767e-05
1104.54	-1.45981e-05
1113.21	-3.88187e-05
1121.89	-2.81109e-05
1130.57	-3.90638e-05
1139.25	-3.13984e-05
1147.93	-3.25829e-05
1156.6	-3.16814e-05
1165.28	-3.17647e-05
1173.96	-2.25328e-05
1182.64	-4.0318e-05
1191.32	-4.26011e-05
1199.99	-2.6706e-05
1208.67	-2.40977e-05
1217.35	-2.6404e-05
1226.03	-2.46967e-05
1234.71	2.83774e-05
1243.39	0.000398419
1252.06	0.000191828
1260.74	0.000687217
1269.42	0.00109035
1278.1	0.0105017
1286.78	0.00508824
1295.45	3.20755e-05
1304.13	-1.69368e-05
1312.81	-1.53487e-05
1321.49	-3.00196e-05
1330.17	-2.72676e-05
1338.85	-1.97892e-05
1347.52	-2.92369e-05
1356.2	1.05674e-05
1364.88	-3.08125e-05
1373.56	-2.36949e-05
1382.24	-2.52228e-05
1390.91	-3.44881e-05
1399.59	-1.58641e-05
1408.27	-2.54961e-05
1416.95	-2.94279e-05
1425.63	-2.30645e-05
1434.3	-3.37398e-05
1442.98	-3.01976e-05
1451.66	-2.60563e-05
1460.34	-2.2294e-05
1469.02	-2.5714e-05
1477.7	-2.35435e-05
1486.37	-2.03784e-05
1495.05	-2.32621e-05
1503.73	-2.29006e-05
1512.41	-3.45296e-06
1521.09	4.24573e-05
1529.76	-6.24637e-06
1538.44	7.0378e-05
1547.12	-2.52033e-05
1555.8	-8.06988e-06
1564.48	-1.42825e-05
1573.16	-2.65392e-05
1581.83	-2.95986e-05
1590.51	-3.83148e-05
1599.19	-2.41526e-05
1607.87	-2.53674e-05
1616.55	2.50858e-05
1625.22	-3.3685e-05
1633.9	-2.24589e-05
1642.58	-2.46754e-05
1651.26	-2.34796e-05
1659.94	-2.38105e-05
1668.61	-2.09615e-05
1677.29	-2.74321e-05
1685.97	-2.504e-05
1694.65	-1.99281e-05
1703.33	-2.23297e-05
1712.01	-3.08308e-05
1720.68	-2.34936e-05
1729.36	-2.7057e-05
1738.04	-2.49316e-05
1746.72	-3.06456e-05
1755.4	-3.00456e-05
1764.07	-3.54418e-05
1772.75	1.69482e-05
1781.43	-3.0021e-05
1790.11	-2.6544e-05
1798.79	-2.88159e-05
1807.47	-2.58829e-05
1816.14	-1.90186e-05
1824.82	-2.21429e-05
1833.5	-2.56178e-05
1842.18	-2.76448e-05
1850.86	-3.17247e-05
1859.53	-3.01881e-05
1868.21	-2.7878e-05
1876.89	-2.73849e-05
1885.57	-2.25616e-05
1894.25	-2.68821e-05
1902.92	-2.93445e-05
1911.6	-1.9378e-05
1920.28	-2.45334e-05
1928.96	-2.38202e-05
1937.64	-2.64681e-05
1946.32	-2.77931e-05
1954.99	-2.72286e-05
1963.67	-2.2814e-05
1972.35	-2.91552e-05
1981.03	-3.21033e-05
1989.71	-3.20784e-05
1998.38	-3.38253e-05
2007.06	-2.71028e-05
2015.74	-2.18077e-05
2024.42	-2.92548e-05
2033.1	-3.08956e-05
2041.78	-2.87781e-05
2050.45	-2.41382e-05
2059.13	-2.97734e-05
2067.81	-2.83993e-05
2076.49	-3.33768e-05
2085.17	-2.92253e-05
2093.84	-2.35554e-05
2102.52	-3.21487e-05
2111.2	-2.71658e-05
2119.88	-2.64537e-05
2128.56	-2.54952e-05
2137.23	-2.72637e-05
2145.91	-2.06978e-05
2154.59	-2.93711e-05
2163.27	-2.23022e-05
2171.95	-1.5644e-05
2180.63	2.61359e-05
2189.3	7.13973e-06
2197.98	-2.25968e-05
2206.66	-2.94178e-05
2215.34	-2.95015e-05
2224.02	-2.10797e-05
2232.69	-2.96655e-05
2241.37	-2.02131e-05
2250.05	-1.98836e-05
2258.73	-2.69327e-05
2267.41	-2.66627e-05
2276.09	-2.47497e-05
2284.76	-2.82775e-05
2293.44	-2.60806e-05
2302.12	-2.30738e-05
2310.8	-2.07991e-05
2319.48	-2.17865e-05
2328.15	-2.35463e-05
2336.83	-1.53166e-05
2345.51	-2.38735e-05
2354.19	-1.3326e-05
2362.87	6.75597e-06
2371.54	-1.81781e-05
2380.22	-2.63819e-05
2388.9	-2.86805e-05
2397.58	-2.22717e-05
2406.26	-3.53613e-05
2414.94	-2.70125e-05
2423.61	-2.61041e-05
2432.29	-3.09526e-05
2440.97	-3.36781e-05
2449.65	-2.5342e-05
2458.33	-1.80406e-05
2467	-2.87877e-05
2475.68	-2.79218e-05
2484.36	-2.90301e-05
2493.04	-3.12822e-05
2501.72	-2.81578e-05
2510.4	-3.40948e-05
2519.07	-2.57911e-05
2527.75	-2.67616e-05
2536.43	-1.74157e-05
2545.11	-2.33809e-05
2553.79	-6.0219e-05
2562.46	-9.17469e-05
2571.14	-9.82937e-05
2579.82	-1.98078e-05
2588.5	-1.9067e-05
2597.18	-2.10467e-05
2605.85	-2.55221e-05
2614.53	-2.09276e-05
2623.21	-2.67445e-05
2631.89	-2.27404e-05
2640.57	-1.59849e-05
2649.25	-2.09143e-05
2657.92	-3.3069e-05
2666.6	-3.18555e-05
2675.28	-2.02957e-05
2683.96	-2.33293e-05
2692.64	-3.36504e-05
2701.31	-2.29507e-05
2709.99	-1.34593e-05
2718.67	-2.24346e-05
2727.35	-2.32865e-05
2736.03	-1.5225e-05
2744.71	-2.92897e-05
2753.38	-1.84335e-05
2762.06	-2.54919e-05
2770.74	-2.4171e-05
2779.42	-3.08424e-05
2788.1	-2.62724e-05
2796.77	-2.10015e-05
2805.45	-2.63635e-05
2814.13	-2.74501e-05
2822.81	-2.4637e-05
2831.49	-2.32999e-05
2840.16	-1.95609e-05
2848.84	-2.60546e-05
2857.52	-1.76246e-05
2866.2	-1.98613e-05
2874.88	-2.11295e-05
2883.56	-2.3305e-05
2892.23	-1.92284e-05
2900.91	-1.97133e-05
2909.59	-1.30987e-05
2918.27	-2.86817e-05
2926.95	-2.53044e-05
2935.62	-2.30294e-05
2944.3	-2.64677e-05
2952.98	-7.56022e-06
2961.66	-2.01146e-05
2970.34	-3.30324e-05
2979.02	-2.87359e-05
2987.69	-2.71213e-05
2996.37	-2.37498e-05
3005.05	-2.71564e-05
3013.73	-2.7155e-05
3022.41	-3.03948e-05
3031.08	-3.64109e-05
3039.76	-2.76046e-05
3048.44	-2.20513e-05
3057.12	-2.34711e-05
3065.8	-1.82592e-05
3074.48	-1.64474e-05
3083.15	-1.2181e-05
3091.83	-2.15273e-05
3100.51	-1.84287e-05
3109.19	-1.83076e-05
3117.87	-1.40846e-05
3126.54	-1.7302e-05
3135.22	-1.46504e-05
3143.9	-2.56415e-05
3152.58	-2.37733e-05
3161.26	-2.15463e-05
3169.93	-1.50823e-05
3178.61	-7.86196e-06
3187.29	-2.56072e-05
3195.97	-1.97979e-05
3204.65	-2.66504e-05
3213.33	-2.20442e-05
3222	-1.37204e-05
3230.68	-1.70053e-05
3239.36	-1.15555e-05
3248.04	-2.19924e-05
3256.72	-2.86593e-05
3265.39	-2.01692e-05
3274.07	-1.39515e-05
3282.75	-1.66961e-05
3291.43	-1.7612e-05
3300.11	-2.95623e-05
3308.79	-1.87434e-05
3317.46	-4.31416e-05
3326.14	-2.23141e-05
3334.82	-2.42697e-05
3343.5	-2.73516e-05
3352.18	-1.34182e-05
3360.85	-4.9143e-06
3369.53	-2.28865e-05
3378.21	-2.40359e-05
3386.89	-1.91513e-05
3395.57	-1.81794e-05
3404.24	-9.29816e-06
3412.92	-2.03635e-05
3421.6	-1.18056e-05
3430.28	-1.18942e-05
3438.96	-4.46256e-06
3447.64	-2.86356e-05
3456.31	-2.61505e-05
3464.99	-1.29819e-05
3473.67	-2.4877e-05
3482.35	-2.89614e-05
3491.03	-1.7585e-05
3499.7	-4.1515e-06
3508.38	-8.60655e-06
3517.06	-3.17572e-05
3525.74	-2.57109e-05
3534.42	-1.2809e-05
3543.1	-2.69101e-05
3551.77	-1.6231e-05
3560.45	-3.01024e-05
3569.13	-2.44678e-05
3577.81	-1.978e-05
3586.49	-1.44485e-05
3595.16	-2.92622e-05
3603.84	-1.74662e-05
3612.52	-2.44813e-06
3621.2	-2.05978e-05
3629.88	-6.2143e-06
3638.55	-1.2502e-05
3647.23	-4.40784e-06
3655.91	-5.62524e-06
3664.59	-4.90295e-06
3673.27	-2.2191e-05
3681.95	-2.74564e-05
3690.62	-1.20447e-05
3699.3	-2.4138e-05
3707.98	-2.26856e-05
3716.66	-3.01956e-05
3725.34	-1.67707e-05
3734.01	-2.18726e-05
3742.69	-2.23153e-05
3751.37	-1.75328e-05
3760.05	1.61554e-06
3768.73	-1.50222e-05
3777.41	-1.55664e-05
3786.08	-2.30071e-05
3794.76	-3.14739e-05
3803.44	-1.36972e-05
3812.12	-1.34167e-05
3820.8	-6.8005e-06
3829.47	-2.34153e-05
3838.15	-8.88262e-06
3846.83	-1.02909e-05
3855.51	-4.20883e-05
3864.19	-1.26465e-05
3872.86	-2.25469e-05
3881.54	-2.43501e-05
3890.22	-1.48514e-05
3898.9	-2.42365e-05
3907.58	-7.19724e-06
3916.26	-1.64634e-05
3924.93	-3.06557e-05
3933.61	-1.48598e-05
3942.29	-2.24929e-05
3950.97	-7.19631e-06
3959.65	-1.57318e-05
3968.32	-1.7868e-05
