Infrared Spectrum: Carbon tetrafluoride
Formula: C F4
CAS: 75-73-0
State: gas
Melting point: -150 C
Boiling point: -129 C
Class: IUPAC A
Instrument: IFS66V (Bruker)
Instrument parameters: KBr Beam Splitter; MCT Detector; Multipass cell
Sampling: 1 L/min Flow
Resolution: 0.9640
Temperature: 23 C
Pressure: 101.3 Pa
Origin: NIST, Analytical Chemistry Division, 301-975-3108
cm-1	(micromol/mol)-1m-1 (base 10)
575.168	-8.49103e-05
583.846	-1.31786e-05
592.524	-1.68463e-05
601.202	-1.54633e-05
609.881	-1.43746e-05
618.559	-9.4119e-06
627.237	-3.84996e-05
635.915	-3.32148e-05
644.593	-1.53328e-05
653.271	-3.14376e-07
661.949	-3.30445e-05
670.628	-2.83078e-05
679.306	-3.00492e-05
687.984	-4.46687e-05
696.662	-4.16098e-05
705.34	-1.56071e-05
714.018	-2.59214e-05
722.697	-2.30803e-05
731.375	-3.4047e-05
740.053	-3.11069e-05
748.731	-2.89559e-05
757.409	-2.72881e-05
766.087	-2.62555e-05
774.765	-2.65143e-05
783.444	-3.69876e-05
792.122	-3.31032e-05
800.8	-3.07821e-05
809.478	-3.0127e-05
818.156	-3.72654e-05
826.834	-3.16395e-05
835.512	-4.0973e-05
844.191	-3.55553e-05
852.869	-3.09728e-05
861.547	-2.34783e-05
870.225	-3.28778e-05
878.903	-2.52424e-05
887.581	-3.58557e-05
896.26	-2.28788e-05
904.938	-3.23541e-05
913.616	-3.66043e-05
922.294	-3.48103e-05
930.972	-3.13322e-05
939.65	-3.89248e-05
948.328	-2.59262e-05
957.007	-3.51858e-05
965.685	-2.92977e-05
974.363	-2.2946e-05
983.041	-2.8005e-05
991.719	-3.28182e-05
1000.4	-2.42307e-05
1009.08	-2.82757e-05
1017.75	-2.6927e-05
1026.43	-3.04253e-05
1035.11	-3.39682e-05
1043.79	-2.53437e-05
1052.47	-2.43688e-05
1061.14	-2.10946e-05
1069.82	-2.57548e-05
1078.5	-2.87332e-05
1087.18	-3.35854e-05
1095.86	-2.43628e-05
1104.54	-2.32511e-05
1113.21	-3.28467e-05
1121.89	-2.59032e-05
1130.57	-3.49589e-05
1139.25	-2.87404e-05
1147.93	-2.952e-05
1156.6	-3.13259e-05
1165.28	-3.08265e-05
1173.96	-2.7495e-05
1182.64	-3.16513e-05
1191.32	-3.32968e-05
1199.99	-2.62936e-05
1208.67	-2.49511e-05
1217.35	-2.73687e-05
1226.03	-2.43333e-05
1234.71	3.08923e-05
1243.39	0.000299749
1252.06	0.000200424
1260.74	0.0006393
1269.42	0.00109521
1278.1	0.0108893
1286.78	0.00541263
1295.45	1.78952e-05
1304.13	-2.57575e-05
1312.81	-2.32539e-05
1321.49	-3.26099e-05
1330.17	-2.80671e-05
1338.85	-2.36804e-05
1347.52	-3.33393e-05
1356.2	2.74632e-06
1364.88	-3.01604e-05
1373.56	-2.55104e-05
1382.24	-3.32457e-05
1390.91	-3.21769e-05
1399.59	-2.19607e-05
1408.27	-2.81648e-05
1416.95	-2.7442e-05
1425.63	-2.50315e-05
1434.3	-3.06937e-05
1442.98	-3.15481e-05
1451.66	-2.89357e-05
1460.34	-2.76956e-05
1469.02	-2.63097e-05
1477.7	-2.44581e-05
1486.37	-2.40992e-05
1495.05	-2.33387e-05
1503.73	-2.19745e-05
1512.41	-6.42215e-06
1521.09	2.76031e-05
1529.76	-1.07857e-05
1538.44	0.000116112
1547.12	-2.33912e-05
1555.8	-8.13542e-06
1564.48	-1.32444e-05
1573.16	-2.6809e-05
1581.83	-2.83257e-05
1590.51	-3.41822e-05
1599.19	-2.68172e-05
1607.87	-2.53975e-05
1616.55	4.18421e-06
1625.22	-3.13124e-05
1633.9	-2.55749e-05
1642.58	-2.52271e-05
1651.26	-2.56597e-05
1659.94	-2.40568e-05
1668.61	-1.83521e-05
1677.29	-2.71782e-05
1685.97	-2.18869e-05
1694.65	-1.60057e-05
1703.33	-2.37548e-05
1712.01	-2.91811e-05
1720.68	-2.61358e-05
1729.36	-2.35726e-05
1738.04	-2.63596e-05
1746.72	-2.48095e-05
1755.4	-3.02813e-05
1764.07	-3.41255e-05
1772.75	-6.31709e-06
1781.43	-2.66266e-05
1790.11	-2.6581e-05
1798.79	-2.67468e-05
1807.47	-2.37008e-05
1816.14	-2.3567e-05
1824.82	-2.15275e-05
1833.5	-2.62288e-05
1842.18	-3.0268e-05
1850.86	-3.27822e-05
1859.53	-3.17899e-05
1868.21	-2.60037e-05
1876.89	-2.90597e-05
1885.57	-2.48848e-05
1894.25	-2.56449e-05
1902.92	-2.63354e-05
1911.6	-2.17019e-05
1920.28	-2.38203e-05
1928.96	-2.47143e-05
1937.64	-2.79401e-05
1946.32	-2.71244e-05
1954.99	-2.8339e-05
1963.67	-2.5775e-05
1972.35	-2.86877e-05
1981.03	-2.77561e-05
1989.71	-2.85249e-05
1998.38	-3.05916e-05
2007.06	-2.77128e-05
2015.74	-2.58337e-05
2024.42	-3.10947e-05
2033.1	-3.11696e-05
2041.78	-2.93788e-05
2050.45	-2.6665e-05
2059.13	-3.01474e-05
2067.81	-2.7989e-05
2076.49	-3.39468e-05
2085.17	-3.02137e-05
2093.84	-2.70277e-05
2102.52	-2.91367e-05
2111.2	-2.71457e-05
2119.88	-2.87831e-05
2128.56	-2.80015e-05
2137.23	-2.75146e-05
2145.91	-2.33216e-05
2154.59	-3.02384e-05
2163.27	-2.48808e-05
2171.95	-1.65878e-05
2180.63	2.55004e-05
2189.3	9.93233e-06
2197.98	-2.51938e-05
2206.66	-2.89449e-05
2215.34	-2.89318e-05
2224.02	-2.53852e-05
2232.69	-2.86019e-05
2241.37	-2.55552e-05
2250.05	-2.68948e-05
2258.73	-2.59652e-05
2267.41	-2.62472e-05
2276.09	-2.694e-05
2284.76	-2.76036e-05
2293.44	-2.50891e-05
2302.12	-2.49836e-05
2310.8	-2.1285e-05
2319.48	-2.01052e-05
2328.15	-1.77655e-05
2336.83	-1.45366e-05
2345.51	-1.85836e-05
2354.19	-1.76562e-05
2362.87	-1.15427e-05
2371.54	-1.94942e-05
2380.22	-2.22713e-05
2388.9	-2.788e-05
2397.58	-2.41366e-05
2406.26	-3.04304e-05
2414.94	-2.77528e-05
2423.61	-2.50959e-05
2432.29	-2.68264e-05
2440.97	-2.90074e-05
2449.65	-2.38504e-05
2458.33	-2.43439e-05
2467	-2.74163e-05
2475.68	-2.67961e-05
2484.36	-2.79105e-05
2493.04	-2.97864e-05
2501.72	-2.50859e-05
2510.4	-2.94382e-05
2519.07	-2.63423e-05
2527.75	-2.56252e-05
2536.43	-1.71125e-05
2545.11	-2.60873e-05
2553.79	-6.09212e-05
2562.46	-9.91917e-05
2571.14	-9.81282e-05
2579.82	-1.79678e-05
2588.5	-1.8546e-05
2597.18	-2.05309e-05
2605.85	-1.86085e-05
2614.53	-1.88277e-05
2623.21	-2.4701e-05
2631.89	-2.57806e-05
2640.57	-2.07438e-05
2649.25	-2.17854e-05
2657.92	-2.81622e-05
2666.6	-2.66574e-05
2675.28	-2.35698e-05
2683.96	-2.36957e-05
2692.64	-2.89759e-05
2701.31	-2.48951e-05
2709.99	-1.79518e-05
2718.67	-2.17311e-05
2727.35	-2.50274e-05
2736.03	-2.02623e-05
2744.71	-2.78696e-05
2753.38	-1.94787e-05
2762.06	-2.5415e-05
2770.74	-2.30134e-05
2779.42	-2.95704e-05
2788.1	-2.79354e-05
2796.77	-2.37408e-05
2805.45	-2.48185e-05
2814.13	-2.7022e-05
2822.81	-2.51188e-05
2831.49	-2.53087e-05
2840.17	-1.78814e-05
2848.84	-2.20506e-05
2857.52	-2.01077e-05
2866.2	-2.40001e-05
2874.88	-2.03249e-05
2883.56	-2.33285e-05
2892.23	-2.32986e-05
2900.91	-2.31132e-05
2909.59	-1.40331e-05
2918.27	-2.45356e-05
2926.95	-2.54932e-05
2935.62	-2.33465e-05
2944.3	-2.98156e-05
2952.98	-1.78413e-05
2961.66	-2.54804e-05
2970.34	-2.9364e-05
2979.02	-2.99038e-05
2987.69	-2.144e-05
2996.37	-1.92396e-05
3005.05	-2.37068e-05
3013.73	-2.69829e-05
3022.41	-2.48086e-05
3031.08	-2.90888e-05
3039.76	-2.75234e-05
3048.44	-2.17713e-05
3057.12	-2.278e-05
3065.8	-1.85998e-05
3074.48	-1.96982e-05
3083.15	-1.73283e-05
3091.83	-2.40694e-05
3100.51	-1.93594e-05
3109.19	-2.24173e-05
3117.87	-1.47055e-05
3126.54	-1.91836e-05
3135.22	-1.48105e-05
3143.9	-2.47007e-05
3152.58	-2.62622e-05
3161.26	-2.23611e-05
3169.93	-1.87977e-05
3178.61	-1.58498e-05
3187.29	-2.51635e-05
3195.97	-1.7468e-05
3204.65	-2.25338e-05
3213.33	-2.07521e-05
3222	-1.91232e-05
3230.68	-1.98388e-05
3239.36	-1.96908e-05
3248.04	-2.30791e-05
3256.72	-2.76963e-05
3265.39	-2.23897e-05
3274.07	-1.98603e-05
3282.75	-1.79263e-05
3291.43	-1.93316e-05
3300.11	-2.59703e-05
3308.79	-1.99668e-05
3317.46	-2.93583e-05
3326.14	-2.5238e-05
3334.82	-2.35079e-05
3343.5	-2.12898e-05
3352.18	-1.6685e-05
3360.85	-1.86172e-05
3369.53	-2.46219e-05
3378.21	-2.2189e-05
3386.89	-1.99256e-05
3395.57	-2.43993e-05
3404.24	-1.77963e-05
3412.92	-2.05449e-05
3421.6	-1.03837e-05
3430.28	-1.88136e-05
3438.96	-1.10313e-05
3447.64	-2.06234e-05
3456.31	-2.31033e-05
3464.99	-8.89741e-06
3473.67	-2.45464e-05
3482.35	-2.42743e-05
3491.03	-2.13149e-05
3499.7	-1.427e-05
3508.38	-1.63514e-05
3517.06	-2.79107e-05
3525.74	-1.89895e-05
3534.42	-1.64113e-05
3543.1	-2.33579e-05
3551.77	-1.7054e-05
3560.45	-2.18808e-05
3569.13	-2.00261e-05
3577.81	-2.15227e-05
3586.49	-1.58135e-05
3595.16	-2.838e-05
3603.84	-2.08479e-05
3612.52	-1.02256e-05
3621.2	-1.98706e-05
3629.88	-3.39888e-06
3638.55	-1.20026e-05
3647.23	-8.62244e-06
3655.91	-3.17048e-06
3664.59	-1.08573e-05
3673.27	-2.22902e-05
3681.95	-2.14139e-05
3690.62	-8.29165e-06
3699.3	-1.52209e-05
3707.98	-2.21348e-05
3716.66	-2.23808e-05
3725.34	-1.74793e-05
3734.01	-1.91989e-05
3742.69	-1.75257e-05
3751.37	-9.91184e-06
3760.05	-4.40278e-06
3768.73	-1.6845e-05
3777.41	-1.92734e-05
3786.08	-2.00254e-05
3794.76	-2.47385e-05
3803.44	-1.66066e-05
3812.12	-1.29201e-05
3820.8	-8.6275e-06
3829.47	-2.02446e-05
3838.15	-3.12601e-06
3846.83	-2.85687e-05
3855.51	-3.3271e-05
3864.19	-1.26384e-05
3872.86	-2.06249e-05
3881.54	-1.89918e-05
3890.22	-1.48607e-05
3898.9	-1.76928e-05
3907.58	-1.11174e-05
3916.26	-1.33598e-05
3924.93	-1.14423e-05
3933.61	-2.00332e-05
3942.29	-1.62654e-05
3950.97	-1.6914e-05
3959.65	-1.64502e-05
3968.32	-1.68567e-05
