Infrared Spectrum: Dichlorodifluoromethane
Formula: C Cl2 F2
CAS: 75-71-8
State: gas
Melting point: -158 C
Boiling point: -29.8 C
Class: IUPAC A
Instrument: IFS66V (Bruker)
Instrument parameters: KBr Beam Splitter; MCT Detector; Multipass cell
Sampling: 1 L/min Flow
Resolution: 0.2410
Temperature: 23 C
Pressure: 101.3 Pa
Origin: NIST, Analytical Chemistry Division, 301-975-3108
cm-1	(micromol/mol)-1m-1 (base 10)
575.05	-1.48163e-06
583.608	8.06924e-06
592.165	-8.54187e-07
600.723	2.20026e-07
609.281	1.16788e-06
617.838	-1.74069e-06
626.396	-5.80381e-07
634.954	1.43218e-06
643.511	6.36317e-06
652.069	2.01176e-05
660.626	4.66831e-05
669.184	7.9342e-05
677.742	5.24833e-05
686.299	9.73069e-06
694.857	7.23592e-07
703.415	-4.71176e-07
711.972	-1.3515e-07
720.53	2.53116e-06
729.088	1.04181e-06
737.645	-8.61041e-07
746.203	7.56012e-07
754.761	2.50059e-07
763.318	1.6329e-06
771.876	-4.91882e-07
780.434	7.80574e-07
788.991	6.04929e-07
797.549	7.48081e-07
806.106	-5.12966e-07
814.664	4.04998e-07
823.222	1.25278e-06
831.779	4.45204e-06
840.337	9.24878e-06
848.895	1.36615e-05
857.452	3.83788e-05
866.01	0.000124458
874.568	0.000311888
883.125	0.000521601
891.683	0.000511857
900.241	0.000284687
908.798	0.000931914
917.356	0.00160781
925.914	0.00174772
934.471	0.00090471
943.029	1.93683e-05
951.586	2.76815e-06
960.144	1.37437e-06
968.702	3.18449e-07
977.259	6.05147e-07
985.817	6.01684e-08
994.375	-1.87359e-07
1002.93	-9.1728e-07
1011.49	-1.52692e-06
1020.05	-2.87528e-07
1028.61	9.96787e-07
1037.16	-1.51636e-07
1045.72	2.0263e-06
1054.28	4.68678e-06
1062.84	1.71584e-05
1071.39	6.34411e-05
1079.95	0.000282615
1088.51	0.000941063
1097.07	0.00158321
1105.62	0.00129898
1114.18	0.000896882
1122.74	0.000317583
1131.3	0.000238062
1139.85	0.000336474
1148.41	0.000903251
1156.97	0.00116592
1165.53	0.000616206
1174.09	0.000390421
1182.64	5.32785e-05
1191.2	9.26338e-06
1199.76	8.42648e-06
1208.32	9.48974e-06
1216.87	4.05637e-06
1225.43	7.26513e-06
1233.99	1.23401e-05
1242.55	2.01835e-05
1251.1	9.59523e-06
1259.66	1.97649e-06
1268.22	2.11601e-07
1276.78	-6.85556e-07
1285.33	-7.32366e-07
1293.89	5.55441e-07
1302.45	6.26391e-07
1311.01	1.27438e-06
1319.57	1.89426e-06
1328.12	2.3732e-06
1336.68	2.57193e-06
1345.24	4.00887e-06
1353.8	3.95405e-06
1362.35	6.13258e-06
1370.91	5.12303e-06
1379.47	7.29119e-06
1388.03	5.97151e-06
1396.58	1.6528e-06
1405.14	-2.13507e-07
1413.7	6.13325e-08
1422.26	-5.82229e-07
1430.81	-5.45037e-07
1439.37	3.44277e-08
1447.93	-1.03961e-06
1456.49	-1.93087e-06
1465.05	-1.88392e-07
1473.6	-2.29644e-07
1482.16	1.23397e-06
1490.72	-2.79656e-07
1499.28	-4.43995e-07
1507.83	-1.28092e-07
1516.39	7.07033e-08
1524.95	2.37618e-08
1533.51	-3.0656e-07
1542.06	-6.95087e-07
1550.62	5.39289e-07
1559.18	4.68819e-07
1567.74	1.056e-06
1576.29	9.0724e-07
1584.85	5.12281e-06
1593.41	5.15386e-06
1601.97	8.259e-07
1610.53	6.61125e-07
1619.08	6.76039e-08
1627.64	-7.68249e-07
1636.2	-4.49466e-07
1644.76	-2.84894e-07
1653.31	-3.32582e-06
1661.87	-6.21735e-07
1670.43	-2.24973e-07
1678.99	-2.0773e-07
1687.54	4.63304e-08
1696.1	-2.00766e-06
1704.66	-3.05425e-07
1713.22	3.52425e-08
1721.77	-3.21432e-07
1730.33	7.02289e-07
1738.89	2.7286e-07
1747.45	1.23561e-06
1756.01	3.15438e-06
1764.56	3.24736e-06
1773.12	1.9932e-06
1781.68	6.67411e-07
1790.24	1.17633e-06
1798.79	2.15666e-06
1807.35	2.39945e-06
1815.91	1.28558e-06
1824.47	1.16424e-06
1833.02	2.46359e-06
1841.58	1.13786e-06
1850.14	6.28952e-07
1858.7	-5.61552e-07
1867.25	-9.14385e-07
1875.81	-2.5892e-07
1884.37	4.38756e-07
1892.93	-3.18812e-08
1901.49	-4.80809e-07
1910.04	4.42612e-07
1918.6	1.04927e-07
1927.16	-9.70843e-08
1935.72	-8.25915e-08
1944.27	1.70116e-07
1952.83	1.12159e-07
1961.39	9.58474e-08
1969.95	-1.31687e-08
1978.5	1.77289e-07
1987.06	1.94663e-07
1995.62	1.71556e-07
2004.18	5.06098e-07
2012.73	7.84765e-07
2021.29	8.05034e-07
2029.85	3.10809e-07
2038.41	6.40433e-07
2046.97	-3.63629e-08
2055.52	4.19942e-08
2064.08	2.70911e-07
2072.64	1.83241e-07
2081.2	-6.58666e-07
2089.75	-3.70978e-07
2098.31	-2.16839e-07
2106.87	-2.87557e-07
2115.43	-8.91583e-07
2123.98	7.98122e-08
2132.54	-1.12683e-07
2141.1	6.39778e-07
2149.66	-1.71702e-07
2158.21	-3.18856e-07
2166.77	5.74794e-07
2175.33	2.23128e-06
2183.89	4.57408e-06
2192.45	7.51399e-06
2201	6.93637e-06
2209.56	2.35038e-06
2218.12	2.68491e-06
2226.68	6.04648e-06
2235.23	1.23815e-05
2243.79	1.67168e-05
2252.35	1.10297e-05
2260.91	6.82908e-06
2269.46	2.14712e-06
2278.02	1.99806e-06
2286.58	5.87351e-07
2295.14	1.5358e-06
2303.69	4.99188e-06
2312.25	8.11175e-06
2320.81	3.9734e-06
2329.37	1.10669e-06
2337.93	-4.07472e-07
2346.48	-4.63275e-07
2355.04	-4.74479e-07
2363.6	4.88041e-07
2372.16	5.03261e-07
2380.71	6.09803e-07
2389.27	1.58679e-07
2397.83	2.44588e-07
2406.39	3.37641e-07
2414.94	2.7075e-07
2423.5	1.89163e-09
2432.06	4.37272e-07
2440.62	1.87111e-07
2449.17	-2.51791e-07
2457.73	-3.36914e-07
2466.29	3.26102e-07
2474.85	1.64863e-08
2483.41	-3.19656e-07
2491.96	1.9542e-07
2500.52	1.73652e-07
2509.08	7.69937e-07
2517.64	6.69841e-07
2526.19	3.27965e-07
2534.75	2.05766e-07
2543.31	4.79441e-07
2551.87	1.00693e-07
2560.42	2.23343e-07
2568.98	-7.50832e-09
2577.54	1.02627e-06
2586.1	-7.54033e-08
2594.65	1.50254e-07
2603.21	-5.72247e-07
2611.77	1.34348e-06
2620.33	4.78859e-07
2628.89	-2.57771e-07
2637.44	1.31832e-07
2646	7.52287e-08
2654.56	9.82629e-08
2663.12	-3.50606e-07
2671.67	4.62722e-08
2680.23	-1.91215e-07
2688.79	2.54104e-07
2697.35	-5.19674e-07
2705.9	6.39706e-07
2714.46	3.34688e-07
2723.02	6.32779e-07
2731.58	-3.05571e-08
2740.13	-7.75568e-08
2748.69	-5.52341e-07
2757.25	2.3398e-08
2765.81	-7.97599e-07
2774.37	1.34117e-07
2782.92	-3.89225e-07
2791.48	3.87391e-07
2800.04	-3.02952e-07
2808.6	-1.80505e-07
2817.15	-2.0207e-07
2825.71	-5.98628e-08
2834.27	4.20669e-07
2842.83	-9.73753e-08
2851.38	-2.993e-07
2859.94	-4.76894e-07
2868.5	9.25444e-08
2877.06	1.19843e-06
2885.61	-8.81267e-07
2894.17	3.18507e-07
2902.73	3.79708e-07
2911.29	-3.25899e-07
2919.85	1.33884e-07
2928.4	-8.33336e-07
2936.96	3.66598e-07
2945.52	1.71702e-08
2954.08	-6.04201e-07
2962.63	-1.16881e-06
2971.19	3.34411e-07
2979.75	-4.93352e-07
2988.31	-4.0932e-08
2996.86	4.12055e-07
3005.42	-1.3985e-07
3013.98	9.46135e-07
3022.54	6.82515e-07
3031.09	2.00178e-07
3039.65	-1.58897e-08
3048.21	-4.03674e-07
3056.77	2.18687e-07
3065.33	-9.76067e-07
3073.88	-1.24993e-07
3082.44	-1.30959e-08
3091	8.37585e-07
3099.56	-2.55996e-07
3108.11	6.39968e-07
3116.67	-5.34051e-07
3125.23	-2.25992e-07
3133.79	5.17084e-07
3142.34	-8.16166e-08
3150.9	2.65672e-07
3159.46	2.59357e-07
3168.02	3.93968e-07
3176.57	-4.40939e-07
3185.13	-1.00943e-06
3193.69	-1.76344e-07
3202.25	9.20991e-07
3210.81	1.70247e-08
3219.36	5.23356e-07
3227.92	-1.00104e-06
3236.48	1.25991e-06
3245.04	-6.89063e-07
3253.59	-3.27179e-07
3262.15	1.62957e-07
3270.71	-5.92691e-07
3279.27	1.10185e-06
3287.82	-8.41048e-08
3296.38	4.59928e-07
3304.94	-1.97282e-07
3313.5	-1.11723e-07
3322.05	1.96948e-07
3330.61	2.95487e-07
3339.17	-1.14706e-07
3347.73	8.13372e-07
3356.29	-1.56234e-07
3364.84	7.0469e-07
3373.4	-3.19511e-07
3381.96	1.01442e-06
3390.52	-2.7596e-07
3399.07	-7.84881e-08
3407.63	1.19289e-07
3416.19	1.02061e-07
3424.75	-1.68501e-08
3433.3	5.25378e-07
3441.86	6.22244e-07
3450.42	-3.75998e-07
3458.98	-1.20741e-06
3467.53	-3.08336e-08
3476.09	-4.1466e-07
3484.65	-3.85689e-07
3493.21	1.79399e-07
3501.77	4.18065e-07
3510.32	1.68617e-07
3518.88	7.03832e-08
3527.44	1.94547e-07
3536	6.81874e-07
3544.55	6.1654e-07
3553.11	-4.34071e-07
3561.67	-2.86014e-07
3570.23	-4.78757e-07
3578.78	-4.22474e-07
3587.34	3.70177e-08
3595.9	-6.62827e-07
3604.46	3.88424e-07
3613.01	9.65313e-08
3621.57	1.81035e-06
3630.13	3.06997e-07
3638.69	-4.77127e-08
3647.25	-4.3653e-07
3655.8	-3.44029e-07
3664.36	3.70236e-07
3672.92	2.84909e-08
3681.48	5.69017e-07
3690.03	-3.02879e-07
3698.59	1.00075e-06
3707.15	1.26386e-06
3715.71	3.09165e-07
3724.26	7.00529e-07
3732.82	1.07213e-06
3741.38	-3.24167e-07
3749.94	2.31041e-07
3758.49	5.05065e-08
3767.05	3.32796e-07
3775.61	-5.41006e-08
3784.17	7.9092e-07
3792.73	1.58551e-06
3801.28	-1.09364e-06
3809.84	2.48124e-07
3818.4	3.93328e-07
3826.96	1.11808e-06
3835.51	-9.98635e-08
3844.07	4.93512e-07
3852.63	8.66076e-08
3861.19	-1.31716e-07
3869.74	-4.05391e-07
3878.3	2.18876e-07
3886.86	7.91429e-08
3895.42	4.39047e-07
3903.97	1.2201e-07
3912.53	-2.08225e-07
3921.09	-3.69304e-08
3929.65	4.73475e-07
3938.21	1.16597e-07
3946.76	1.01522e-07
3955.32	3.83041e-07
3963.88	-2.11601e-07
3972.44	1.64717e-07
