Infrared Spectrum: Dichlorodifluoromethane
Formula: C Cl2 F2
CAS: 75-71-8
State: gas
Melting point: -158 C
Boiling point: -29.8 C
Class: IUPAC A
Instrument: IFS66V (Bruker)
Instrument parameters: KBr Beam Splitter; MCT Detector; Multipass cell
Sampling: 1 L/min Flow
Resolution: 0.1250
Temperature: 23 C
Pressure: 101.3 Pa
Origin: NIST, Analytical Chemistry Division, 301-975-3108
cm-1	(micromol/mol)-1m-1 (base 10)
575.05	3.6593e-06
583.608	1.19875e-05
592.165	-1.11126e-06
600.723	2.55094e-07
609.281	1.04124e-06
617.838	-1.40555e-06
626.396	9.25298e-08
634.954	2.59504e-06
643.511	9.0148e-06
652.069	2.0718e-05
660.626	4.66191e-05
669.184	7.87863e-05
677.742	5.20054e-05
686.299	8.29743e-06
694.857	3.41381e-07
703.415	-1.16651e-06
711.972	-3.75576e-07
720.53	2.37123e-06
729.088	1.14477e-06
737.645	-8.17141e-07
746.203	9.46455e-07
754.761	3.15902e-08
763.318	2.58407e-06
771.876	-4.97542e-07
780.434	8.10796e-07
788.991	9.5798e-07
797.549	1.32945e-06
806.106	-8.87815e-07
814.664	4.5824e-07
823.222	7.72382e-07
831.779	5.12718e-06
840.337	9.4365e-06
848.895	1.33013e-05
857.452	3.81498e-05
866.01	0.000123173
874.568	0.000311176
883.125	0.000522789
891.683	0.000516068
900.241	0.000281506
908.798	0.000932632
917.356	0.00161776
925.914	0.00175897
934.471	0.000902785
943.029	1.70417e-05
951.586	1.71174e-06
960.144	1.19695e-06
968.702	-4.16682e-07
977.259	3.53196e-07
985.817	-4.1853e-07
994.375	-3.68271e-07
1002.93	-1.47713e-06
1011.49	-2.40871e-06
1020.05	-6.20018e-08
1028.61	1.2052e-06
1037.16	-8.50171e-07
1045.72	1.72457e-06
1054.28	4.74441e-06
1062.84	1.67478e-05
1071.39	6.2548e-05
1079.95	0.000281679
1088.51	0.000942029
1097.07	0.00158752
1105.62	0.0012912
1114.18	0.000898147
1122.74	0.000316199
1131.3	0.00023689
1139.85	0.000333998
1148.41	0.000904699
1156.97	0.00119101
1165.53	0.000614857
1174.09	0.000390378
1182.64	5.19388e-05
1191.2	8.63621e-06
1199.76	8.0293e-06
1208.32	9.19823e-06
1216.87	3.64268e-06
1225.43	6.98356e-06
1233.99	1.23259e-05
1242.55	2.04979e-05
1251.1	9.58744e-06
1259.66	1.79853e-06
1268.22	2.62224e-07
1276.78	-1.11833e-06
1285.33	-1.01365e-06
1293.89	3.62291e-07
1302.45	5.94132e-07
1311.01	1.14234e-06
1319.57	1.94508e-06
1328.12	2.60589e-06
1336.68	2.29298e-06
1345.24	4.62495e-06
1353.8	4.31846e-06
1362.35	6.41536e-06
1370.91	4.54678e-06
1379.47	8.21432e-06
1388.03	5.57424e-06
1396.58	1.60902e-06
1405.14	-3.43636e-07
1413.7	6.49367e-07
1422.26	-8.19643e-07
1430.81	-5.67533e-07
1439.37	1.74103e-07
1447.93	-2.02071e-06
1456.49	-2.88641e-06
1465.05	-5.41996e-07
1473.6	-5.8204e-11
1482.16	1.48737e-06
1490.72	-2.2589e-07
1499.28	-1.64485e-07
1507.83	-4.49131e-07
1516.39	2.02535e-07
1524.95	9.74771e-08
1533.51	-6.03634e-07
1542.06	-8.30076e-07
1550.62	3.39475e-07
1559.18	6.09454e-07
1567.74	1.16053e-06
1576.29	8.26861e-07
1584.85	5.34655e-06
1593.41	5.09119e-06
1601.97	7.64539e-07
1610.53	6.83213e-07
1619.08	2.6119e-08
1627.64	-8.01178e-07
1636.2	-4.84854e-07
1644.76	-5.04672e-07
1653.31	-3.95051e-06
1661.87	-8.98059e-07
1670.43	-2.85025e-07
1678.99	-2.64042e-07
1687.54	4.03063e-07
1696.1	-1.86615e-06
1704.66	-2.32103e-07
1713.22	-7.98704e-08
1721.77	-4.5776e-07
1730.33	1.12775e-06
1738.89	1.86471e-07
1747.45	9.80592e-07
1756.01	3.28876e-06
1764.56	3.11505e-06
1773.12	2.33987e-06
1781.68	8.64839e-07
1790.24	1.16127e-06
1798.79	2.03199e-06
1807.35	2.5208e-06
1815.91	1.04185e-06
1824.47	9.39616e-07
1833.02	2.6228e-06
1841.58	1.00419e-06
1850.14	4.03019e-07
1858.7	-5.39333e-07
1867.25	-8.4032e-07
1875.81	-1.18227e-07
1884.37	5.85008e-07
1892.93	-2.46916e-07
1901.49	-8.45195e-07
1910.04	9.60512e-07
1918.6	4.84941e-07
1927.16	-4.53118e-08
1935.72	-2.49375e-07
1944.27	2.13929e-07
1952.83	3.52032e-07
1961.39	-1.27641e-07
1969.95	1.35164e-07
1978.5	2.0888e-07
1987.06	1.23101e-07
1995.62	4.99274e-07
2004.18	8.2932e-07
2012.73	8.48134e-07
2021.29	1.03679e-06
2029.85	3.63877e-07
2038.41	8.16413e-07
2046.97	1.91753e-07
2055.52	-3.3703e-07
2064.08	4.32063e-07
2072.64	-1.5846e-08
2081.2	-8.33874e-07
2089.75	-6.78819e-07
2098.31	-1.83983e-07
2106.87	-5.78038e-07
2115.43	-9.70217e-07
2123.98	2.50044e-07
2132.54	1.0142e-07
2141.1	8.04001e-07
2149.66	8.73351e-08
2158.21	-2.50743e-07
2166.77	6.90299e-07
2175.33	2.20989e-06
2183.89	4.49344e-06
2192.45	7.53208e-06
2201	7.00597e-06
2209.56	2.34099e-06
2218.12	2.57003e-06
2226.68	6.00262e-06
2235.23	1.26471e-05
2243.79	1.65355e-05
2252.35	1.08228e-05
2260.91	6.87501e-06
2269.46	2.34462e-06
2278.02	2.08315e-06
2286.58	5.53476e-07
2295.14	1.67648e-06
2303.69	5.36638e-06
2312.25	8.3897e-06
2320.81	4.15764e-06
2329.37	1.56893e-06
2337.93	-4.59855e-07
2346.48	-2.7433e-07
2355.04	-7.14745e-07
2363.6	2.59575e-07
2372.16	4.34697e-07
2380.71	8.02109e-07
2389.27	2.25453e-07
2397.83	1.60279e-07
2406.39	4.72587e-07
2414.94	7.14163e-08
2423.5	2.28029e-07
2432.06	2.75218e-07
2440.62	4.4788e-08
2449.17	-5.72e-07
2457.73	-5.09547e-07
2466.29	3.21286e-07
2474.85	7.73822e-08
2483.41	-6.62711e-07
2491.96	6.35326e-07
2500.52	2.00178e-07
2509.08	7.36761e-07
2517.64	8.35824e-07
2526.19	5.05691e-07
2534.75	1.3547e-08
2543.31	-1.27118e-07
2551.87	-5.33876e-08
2560.42	3.06211e-07
2568.98	-2.5895e-07
2577.54	1.59485e-06
2586.1	9.11911e-08
2594.65	3.83841e-07
2603.21	-1.08743e-06
2611.77	1.62852e-06
2620.33	6.17341e-07
2628.89	-1.60905e-07
2637.44	3.46765e-07
2646	3.34426e-07
2654.56	2.81314e-07
2663.12	-2.47076e-08
2671.67	5.50464e-08
2680.23	-3.87857e-07
2688.79	5.22061e-07
2697.35	-4.65486e-07
2705.9	7.90439e-07
2714.46	2.7302e-07
2723.02	1.42187e-06
2731.58	-5.16706e-08
2740.13	-1.22971e-07
2748.69	-8.65101e-07
2757.25	1.65707e-07
2765.81	-9.83458e-07
2774.37	3.17343e-07
2782.92	-6.00549e-07
2791.48	6.47199e-07
2800.04	-1.03949e-06
2808.6	-3.18943e-07
2817.15	4.69735e-07
2825.71	-9.84666e-08
2834.27	6.96047e-07
2842.83	-2.59386e-07
2851.38	-9.37637e-07
2859.94	-5.25553e-07
2868.5	2.12343e-07
2877.06	1.56883e-06
2885.61	-1.22509e-06
2894.17	4.53482e-07
2902.73	7.30256e-07
2911.29	-9.29969e-07
2919.85	3.3121e-07
2928.4	-1.50721e-06
2936.96	6.40128e-07
2945.52	7.70766e-08
2954.08	-1.15573e-06
2962.63	-1.91947e-06
2971.19	4.90747e-07
2979.75	-6.20833e-07
2988.31	-6.05467e-08
2996.86	4.31306e-07
3005.42	-1.14938e-07
3013.98	1.38092e-06
3022.54	1.27337e-06
3031.09	1.00838e-08
3039.65	3.53909e-07
3048.21	-8.63427e-07
3056.77	3.05571e-07
3065.33	-1.08588e-06
3073.88	2.35726e-08
3082.44	1.93368e-07
3091	9.12188e-07
3099.56	-4.39498e-07
3108.11	3.68068e-07
3116.67	-3.05164e-07
3125.23	-2.03088e-07
3133.79	4.43602e-07
3142.34	4.72893e-07
3150.9	1.84448e-07
3159.46	4.02568e-07
3168.02	3.98043e-07
3176.57	-6.35879e-07
3185.13	-1.67478e-06
3193.69	-2.29688e-07
3202.25	8.24882e-07
3210.81	-3.88453e-07
3219.36	6.23641e-07
3227.92	-1.13128e-06
3236.48	2.2761e-06
3245.04	-4.97048e-07
3253.59	-2.5652e-07
3262.15	2.54657e-07
3270.71	-2.57058e-07
3279.27	1.07431e-06
3287.82	-5.02984e-07
3296.38	8.47654e-07
3304.94	-6.91798e-07
3313.5	-2.75654e-07
3322.05	-2.34562e-08
3330.61	-1.52378e-07
3339.17	9.90632e-08
3347.73	1.16516e-06
3356.29	6.78368e-08
3364.84	6.31412e-07
3373.4	-2.30313e-07
3381.96	2.00705e-06
3390.52	-1.10518e-06
3399.07	-3.57518e-08
3407.63	-1.28485e-08
3416.19	-5.12835e-07
3424.75	-1.77377e-07
3433.3	8.98917e-07
3441.86	7.40981e-07
3450.42	-8.15816e-07
3458.98	-2.05683e-06
3467.53	5.09765e-07
3476.09	-5.90218e-07
3484.65	-4.1693e-07
3493.21	4.23143e-08
3501.77	1.07401e-06
3510.32	5.38591e-07
3518.88	-8.99106e-08
3527.44	5.007e-07
3536	8.61157e-07
3544.55	6.68269e-07
3553.11	-3.95016e-07
3561.67	-1.71731e-07
3570.23	-1.11304e-06
3578.78	-3.11813e-07
3587.34	-3.14098e-07
3595.9	-8.51132e-07
3604.46	6.42863e-07
3613.01	1.86355e-07
3621.57	2.38807e-06
3630.13	-1.11155e-07
3638.69	-6.48058e-07
3647.25	-1.04699e-06
3655.8	-3.92644e-07
3664.36	3.777e-07
3672.92	-4.23638e-07
3681.48	7.26459e-07
3690.03	-2.04718e-07
3698.59	9.61254e-07
3707.15	1.55509e-06
3715.71	3.4368e-07
3724.26	8.21244e-07
3732.82	1.38562e-06
3741.38	-9.37303e-07
3749.94	8.26293e-07
3758.49	-1.8295e-07
3767.05	5.24403e-07
3775.61	-5.23501e-07
3784.17	9.47212e-07
3792.73	2.48822e-06
3801.28	-1.69492e-06
3809.84	6.95727e-07
3818.4	2.18207e-07
3826.96	1.10685e-06
3835.51	3.02413e-07
3844.07	6.1964e-07
3852.63	4.14776e-07
3861.19	-5.44106e-07
3869.74	-4.61048e-07
3878.3	1.73753e-07
3886.86	-3.45033e-07
3895.42	1.36794e-07
3903.97	5.44367e-07
3912.53	-3.10373e-07
3921.09	-2.86524e-07
3929.65	3.88483e-07
3938.21	-7.50686e-08
3946.76	-3.06924e-07
3955.32	4.01957e-07
3963.88	-6.56337e-07
3972.44	-1.65154e-07
