Infrared Spectrum: Carbon tetrafluoride
Formula: C F4
CAS: 75-73-0
State: gas
Melting point: -150 C
Boiling point: -129 C
Class: IUPAC A
Instrument: IFS66V (Bruker)
Instrument parameters: KBr Beam Splitter; MCT Detector; Multipass cell
Sampling: 1 L/min Flow
Resolution: 0.9640
Temperature: 23 C
Pressure: 101.3 Pa
Origin: NIST, Analytical Chemistry Division, 301-975-3108
cm-1	(micromol/mol)-1m-1 (base 10)
575.168	-9.88603e-05
583.846	-1.45548e-05
592.524	-7.6732e-06
601.202	-1.38874e-05
609.881	-1.2486e-05
618.559	-4.22117e-06
627.237	-3.76797e-05
635.915	-3.41404e-05
644.593	-2.12948e-05
653.271	-3.18648e-06
661.949	-3.27195e-05
670.628	-2.70115e-05
679.306	-2.8108e-05
687.984	-4.18156e-05
696.662	-4.275e-05
705.34	-1.40646e-05
714.018	-2.50835e-05
722.697	-2.44299e-05
731.375	-3.36285e-05
740.053	-3.05605e-05
748.731	-2.83465e-05
757.409	-2.78973e-05
766.087	-2.53216e-05
774.765	-2.5976e-05
783.444	-3.75668e-05
792.122	-3.32433e-05
800.8	-2.97855e-05
809.478	-2.57738e-05
818.156	-3.66058e-05
826.834	-3.16653e-05
835.512	-4.08015e-05
844.191	-3.43024e-05
852.869	-2.92216e-05
861.547	-2.37927e-05
870.225	-3.41569e-05
878.903	-2.38281e-05
887.581	-3.47289e-05
896.26	-2.23761e-05
904.938	-3.00245e-05
913.616	-3.6401e-05
922.294	-3.46439e-05
930.972	-3.00373e-05
939.65	-3.97436e-05
948.328	-2.38621e-05
957.007	-3.58874e-05
965.685	-2.78862e-05
974.363	-2.1546e-05
983.041	-2.65469e-05
991.719	-3.10177e-05
1000.4	-2.33291e-05
1009.08	-2.6861e-05
1017.75	-2.58797e-05
1026.43	-2.89898e-05
1035.11	-3.36374e-05
1043.79	-2.44857e-05
1052.47	-2.34832e-05
1061.14	-1.94832e-05
1069.82	-2.41571e-05
1078.5	-2.77233e-05
1087.18	-3.38317e-05
1095.86	-2.38532e-05
1104.54	-1.96629e-05
1113.21	-3.25011e-05
1121.89	-2.45327e-05
1130.57	-3.43787e-05
1139.25	-2.72087e-05
1147.93	-2.82326e-05
1156.6	-2.93399e-05
1165.28	-2.86324e-05
1173.96	-2.4425e-05
1182.64	-3.0752e-05
1191.32	-3.20853e-05
1199.99	-2.25832e-05
1208.67	-1.99681e-05
1217.35	-2.28171e-05
1226.03	-1.94318e-05
1234.71	3.5922e-05
1243.39	0.000344977
1252.06	0.000206887
1260.74	0.000680795
1269.42	0.00111255
1278.1	0.0107662
1286.78	0.00512011
1295.45	-1.59656e-06
1304.13	-3.81347e-05
1312.81	-3.11084e-05
1321.49	-4.00933e-05
1330.17	-3.42453e-05
1338.85	-2.79388e-05
1347.52	-3.75758e-05
1356.2	1.50529e-06
1364.88	-3.41637e-05
1373.56	-2.77956e-05
1382.24	-3.51615e-05
1390.91	-3.53694e-05
1399.59	-2.26039e-05
1408.27	-2.98573e-05
1416.95	-3.05651e-05
1425.63	-2.61255e-05
1434.3	-3.37052e-05
1442.98	-3.35009e-05
1451.66	-3.00745e-05
1460.34	-2.85049e-05
1469.02	-2.80765e-05
1477.7	-2.57387e-05
1486.37	-2.54221e-05
1495.05	-2.50596e-05
1503.73	-2.34653e-05
1512.41	-7.17908e-06
1521.09	3.06968e-05
1529.76	-1.09388e-05
1538.44	9.85177e-05
1547.12	-2.51968e-05
1555.8	-9.34275e-06
1564.48	-1.40269e-05
1573.16	-2.77714e-05
1581.83	-2.95403e-05
1590.51	-3.61545e-05
1599.19	-2.70103e-05
1607.87	-2.6208e-05
1616.55	9.34997e-06
1625.22	-3.32807e-05
1633.9	-2.65055e-05
1642.58	-2.51464e-05
1651.26	-2.75367e-05
1659.94	-2.46523e-05
1668.61	-2.00524e-05
1677.29	-2.80912e-05
1685.97	-2.47159e-05
1694.65	-1.80092e-05
1703.33	-2.51361e-05
1712.01	-3.0772e-05
1720.68	-2.57379e-05
1729.36	-2.4836e-05
1738.04	-2.68567e-05
1746.72	-2.61431e-05
1755.4	-3.06507e-05
1764.07	-3.45648e-05
1772.75	-1.78486e-06
1781.43	-2.76224e-05
1790.11	-2.78341e-05
1798.79	-2.77736e-05
1807.47	-2.42536e-05
1816.14	-2.28194e-05
1824.82	-2.18596e-05
1833.5	-2.67338e-05
1842.18	-3.09992e-05
1850.86	-3.32114e-05
1859.53	-3.18725e-05
1868.21	-2.65757e-05
1876.89	-2.91086e-05
1885.57	-2.43813e-05
1894.25	-2.60228e-05
1902.92	-2.79509e-05
1911.6	-2.19045e-05
1920.28	-2.49848e-05
1928.96	-2.51385e-05
1937.64	-2.81803e-05
1946.32	-2.75405e-05
1954.99	-2.89686e-05
1963.67	-2.53212e-05
1972.35	-2.93794e-05
1981.03	-2.91868e-05
1989.71	-2.97863e-05
1998.38	-3.17499e-05
2007.06	-2.76609e-05
2015.74	-2.48269e-05
2024.42	-3.10087e-05
2033.1	-3.14381e-05
2041.78	-2.93855e-05
2050.45	-2.62652e-05
2059.13	-3.05895e-05
2067.81	-2.78518e-05
2076.49	-3.46264e-05
2085.17	-3.06273e-05
2093.84	-2.67565e-05
2102.52	-2.98475e-05
2111.2	-2.72811e-05
2119.88	-2.90314e-05
2128.56	-2.7426e-05
2137.23	-2.7808e-05
2145.91	-2.32366e-05
2154.59	-3.08968e-05
2163.27	-2.47465e-05
2171.95	-1.60116e-05
2180.63	2.58591e-05
2189.3	9.42843e-06
2197.98	-2.47389e-05
2206.66	-2.94499e-05
2215.34	-2.9278e-05
2224.02	-2.44831e-05
2232.69	-2.8934e-05
2241.37	-2.44652e-05
2250.05	-2.68244e-05
2258.73	-2.63485e-05
2267.41	-2.62899e-05
2276.09	-2.66223e-05
2284.76	-2.78264e-05
2293.44	-2.57549e-05
2302.12	-2.4804e-05
2310.8	-2.06058e-05
2319.48	-2.02009e-05
2328.15	-1.87842e-05
2336.83	-1.70324e-05
2345.51	-1.95148e-05
2354.19	-1.65554e-05
2362.87	-8.53478e-06
2371.54	-1.9404e-05
2380.22	-2.25493e-05
2388.9	-2.82407e-05
2397.58	-2.4007e-05
2406.26	-3.18312e-05
2414.94	-2.74376e-05
2423.61	-2.51865e-05
2432.29	-2.72235e-05
2440.97	-3.03218e-05
2449.65	-2.50229e-05
2458.33	-2.37577e-05
2467	-2.82412e-05
2475.68	-2.74336e-05
2484.36	-2.85428e-05
2493.04	-3.06544e-05
2501.72	-2.577e-05
2510.4	-3.07624e-05
2519.07	-2.63486e-05
2527.75	-2.55471e-05
2536.43	-1.65307e-05
2545.11	-2.65058e-05
2553.79	-6.05603e-05
2562.46	-9.58743e-05
2571.14	-9.85024e-05
2579.82	-1.80885e-05
2588.5	-1.82832e-05
2597.18	-2.01888e-05
2605.85	-1.95879e-05
2614.53	-1.84279e-05
2623.21	-2.49565e-05
2631.89	-2.52065e-05
2640.57	-1.92158e-05
2649.25	-2.14069e-05
2657.92	-2.96828e-05
2666.6	-2.7585e-05
2675.28	-2.26644e-05
2683.96	-2.40001e-05
2692.64	-3.00871e-05
2701.31	-2.43171e-05
2709.99	-1.69534e-05
2718.67	-2.20701e-05
2727.35	-2.49644e-05
2736.03	-1.78605e-05
2744.71	-2.8121e-05
2753.38	-1.91933e-05
2762.06	-2.60066e-05
2770.74	-2.2784e-05
2779.42	-3.04321e-05
2788.1	-2.82888e-05
2796.77	-2.31921e-05
2805.45	-2.54118e-05
2814.13	-2.75643e-05
2822.81	-2.53406e-05
2831.49	-2.51667e-05
2840.17	-1.85372e-05
2848.84	-2.26439e-05
2857.52	-1.9327e-05
2866.2	-2.36025e-05
2874.88	-2.03673e-05
2883.56	-2.36759e-05
2892.23	-2.27102e-05
2900.91	-2.33876e-05
2909.59	-1.38505e-05
2918.27	-2.52537e-05
2926.95	-2.58085e-05
2935.62	-2.38837e-05
2944.3	-2.98194e-05
2952.98	-1.57482e-05
2961.66	-2.45997e-05
2970.34	-3.00666e-05
2979.02	-3.00351e-05
2987.69	-2.30124e-05
2996.37	-2.00459e-05
3005.05	-2.44329e-05
3013.73	-2.79879e-05
3022.41	-2.59976e-05
3031.08	-3.1027e-05
3039.76	-2.79678e-05
3048.44	-2.15561e-05
3057.12	-2.28811e-05
3065.8	-1.78621e-05
3074.48	-1.90762e-05
3083.15	-1.68122e-05
3091.83	-2.43e-05
3100.51	-1.88076e-05
3109.19	-2.04719e-05
3117.87	-1.37882e-05
3126.54	-1.91275e-05
3135.22	-1.43565e-05
3143.9	-2.52531e-05
3152.58	-2.59389e-05
3161.26	-2.22958e-05
3169.93	-1.80253e-05
3178.61	-1.40186e-05
3187.29	-2.59216e-05
3195.97	-1.72354e-05
3204.65	-2.33297e-05
3213.33	-2.14736e-05
3222	-1.88358e-05
3230.68	-1.94509e-05
3239.36	-1.74552e-05
3248.04	-2.33568e-05
3256.72	-2.82963e-05
3265.39	-2.21648e-05
3274.07	-1.9999e-05
3282.75	-1.76092e-05
3291.43	-1.83999e-05
3300.11	-2.64756e-05
3308.79	-1.94124e-05
3317.46	-3.31502e-05
3326.14	-2.4229e-05
3334.82	-2.32189e-05
3343.5	-2.19545e-05
3352.18	-1.63018e-05
3360.85	-1.601e-05
3369.53	-2.50267e-05
3378.21	-2.21851e-05
3386.89	-1.90809e-05
3395.57	-2.31735e-05
3404.24	-1.66573e-05
3412.92	-1.92272e-05
3421.6	-9.60631e-06
3430.28	-1.85364e-05
3438.96	-9.24991e-06
3447.64	-2.25773e-05
3456.31	-2.44228e-05
3464.99	-8.89508e-06
3473.67	-2.45745e-05
3482.35	-2.58515e-05
3491.03	-2.08024e-05
3499.7	-1.30551e-05
3508.38	-1.41328e-05
3517.06	-2.91793e-05
3525.74	-2.03814e-05
3534.42	-1.55811e-05
3543.1	-2.43987e-05
3551.77	-1.60909e-05
3560.45	-2.42567e-05
3569.13	-2.21353e-05
3577.81	-2.16976e-05
3586.49	-1.46477e-05
3595.16	-2.82838e-05
3603.84	-2.05616e-05
3612.52	-7.26092e-06
3621.2	-2.1056e-05
3629.88	-3.39871e-06
3638.55	-1.18235e-05
3647.23	-7.26767e-06
3655.91	-2.08655e-06
3664.59	-8.95608e-06
3673.27	-2.33118e-05
3681.95	-2.3534e-05
3690.62	-8.12011e-06
3699.3	-1.75711e-05
3707.98	-2.23167e-05
3716.66	-2.46417e-05
3725.34	-1.68368e-05
3734.01	-2.03683e-05
3742.69	-1.91039e-05
3751.37	-1.42069e-05
3760.05	-1.45902e-06
3768.73	-1.68215e-05
3777.41	-1.88648e-05
3786.08	-2.07276e-05
3794.76	-2.58962e-05
3803.44	-1.53141e-05
3812.12	-1.25427e-05
3820.8	-8.89461e-06
3829.47	-2.12312e-05
3838.15	-1.66024e-06
3846.83	-2.47603e-05
3855.51	-3.73928e-05
3864.19	-1.40206e-05
3872.86	-2.18142e-05
3881.54	-1.86406e-05
3890.22	-1.61102e-05
3898.9	-1.89518e-05
3907.58	-9.98669e-06
3916.26	-1.46155e-05
3924.93	-1.55052e-05
3933.61	-1.82026e-05
3942.29	-1.62242e-05
3950.97	-1.52587e-05
3959.65	-1.63657e-05
3968.32	-1.78824e-05
