Infrared Spectrum: Dichlorodifluoromethane
Formula: C Cl2 F2
CAS: 75-71-8
State: gas
Melting point: -158 C
Boiling point: -29.8 C
Class: IUPAC A
Instrument: IFS66V (Bruker)
Instrument parameters: KBr Beam Splitter; MCT Detector; Multipass cell
Sampling: 1 L/min Flow
Resolution: 1.9290
Temperature: 23 C
Pressure: 101.3 Pa
Origin: NIST, Analytical Chemistry Division, 301-975-3108
cm-1	(micromol/mol)-1m-1 (base 10)
575.652	-1.05244e-06
584.33	-1.12375e-06
593.008	-1.75616e-06
601.687	-8.25294e-07
610.365	5.10743e-07
619.043	-1.3521e-06
627.721	-1.87134e-07
636.399	1.88407e-08
645.077	4.78605e-06
653.756	2.71901e-05
662.434	5.87718e-05
671.112	6.84226e-05
679.79	4.33148e-05
688.468	5.6277e-06
697.146	3.66984e-07
705.825	5.79277e-07
714.503	1.42598e-06
723.181	6.55113e-07
731.859	1.58359e-06
740.537	5.22846e-07
749.216	1.80489e-06
757.894	6.20902e-07
766.572	1.37218e-06
775.25	-4.28141e-07
783.928	1.84729e-07
792.606	-1.01778e-06
801.285	-2.25732e-08
809.963	-1.04305e-06
818.641	6.27298e-07
827.319	1.91606e-06
835.997	4.15737e-06
844.676	6.49785e-06
853.354	2.14951e-05
862.032	7.33028e-05
870.71	0.000216687
879.388	0.00039742
888.066	0.00054566
896.745	0.000319896
905.423	0.000516766
914.101	0.00158204
922.779	0.00276174
931.457	0.00178399
940.135	7.48043e-05
948.814	3.37579e-06
957.492	-7.3642e-08
966.17	7.83826e-07
974.848	-6.1674e-07
983.526	6.98259e-08
992.205	-9.10192e-07
1000.88	-1.38229e-07
1009.56	-8.70931e-07
1018.24	-4.57597e-07
1026.92	-3.11484e-07
1035.6	1.56273e-07
1044.27	6.02727e-07
1052.95	3.31808e-06
1061.63	1.43275e-05
1070.31	5.18096e-05
1078.99	0.000236664
1087.66	0.000865814
1096.34	0.00151407
1105.02	0.00142276
1113.7	0.000956966
1122.38	0.000321103
1131.06	0.000247238
1139.73	0.000331256
1148.41	0.000907907
1157.09	0.00117909
1165.77	0.000612346
1174.45	0.000370914
1183.12	4.50101e-05
1191.8	8.73005e-06
1200.48	8.55912e-06
1209.16	6.68902e-06
1217.84	4.11212e-06
1226.52	8.74252e-06
1235.19	1.25815e-05
1243.87	1.616e-05
1252.55	7.93862e-06
1261.23	1.35346e-06
1269.91	-4.28959e-07
1278.58	-3.55787e-08
1287.26	-2.12508e-07
1295.94	5.51793e-07
1304.62	4.16922e-07
1313.3	1.32258e-06
1321.98	1.79518e-06
1330.65	2.50788e-06
1339.33	2.83618e-06
1348.01	4.13541e-06
1356.69	5.59019e-06
1365.37	5.66341e-06
1374.04	7.18903e-06
1382.72	7.13432e-06
1391.4	4.68482e-06
1400.08	9.60824e-07
1408.76	1.87981e-07
1417.44	1.73881e-07
1426.11	-9.95875e-08
1434.79	1.32714e-07
1443.47	-1.0758e-07
1452.15	-3.78378e-07
1460.83	7.5832e-08
1469.5	1.08771e-06
1478.18	1.52969e-06
1486.86	5.65031e-07
1495.54	-6.54378e-07
1504.22	-3.07719e-07
1512.9	-1.11851e-07
1521.57	-2.49691e-07
1530.25	5.26324e-07
1538.93	-2.32193e-07
1547.61	4.54275e-07
1556.29	4.18122e-07
1564.96	6.56321e-07
1573.64	2.34047e-06
1582.32	4.35208e-06
1591	4.42511e-06
1599.68	2.87552e-06
1608.36	-1.12404e-07
1617.03	-8.83337e-07
1625.71	-2.21515e-07
1634.39	-5.33793e-07
1643.07	-1.64069e-09
1651.75	-9.71945e-07
1660.42	-2.08328e-07
1669.1	-5.65901e-07
1677.78	-1.13753e-07
1686.46	-2.37249e-07
1695.14	-8.45659e-07
1703.82	-4.10126e-07
1712.49	-1.89691e-07
1721.17	-7.17758e-08
1729.85	-2.80482e-08
1738.53	7.87169e-08
1747.21	1.59101e-06
1755.88	2.84985e-06
1764.56	3.21446e-06
1773.24	1.49491e-06
1781.92	5.35466e-07
1790.6	1.1177e-06
1799.28	2.23233e-06
1807.95	2.2966e-06
1816.63	1.90105e-06
1825.31	1.48079e-06
1833.99	1.8016e-06
1842.67	1.43042e-06
1851.34	7.05443e-07
1860.02	-7.58844e-07
1868.7	-7.09198e-07
1877.38	-4.03152e-07
1886.06	-7.25288e-08
1894.74	-2.50193e-07
1903.41	-9.08529e-08
1912.09	-4.65506e-08
1920.77	-4.07918e-08
1929.45	-1.26821e-07
1938.13	-1.05976e-07
1946.8	-9.75976e-08
1955.48	4.33056e-08
1964.16	1.00552e-07
1972.84	2.75091e-07
1981.52	-3.41017e-08
1990.19	1.62196e-07
1998.87	2.51925e-07
2007.55	5.93665e-07
2016.23	5.53921e-07
2024.91	2.02616e-07
2033.59	1.5058e-07
2042.26	1.73833e-07
2050.94	2.6549e-07
2059.62	2.21926e-07
2068.3	4.96246e-08
2076.98	5.24658e-08
2085.65	1.03578e-07
2094.33	-2.62984e-08
2103.01	-1.17537e-07
2111.69	-1.1447e-07
2120.37	-1.19465e-07
2129.05	-9.12167e-08
2137.72	-2.23403e-08
2146.4	6.81306e-08
2155.08	-3.28051e-07
2163.76	-4.76965e-08
2172.44	1.00318e-06
2181.11	3.67985e-06
2189.79	7.16935e-06
2198.47	6.29551e-06
2207.15	3.59879e-06
2215.83	2.10759e-06
2224.51	4.57329e-06
2233.18	1.07331e-05
2241.86	1.57822e-05
2250.54	2.28187e-05
2259.22	8.19938e-06
2267.9	2.04804e-06
2276.57	1.7195e-06
2285.25	4.84088e-07
2293.93	1.39592e-06
2302.61	4.19184e-06
2311.29	5.45355e-06
2319.97	4.48764e-06
2328.64	1.44356e-06
2337.32	-1.73171e-07
2346	-4.58583e-07
2354.68	-8.29187e-08
2363.36	6.70076e-07
2372.03	4.78438e-07
2380.71	2.05811e-07
2389.39	9.04564e-08
2398.07	2.82869e-07
2406.75	2.62413e-07
2415.43	3.46568e-07
2424.1	-3.13732e-08
2432.78	1.67147e-07
2441.46	2.0126e-07
2450.14	2.92014e-07
2458.82	2.11082e-07
2467.49	1.42307e-07
2476.17	2.99908e-08
2484.85	8.23075e-08
2493.53	-4.55902e-08
2502.21	4.34183e-08
2510.89	1.78374e-07
2519.56	2.64708e-07
2528.24	-4.11301e-08
2536.92	2.23447e-07
2545.6	9.42871e-08
2554.28	9.38287e-08
2562.95	1.9131e-07
2571.63	1.99422e-07
2580.31	7.3522e-09
2588.99	2.62627e-07
2597.67	-2.82083e-08
2606.35	1.14554e-07
2615.02	3.32759e-08
2623.7	-2.44969e-07
2632.38	2.0429e-07
2641.06	2.56519e-07
2649.74	1.81688e-07
2658.41	1.00526e-07
2667.09	-4.53246e-08
2675.77	1.55418e-07
2684.45	1.69344e-07
2693.13	1.95206e-07
2701.81	-1.10283e-07
2710.48	2.24877e-07
2719.16	1.69999e-08
2727.84	6.77304e-08
2736.52	-4.0719e-08
2745.2	-2.27005e-09
2753.87	-3.19917e-08
2762.55	2.6863e-07
2771.23	-2.18478e-07
2779.91	-1.59416e-07
2788.59	-7.12555e-08
2797.27	-3.67231e-07
2805.94	-9.47418e-08
2814.62	-2.90803e-07
2823.3	-2.06796e-07
2831.98	-4.70468e-07
2840.66	-2.21068e-07
2849.33	-2.86226e-07
2858.01	-3.49675e-08
2866.69	1.98204e-07
2875.37	-3.37404e-07
2884.05	-2.03355e-07
2892.73	-2.80944e-07
2901.4	-2.68659e-08
2910.08	-3.38961e-07
2918.76	-1.3242e-09
2927.44	-2.53609e-07
2936.12	3.61607e-08
2944.79	-1.32605e-07
2953.47	-1.76234e-07
2962.15	-4.48135e-07
2970.83	1.001e-07
2979.51	-2.97104e-07
2988.19	-7.01023e-08
2996.86	-8.87357e-08
3005.54	-2.31865e-07
3014.22	-8.61455e-09
3022.9	3.03841e-07
3031.58	1.34388e-07
3040.25	-9.09038e-08
3048.93	8.47849e-08
3057.61	-3.17589e-08
3066.29	-4.72636e-07
3074.97	1.63997e-08
3083.65	-1.93245e-08
3092.32	8.94341e-08
3101	8.64838e-08
3109.68	-2.28366e-07
3118.36	-1.49063e-07
3127.04	2.15855e-07
3135.71	1.04411e-07
3144.39	1.87607e-08
3153.07	1.51373e-08
3161.75	-1.96159e-07
3170.43	-3.32613e-08
3179.11	2.10583e-07
3187.78	7.70434e-08
3196.46	-4.53533e-07
3205.14	-2.30668e-07
3213.82	-1.03411e-07
3222.5	-4.79664e-07
3231.17	-2.26761e-07
3239.85	-1.95654e-07
3248.53	7.66142e-09
3257.21	-2.00448e-07
3265.89	-1.95679e-07
3274.57	-2.32753e-08
3283.24	3.65347e-07
3291.92	6.47619e-08
3300.6	-1.13728e-07
3309.28	-3.3922e-07
3317.96	3.89608e-07
3326.63	3.07806e-07
3335.31	1.14372e-07
3343.99	-3.19298e-07
3352.67	-1.38644e-07
3361.35	6.88363e-08
3370.03	-1.72917e-07
3378.7	7.92989e-08
3387.38	-1.84762e-07
3396.06	9.8598e-08
3404.74	-1.61646e-07
3413.42	-2.60648e-07
3422.09	-2.84149e-07
3430.77	-2.4032e-07
3439.45	2.69179e-07
3448.13	-1.03924e-07
3456.81	2.18631e-07
3465.49	-5.50705e-08
3474.16	-1.25766e-07
3482.84	-4.60424e-07
3491.52	-1.19229e-07
3500.2	1.20378e-07
3508.88	-4.52362e-07
3517.55	-6.65921e-07
3526.23	-4.24288e-08
3534.91	4.10246e-08
3543.59	6.01148e-07
3552.27	-2.50848e-07
3560.95	2.37744e-07
3569.62	-1.80702e-07
3578.3	1.95366e-07
3586.98	2.45922e-08
3595.66	3.20572e-07
3604.34	2.94281e-07
3613.01	2.90512e-07
3621.69	2.59219e-07
3630.37	3.27273e-07
3639.05	3.07639e-07
3647.73	9.47455e-08
3656.41	-3.08236e-07
3665.08	4.58172e-07
3673.76	-4.94252e-07
3682.44	9.80596e-08
3691.12	2.39956e-08
3699.8	3.29488e-07
3708.47	3.8951e-07
3717.15	6.40172e-07
3725.83	2.51415e-07
3734.51	1.51973e-07
3743.19	-1.25762e-07
3751.87	-3.89037e-07
3760.54	2.82752e-07
3769.22	7.48862e-07
3777.9	3.87895e-07
3786.58	3.77654e-07
3795.26	4.30305e-07
3803.93	3.04172e-07
3812.61	1.19534e-07
3821.29	2.0843e-07
3829.97	1.19025e-07
3838.65	-1.69897e-07
3847.33	-9.24172e-08
3856	3.42112e-07
3864.68	7.8233e-08
3873.36	1.95624e-07
3882.04	2.0146e-07
3890.72	-2.1038e-07
3899.39	-9.4218e-08
3908.07	3.4814e-07
3916.75	9.02199e-10
3925.43	2.3148e-07
3934.11	1.64429e-07
3942.79	3.3843e-07
3951.46	2.50928e-07
3960.14	2.25837e-07
3968.82	1.91077e-07
