Infrared Spectrum: Carbon tetrafluoride
Formula: C F4
CAS: 75-73-0
State: gas
Melting point: -150 C
Boiling point: -129 C
Class: IUPAC A
Instrument: IFS66V (Bruker)
Instrument parameters: KBr Beam Splitter; MCT Detector; Multipass cell
Sampling: 1 L/min Flow
Resolution: 0.1250
Temperature: 23 C
Pressure: 101.3 Pa
Origin: NIST, Analytical Chemistry Division, 301-975-3108
cm-1	(micromol/mol)-1m-1 (base 10)
575.048	-0.000199698
583.606	-2.53029e-05
592.163	-3.28522e-05
600.721	-1.68138e-05
609.278	-5.4411e-05
617.836	-5.99662e-05
626.394	-3.36629e-05
634.951	-5.93535e-05
643.509	3.26176e-05
652.067	-1.47983e-05
660.624	-3.50668e-05
669.182	-1.4479e-05
677.739	-5.02472e-06
686.297	-6.71026e-05
694.855	-3.34254e-05
703.412	-6.59598e-05
711.97	-4.18898e-05
720.528	-3.41186e-05
729.085	-1.79048e-05
737.643	-5.90349e-05
746.2	-3.255e-05
754.758	-3.93115e-05
763.316	-2.61139e-05
771.873	-2.38491e-05
780.431	-5.33381e-05
788.988	-6.80453e-05
797.546	-5.63066e-05
806.104	-5.24807e-05
814.661	-3.37037e-05
823.219	-3.45319e-05
831.777	-5.0677e-05
840.334	-5.22184e-05
848.892	-2.06578e-05
857.449	-5.55703e-05
866.007	-2.42804e-05
874.565	-9.92186e-06
883.122	-1.80871e-05
891.68	-2.25564e-05
900.238	-3.7208e-05
908.795	-1.18241e-05
917.353	-6.46074e-05
925.91	-1.49884e-05
934.468	-1.44599e-05
943.026	-1.2362e-05
951.583	-3.40932e-05
960.141	-1.9565e-05
968.698	-4.44798e-05
977.256	-3.31309e-05
985.814	-1.32906e-05
994.371	-5.03906e-05
1002.93	-3.89062e-05
1011.49	-2.74747e-05
1020.04	-4.19727e-05
1028.6	-3.92966e-05
1037.16	-2.18639e-05
1045.72	-4.2604e-05
1054.27	-2.34206e-05
1062.83	-4.10537e-05
1071.39	-6.86505e-06
1079.95	-5.22667e-05
1088.51	-3.55323e-05
1097.06	-4.80989e-05
1105.62	-1.74429e-06
1114.18	-3.62716e-05
1122.74	-3.44194e-05
1131.29	-7.91053e-06
1139.85	-2.62863e-05
1148.41	-3.81114e-05
1156.97	-3.16224e-05
1165.52	-4.94886e-05
1174.08	-2.41614e-05
1182.64	-2.88693e-05
1191.2	-3.32758e-05
1199.75	-3.96756e-05
1208.31	-3.20123e-05
1216.87	-2.64807e-05
1225.43	-2.50481e-05
1233.98	4.28074e-06
1242.54	7.84904e-05
1251.1	0.000149506
1259.66	0.000386474
1268.22	0.000918854
1276.77	0.00726059
1285.33	0.0166922
1293.89	6.45096e-05
1302.45	-2.42473e-05
1311	-1.38744e-05
1319.56	-2.47166e-05
1328.12	-2.46858e-05
1336.68	-1.92548e-05
1345.23	-3.5489e-05
1353.79	-3.89397e-05
1362.35	-3.90485e-05
1370.91	-3.39362e-05
1379.46	-2.87069e-05
1388.02	-3.60458e-05
1396.58	-2.37099e-05
1405.14	-3.64203e-05
1413.69	-2.04116e-05
1422.25	-2.17808e-05
1430.81	-3.01858e-05
1439.37	-3.50996e-05
1447.93	3.23387e-07
1456.48	3.09008e-05
1465.04	-1.43877e-05
1473.6	1.12972e-05
1482.16	-4.17749e-05
1490.71	-4.33301e-06
1499.27	-2.19946e-05
1507.83	-1.68486e-05
1516.39	-2.74099e-06
1524.94	-8.7552e-07
1533.5	-2.7256e-05
1542.06	3.62877e-05
1550.62	-1.5091e-05
1559.17	-7.54279e-06
1567.73	-2.32794e-05
1576.29	4.37149e-05
1584.85	-3.14072e-05
1593.4	-3.1484e-05
1601.96	-2.54608e-05
1610.52	-2.98185e-05
1619.08	-3.22871e-05
1627.64	-2.53851e-05
1636.19	-2.36949e-05
1644.75	-3.56263e-05
1653.31	0.000106573
1661.87	-2.89585e-05
1670.42	-3.99532e-05
1678.98	-2.76759e-05
1687.54	-3.41438e-05
1696.1	3.06755e-05
1704.65	-1.71044e-05
1713.21	-1.72876e-05
1721.77	-4.19777e-05
1730.33	-2.79238e-05
1738.88	-2.57427e-05
1747.44	-2.36422e-05
1756	-3.19847e-05
1764.56	-3.27464e-05
1773.11	-2.48159e-05
1781.67	-2.46936e-05
1790.23	-2.31882e-05
1798.79	-2.92223e-05
1807.35	-2.31969e-05
1815.9	-2.28707e-05
1824.46	-2.32387e-05
1833.02	-2.80533e-05
1841.58	-2.40134e-05
1850.13	-3.94578e-05
1858.69	-3.01486e-05
1867.25	-4.05127e-05
1875.81	-2.30174e-05
1884.36	-3.99236e-05
1892.92	-2.06702e-05
1901.48	-1.39615e-05
1910.04	-1.79835e-05
1918.59	-1.07225e-05
1927.15	-3.35092e-05
1935.71	-2.77439e-05
1944.27	-2.79646e-05
1952.82	-2.76257e-05
1961.38	-3.24803e-05
1969.94	-3.4068e-05
1978.5	-3.44104e-05
1987.06	-2.74293e-05
1995.61	-2.56392e-05
2004.17	-3.89246e-05
2012.73	-3.48043e-05
2021.29	-2.5626e-05
2029.84	-2.42264e-05
2038.4	-2.36276e-05
2046.96	-2.25806e-05
2055.52	-3.84928e-05
2064.07	-3.72383e-05
2072.63	-3.47625e-05
2081.19	-2.52837e-05
2089.75	-2.54273e-05
2098.3	-2.01925e-05
2106.86	-3.00901e-05
2115.42	-3.58311e-05
2123.98	-3.35638e-05
2132.53	-1.0965e-05
2141.09	-3.59901e-05
2149.65	-1.76269e-05
2158.21	-3.38872e-05
2166.77	-2.49791e-05
2175.32	-2.12483e-06
2183.88	6.92834e-05
2192.44	-1.98301e-05
2201	-3.18403e-05
2209.55	-3.36925e-05
2218.11	-2.90925e-05
2226.67	-2.47694e-05
2235.23	-1.93553e-05
2243.78	-2.49236e-05
2252.34	-3.34795e-05
2260.9	-3.83244e-05
2269.46	-2.2089e-05
2278.01	-1.8207e-05
2286.57	-2.03865e-05
2295.13	-2.16414e-05
2303.69	-5.16104e-05
2312.24	-1.99111e-05
2320.8	-1.53315e-05
2329.36	-2.44594e-05
2337.92	-1.26865e-05
2346.48	-2.97305e-05
2355.03	-2.19988e-05
2363.59	-2.8554e-05
2372.15	-2.29818e-05
2380.71	-1.03703e-05
2389.26	-2.88406e-05
2397.82	-1.82538e-05
2406.38	-3.11825e-05
2414.94	-2.57722e-05
2423.49	-2.58372e-05
2432.05	-2.41798e-05
2440.61	-3.48692e-05
2449.17	-2.11558e-05
2457.72	-1.4596e-05
2466.28	-1.83403e-05
2474.84	-2.33417e-05
2483.4	-2.57393e-05
2491.95	-2.33778e-05
2500.51	-3.65574e-05
2509.07	-2.55627e-05
2517.63	-3.14241e-05
2526.19	-4.07471e-05
2534.74	-1.77372e-05
2543.3	-2.41111e-05
2551.86	-6.17655e-05
2560.42	-0.000134996
2568.97	-0.000136666
2577.53	-3.26124e-05
2586.09	-1.22872e-05
2594.65	-1.30195e-05
2603.2	-6.59358e-06
2611.76	-1.99996e-05
2620.32	-1.44001e-05
2628.88	-3.43961e-05
2637.43	-3.25669e-05
2645.99	-2.64192e-05
2654.55	-4.16293e-05
2663.11	-3.61008e-05
2671.66	-2.09019e-05
2680.22	-3.73203e-05
2688.78	-2.17391e-05
2697.34	-2.98828e-05
2705.9	-9.30849e-06
2714.45	-2.69375e-05
2723.01	-2.94553e-05
2731.57	-4.13488e-05
2740.13	-2.79541e-05
2748.68	-1.31052e-05
2757.24	-2.17005e-05
2765.8	-3.14298e-05
2774.36	-2.77276e-05
2782.91	-1.68219e-05
2791.47	-1.94576e-05
2800.03	-2.9081e-05
2808.59	-3.80277e-05
2817.14	-3.29081e-05
2825.7	-2.5565e-05
2834.26	-2.3667e-05
2842.82	-3.62544e-05
2851.37	-1.72777e-05
2859.93	-1.89389e-05
2868.49	-1.92379e-05
2877.05	-2.30916e-05
2885.61	-2.2723e-05
2894.16	-1.35991e-05
2902.72	-3.46106e-05
2911.28	-4.42856e-05
2919.84	-2.18974e-05
2928.39	-3.75769e-05
2936.95	-1.96729e-05
2945.51	-2.63782e-05
2954.07	-3.58431e-05
2962.62	-2.48311e-05
2971.18	-2.01598e-05
2979.74	-2.89744e-05
2988.3	5.20108e-06
2996.85	-2.19827e-05
3005.41	-2.15115e-05
3013.97	-1.1516e-05
3022.53	-2.31833e-05
3031.08	-4.20509e-05
3039.64	-2.64503e-05
3048.2	-2.89544e-05
3056.76	-2.28226e-05
3065.32	-3.74876e-05
3073.87	-2.53512e-05
3082.43	-2.04483e-05
3090.99	-2.41209e-05
3099.55	-3.39858e-05
3108.1	-4.13768e-05
3116.66	-3.12433e-05
3125.22	-2.67459e-05
3133.78	-5.43798e-06
3142.33	-2.18907e-05
3150.89	-4.27389e-05
3159.45	-1.41194e-06
3168.01	-4.28385e-05
3176.56	-2.08948e-05
3185.12	-3.97478e-05
3193.68	1.59284e-06
3202.24	-9.06182e-06
3210.79	-1.7208e-05
3219.35	-3.71743e-05
3227.91	-1.75462e-05
3236.47	-4.07002e-05
3245.03	-1.5325e-05
3253.58	-7.00905e-06
3262.14	-2.22356e-05
3270.7	-2.63559e-05
3279.26	-4.58703e-05
3287.81	-3.35052e-05
3296.37	-1.94511e-05
3304.93	-1.44781e-05
3313.49	-2.97937e-05
3322.04	-1.85588e-05
3330.6	-1.61652e-05
3339.16	-1.58817e-05
3347.72	-3.73978e-05
3356.27	-1.64942e-05
3364.83	-3.99121e-05
3373.39	-3.0036e-05
3381.95	1.88258e-06
3390.5	-2.14074e-05
3399.06	-2.64969e-05
3407.62	-1.89917e-05
3416.18	-2.36638e-05
3424.74	-9.17311e-06
3433.29	-4.68572e-05
3441.85	-2.35501e-05
3450.41	-6.93e-06
3458.97	-1.29047e-05
3467.52	-1.78417e-05
3476.08	-2.63134e-05
3484.64	-1.05643e-05
3493.2	1.07843e-05
3501.75	-3.04917e-05
3510.31	-5.71643e-06
3518.87	7.50379e-07
3527.43	-3.4992e-05
3535.98	-1.38598e-05
3544.54	-7.93136e-06
3553.1	-1.80011e-05
3561.66	-4.16492e-06
3570.21	-8.44846e-06
3578.77	-4.4268e-05
3587.33	-3.22606e-05
3595.89	-3.00365e-05
3604.45	-3.99419e-05
3613	-2.92024e-05
3621.56	-2.52198e-05
3630.12	-4.28471e-05
3638.68	-2.18795e-05
3647.23	6.96574e-06
3655.79	-2.30647e-05
3664.35	-1.86339e-05
3672.91	-3.31916e-05
3681.46	-4.79552e-05
3690.02	-2.90025e-05
3698.58	-1.71644e-05
3707.14	-2.96137e-05
3715.69	-2.78561e-05
3724.25	-3.31477e-06
3732.81	-3.62327e-05
3741.37	-2.4119e-05
3749.92	-3.96423e-06
3758.48	-2.4711e-05
3767.04	-1.458e-05
3775.6	1.51519e-06
3784.16	-2.78951e-05
3792.71	-2.33592e-05
3801.27	2.64042e-05
3809.83	-2.52528e-05
3818.39	4.37574e-06
3826.94	-3.12099e-05
3835.5	-3.00625e-05
3844.06	-2.99841e-05
3852.62	-1.2475e-05
3861.17	-4.86878e-05
3869.73	-1.04481e-05
3878.29	-2.63303e-05
3886.85	-2.75884e-05
3895.4	-4.46403e-05
3903.96	2.96857e-06
3912.52	-8.42075e-06
3921.08	-3.25087e-05
3929.63	-3.19289e-05
3938.19	-2.16148e-05
3946.75	-2.92381e-05
3955.31	-1.61243e-05
3963.87	-3.79618e-05
3972.42	-9.94188e-06
