Infrared Spectrum: Dichlorodifluoromethane
Formula: C Cl2 F2
CAS: 75-71-8
State: gas
Melting point: -158 C
Boiling point: -29.8 C
Class: IUPAC A
Instrument: IFS66V (Bruker)
Instrument parameters: KBr Beam Splitter; MCT Detector; Multipass cell
Sampling: 1 L/min Flow
Resolution: 0.9640
Temperature: 23 C
Pressure: 101.3 Pa
Origin: NIST, Analytical Chemistry Division, 301-975-3108
cm-1	(micromol/mol)-1m-1 (base 10)
575.17	-2.54833e-06
583.848	1.62388e-06
592.526	-2.37884e-06
601.205	-5.97439e-07
609.883	2.27685e-07
618.561	-1.45732e-06
627.239	-5.32014e-08
635.917	1.02736e-08
644.595	3.98716e-06
653.274	2.60763e-05
661.952	5.44737e-05
670.63	7.29008e-05
679.308	4.62334e-05
687.986	7.01878e-06
696.664	-1.54227e-07
705.343	1.09495e-06
714.021	1.19461e-06
722.699	1.40328e-06
731.377	1.37397e-06
740.055	7.19732e-07
748.734	1.35271e-06
757.412	1.24331e-06
766.09	1.1244e-06
774.768	-1.03391e-08
783.446	-1.66131e-07
792.124	1.37165e-07
800.803	-8.94063e-08
809.481	2.96173e-07
818.159	1.33562e-06
826.837	2.56811e-06
835.515	4.01457e-06
844.194	7.80019e-06
852.872	2.11622e-05
861.55	7.1457e-05
870.228	0.000206152
878.906	0.000397598
887.584	0.000499228
896.263	0.000335541
904.941	0.000483453
913.619	0.00156176
922.297	0.00271047
930.975	0.00186257
939.653	0.000110487
948.332	7.62014e-06
957.01	3.02527e-06
965.688	1.70131e-06
974.366	1.10033e-06
983.044	6.78216e-07
991.723	2.89188e-07
1000.4	1.57545e-07
1009.08	1.30035e-07
1017.76	2.21362e-07
1026.44	7.19696e-07
1035.11	7.77983e-07
1043.79	1.51057e-06
1052.47	4.32781e-06
1061.15	1.56666e-05
1069.83	5.1668e-05
1078.5	0.000221337
1087.18	0.000820252
1095.86	0.00145777
1104.54	0.00149827
1113.22	0.00101063
1121.9	0.000342178
1130.57	0.00026305
1139.25	0.000316839
1147.93	0.00088099
1156.61	0.00108342
1165.29	0.000631304
1173.96	0.000398145
1182.64	5.72938e-05
1191.32	1.06126e-05
1200	1.00895e-05
1208.68	8.82776e-06
1217.36	5.22495e-06
1226.03	8.53182e-06
1234.71	1.26716e-05
1243.39	1.94016e-05
1252.07	8.77586e-06
1260.75	1.64521e-06
1269.42	3.68379e-07
1278.1	-2.28929e-07
1286.78	1.10485e-07
1295.46	5.87165e-07
1304.14	5.04264e-07
1312.82	1.46367e-06
1321.49	2.05148e-06
1330.17	2.41279e-06
1338.85	3.12208e-06
1347.53	3.99052e-06
1356.21	5.91786e-06
1364.88	5.34397e-06
1373.56	7.17915e-06
1382.24	7.14442e-06
1390.92	5.14823e-06
1399.6	1.1683e-06
1408.28	3.30573e-07
1416.95	7.711e-08
1425.63	6.04846e-08
1434.31	2.98748e-08
1442.99	5.05893e-08
1451.67	-4.22824e-07
1460.34	5.91094e-08
1469.02	1.21648e-06
1477.7	1.4504e-06
1486.38	6.92869e-07
1495.06	-5.9284e-08
1503.73	-2.17702e-07
1512.41	-1.27292e-07
1521.09	-7.56701e-07
1529.77	5.61474e-07
1538.45	2.37034e-07
1547.13	4.37842e-07
1555.8	4.7719e-07
1564.48	7.9268e-07
1573.16	2.14197e-06
1581.84	4.19929e-06
1590.52	4.33596e-06
1599.19	3.19616e-06
1607.87	-3.91516e-08
1616.55	-1.28419e-06
1625.23	-3.49178e-07
1633.91	-7.9984e-08
1642.59	-9.77735e-08
1651.26	-3.31243e-07
1659.94	-2.35208e-07
1668.62	-3.92098e-07
1677.3	-8.1199e-08
1685.98	-2.20452e-07
1694.65	-3.22955e-07
1703.33	-3.89719e-07
1712.01	-1.52918e-07
1720.69	-9.39682e-08
1729.37	-1.36234e-07
1738.05	8.94426e-08
1746.72	1.63896e-06
1755.4	2.8701e-06
1764.08	3.1102e-06
1772.76	1.05547e-06
1781.44	5.23501e-07
1790.11	1.14836e-06
1798.79	2.23846e-06
1807.47	2.43102e-06
1816.15	1.82424e-06
1824.83	1.57255e-06
1833.51	1.95854e-06
1842.18	1.4046e-06
1850.86	8.12543e-07
1859.54	-7.42578e-07
1868.22	-7.20249e-07
1876.9	-3.61365e-07
1885.57	-1.42964e-07
1894.25	-1.82203e-07
1902.93	-2.75873e-07
1911.61	1.01135e-08
1920.29	-8.6445e-08
1928.97	-1.57443e-07
1937.64	-1.64537e-07
1946.32	-8.40003e-08
1955	-7.10928e-08
1963.68	1.1533e-07
1972.36	2.30057e-07
1981.03	2.47308e-08
1989.71	2.58418e-07
1998.39	3.8368e-07
2007.07	5.52343e-07
2015.75	6.80966e-07
2024.43	3.203e-07
2033.1	8.56737e-08
2041.78	2.62122e-07
2050.46	2.06534e-07
2059.14	2.46748e-07
2067.82	5.44165e-08
2076.49	1.53223e-07
2085.17	2.09568e-07
2093.85	-1.40883e-07
2102.53	-1.81897e-10
2111.21	-7.48399e-08
2119.89	-2.17862e-07
2128.56	-6.54758e-08
2137.24	6.47119e-08
2145.92	-6.42389e-08
2154.6	-2.02212e-07
2163.28	5.51368e-08
2171.95	1.01124e-06
2180.63	3.43499e-06
2189.31	6.94141e-06
2197.99	6.1402e-06
2206.67	3.86705e-06
2215.35	2.04952e-06
2224.02	4.39599e-06
2232.7	1.051e-05
2241.38	1.57276e-05
2250.06	3.30877e-05
2258.74	8.55793e-06
2267.41	2.2624e-06
2276.09	1.79296e-06
2284.77	6.44739e-07
2293.45	1.39562e-06
2302.13	3.95397e-06
2310.81	4.20699e-06
2319.48	4.73145e-06
2328.16	1.5456e-06
2336.84	-2.51113e-07
2345.52	-5.50953e-07
2354.2	6.23035e-08
2362.87	8.86183e-07
2371.55	8.3491e-07
2380.23	3.41531e-07
2388.91	-4.90687e-08
2397.59	2.80144e-07
2406.27	2.18393e-07
2414.94	2.04453e-07
2423.62	1.4399e-08
2432.3	2.19419e-07
2440.98	2.70591e-07
2449.66	4.1119e-07
2458.33	1.82458e-07
2467.01	1.87078e-07
2475.69	2.12092e-07
2484.37	6.81752e-08
2493.05	6.60288e-08
2501.73	-2.26113e-07
2510.4	3.36285e-07
2519.08	7.45853e-08
2527.76	-1.40083e-07
2536.44	1.9244e-07
2545.12	1.3467e-07
2553.79	1.69412e-07
2562.47	1.3718e-07
2571.15	2.57712e-07
2579.83	1.45031e-07
2588.51	3.68895e-07
2597.19	-1.16647e-07
2605.86	9.29205e-08
2614.54	7.35666e-08
2623.22	-2.3181e-07
2631.9	2.35201e-07
2640.58	1.4952e-07
2649.25	1.05733e-07
2657.93	2.46973e-07
2666.61	3.95372e-08
2675.29	1.01783e-07
2683.97	2.92709e-07
2692.65	2.03507e-07
2701.32	-2.37718e-07
2710	1.80799e-07
2718.68	2.20991e-07
2727.36	7.7663e-08
2736.04	-2.5446e-07
2744.71	-1.90869e-07
2753.39	1.08877e-07
2762.07	4.72715e-08
2770.75	-2.01986e-07
2779.43	-3.11474e-07
2788.11	-1.86743e-07
2796.78	-3.01724e-07
2805.46	-1.55129e-07
2814.14	-2.80377e-07
2822.82	-3.00487e-07
2831.5	-5.30595e-07
2840.17	-3.47315e-07
2848.85	-2.02386e-07
2857.53	-5.93422e-08
2866.21	3.57967e-07
2874.89	-2.82974e-07
2883.57	-8.09589e-08
2892.24	-4.02379e-07
2900.92	-1.10521e-07
2909.6	-3.71857e-07
2918.28	-6.09066e-08
2926.96	-4.78303e-07
2935.63	4.70605e-08
2944.31	-3.16727e-07
2952.99	-1.80428e-07
2961.67	-4.41865e-07
2970.35	-2.04744e-08
2979.03	-3.88111e-07
2987.7	5.56825e-08
2996.38	-2.08251e-07
3005.06	-2.00495e-07
3013.74	-1.61088e-07
3022.42	3.30893e-07
3031.09	6.99141e-08
3039.77	-1.09029e-07
3048.45	1.49614e-07
3057.13	-8.10244e-08
3065.81	-4.15352e-07
3074.49	-2.3029e-07
3083.16	1.39042e-08
3091.84	-8.8766e-09
3100.52	1.44179e-07
3109.2	-1.73239e-07
3117.88	1.80079e-08
3126.55	2.61787e-08
3135.23	1.28536e-07
3143.91	2.64188e-08
3152.59	-1.04999e-07
3161.27	-1.4554e-07
3169.95	2.07007e-07
3178.62	2.84968e-07
3187.3	-1.2273e-07
3195.98	-4.32232e-07
3204.66	-2.00196e-07
3213.34	-2.12747e-08
3222.01	-6.42906e-07
3230.69	-1.45845e-07
3239.37	-5.28318e-07
3248.05	-3.71507e-08
3256.73	-3.57982e-07
3265.41	-1.04715e-07
3274.08	-5.4089e-08
3282.76	5.2783e-07
3291.44	-1.32087e-07
3300.12	1.64966e-07
3308.8	-1.87791e-07
3317.47	2.37784e-07
3326.15	3.14057e-07
3334.83	-1.97279e-07
3343.51	-3.5e-07
3352.19	-3.46988e-08
3360.86	2.14552e-07
3369.54	2.60565e-07
3378.22	-1.59939e-07
3386.9	5.5566e-08
3395.58	-1.32996e-07
3404.26	-3.33054e-07
3412.93	8.52444e-08
3421.61	-3.914e-07
3430.29	-6.35579e-07
3438.97	3.82276e-07
3447.65	-3.09881e-07
3456.32	-1.4901e-08
3465	3.29467e-07
3473.68	-5.18481e-08
3482.36	-7.33302e-07
3491.04	-5.13606e-08
3499.72	1.80202e-07
3508.39	-6.0633e-07
3517.07	-6.39806e-07
3525.75	-1.75931e-08
3534.43	3.27139e-07
3543.11	5.44725e-07
3551.78	-1.52103e-07
3560.46	2.12158e-07
3569.14	-3.10048e-07
3577.82	4.03223e-07
3586.5	2.08847e-07
3595.18	5.62704e-07
3603.85	3.45591e-07
3612.53	6.98996e-08
3621.21	2.52379e-07
3629.89	1.7062e-08
3638.57	1.85426e-07
3647.24	-2.29489e-07
3655.92	-4.97431e-07
3664.6	4.69943e-07
3673.28	-3.68415e-07
3681.96	1.69892e-08
3690.64	-8.81111e-08
3699.31	2.17069e-07
3707.99	1.29213e-07
3716.67	3.50167e-07
3725.35	3.57712e-07
3734.03	4.64355e-07
3742.7	2.61423e-07
3751.38	7.086e-08
3760.06	1.37638e-07
3768.74	9.87245e-07
3777.42	5.79045e-07
3786.1	1.60783e-07
3794.77	2.05406e-07
3803.45	2.47504e-07
3812.13	4.89552e-07
3820.81	-8.89624e-08
3829.49	1.4765e-07
3838.16	-8.15949e-07
3846.84	1.8654e-07
3855.52	1.93175e-07
3864.2	2.0494e-07
3872.88	2.92819e-07
3881.56	2.75247e-08
3890.23	-1.39661e-07
3898.91	-5.31504e-08
3907.59	2.7337e-07
3916.27	4.2142e-08
3924.95	2.22417e-07
3933.62	3.18473e-07
3942.3	1.18124e-07
3950.98	6.63759e-07
3959.66	-1.11103e-08
3968.34	4.06788e-07
