Infrared Spectrum: CHLOROTRIMETHYLSILANE
Formula: C3 H9 Cl Si
CAS: 75-77-4
State: SOLUTION (5% IN CCl4 FOR 3800-1300, 2% IN CS2 FOR 1300-600, AND 5% IN CCl4 FOR 600-210 CM^-^1)
Boiling point: 57.7 C
Class: COBLENTZ III
Instrument: PERKIN-ELMER 521 (GRATING)
Instrument parameters: FILTERS AT 3150, 2500, 2000, 1150, 700, 410. GRATING CHANGES: 2000, 630 CM^-^1
Sampling: TRANSMISSION
Path length: 0.011 CM, 0.020 CM, AND 0.011 CM
Resolution: 2
Origin: DOW CORNING CORP.
1/CM	TRANSMITTANCE
214.411	0.895
223.784	0.899
233.157	0.899
242.531	0.896
251.904	0.924
261.277	0.942
270.65	0.946
280.023	0.951
289.396	0.963
298.77	0.958
308.143	0.954
317.516	0.967
326.889	0.956
336.262	0.959
345.635	0.963
355.009	0.96
364.382	0.952
373.755	0.948
383.128	0.952
392.501	0.944
401.874	0.948
411.248	0.951
420.621	0.949
429.994	0.946
439.367	0.931
448.74	0.888
458.114	0.646
467.487	0.134
476.86	0.094
486.233	0.569
495.606	0.804
504.979	0.884
514.353	0.913
523.726	0.941
533.099	0.962
542.472	0.972
551.845	0.97
561.218	0.966
570.592	0.952
579.965	0.96
589.338	0.954
598.711	0.945
608.084	0.931
617.457	0.892
626.831	0.865
636.204	0.489
645.577	0.824
654.95	0.853
664.323	0.858
673.696	0.855
683.07	0.865
692.443	0.821
701.816	0.819
711.189	0.85
720.562	0.865
729.936	0.858
739.309	0.86
748.682	0.812
758.055	0.486
767.428	0.769
776.801	0.846
786.175	0.836
795.548	0.833
804.921	0.8
814.294	0.757
823.667	0.613
833.04	0.388
842.414	0.094
851.787	0.158
861.16	0.491
870.533	0.689
879.906	0.806
889.279	0.857
898.653	0.89
908.026	0.907
917.399	0.919
926.772	0.923
936.145	0.92
945.519	0.931
954.892	0.933
964.265	0.937
973.638	0.934
983.011	0.931
992.384	0.928
1001.76	0.925
1011.13	0.919
1020.5	0.911
1029.88	0.907
1039.25	0.903
1048.62	0.905
1058	0.911
1067.37	0.912
1076.74	0.916
1086.12	0.918
1095.49	0.912
1104.86	0.91
1114.24	0.911
1123.61	0.919
1132.98	0.926
1142.36	0.914
1151.73	0.914
1161.1	0.919
1170.47	0.918
1179.85	0.918
1189.22	0.918
1198.59	0.912
1207.97	0.91
1217.34	0.904
1226.71	0.886
1236.09	0.858
1245.46	0.743
1254.83	0.2691
1264.21	0.785
1273.58	0.84
1282.95	0.876
1292.33	0.889
1301.7	0.883
1311.07	0.862
1320.45	0.848
1329.82	0.826
1339.19	0.843
1348.56	0.856
1357.94	0.851
1367.31	0.822
1376.68	0.804
1386.06	0.8
1395.43	0.758
1404.8	0.681
1414.18	0.7
1423.55	0.754
1432.92	0.824
1442.3	0.808
1451.67	0.783
1461.04	0.778
1470.42	0.834
1479.79	0.869
1489.16	0.881
1498.54	0.886
1507.91	0.89
1517.28	0.89
1526.66	0.893
1536.03	0.899
1545.4	0.902
1554.77	0.904
1564.15	0.899
1573.52	0.897
1582.89	0.898
1592.27	0.902
1601.64	0.9
1611.01	0.897
1620.39	0.899
1629.76	0.899
1639.13	0.902
1648.51	0.9
1657.88	0.897
1667.25	0.897
1676.63	0.898
1686	0.898
1695.37	0.897
1704.75	0.897
1714.12	0.897
1723.49	0.898
1732.87	0.898
1742.24	0.9
1751.61	0.899
1760.98	0.899
1770.36	0.9
1779.73	0.899
1789.1	0.907
1798.48	0.902
1807.85	0.903
1817.22	0.903
1826.6	0.903
1835.97	0.903
1845.34	0.905
1854.72	0.904
1864.09	0.899
1873.46	0.897
1882.84	0.889
1892.21	0.857
1901.58	0.897
1910.96	0.9
1920.33	0.9
1929.7	0.899
1939.07	0.891
1948.45	0.886
1957.82	0.89
1967.19	0.893
1976.57	0.9
1985.94	0.902
1995.31	0.904
2004.69	0.9045
2014.06	0.9066
2023.43	0.9126
2032.81	0.917
2042.18	0.918
2051.55	0.919
2060.93	0.9182
2070.3	0.917
2079.67	0.9131
2089.05	0.9119
2098.42	0.9071
2107.79	0.904
2117.17	0.913
2126.54	0.918
2135.91	0.92
2145.28	0.92
2154.66	0.921
2164.03	0.921
2173.4	0.923
2182.78	0.923
2192.15	0.924
2201.52	0.924
2210.9	0.924
2220.27	0.924
2229.64	0.923
2239.02	0.9248
2248.39	0.9203
2257.76	0.92
2267.14	0.92
2276.51	0.9234
2285.88	0.9233
2295.26	0.921
2304.63	0.9133
2314	0.931
2323.37	0.931
2332.75	0.931
2342.12	0.931
2351.49	0.931
2360.87	0.931
2370.24	0.9265
2379.61	0.921
2388.99	0.925
2398.36	0.926
2407.73	0.9222
2417.11	0.9205
2426.48	0.924
2435.85	0.924
2445.23	0.921
2454.6	0.921
2463.97	0.9163
2473.35	0.919
2482.72	0.9165
2492.09	0.902
2501.47	0.919
2510.84	0.919
2520.21	0.916
2529.58	0.916
2538.96	0.916
2548.33	0.916
2557.7	0.916
2567.08	0.916
2576.45	0.914
2585.82	0.914
2595.2	0.914
2604.57	0.914
2613.94	0.913
2623.32	0.912
2632.69	0.913
2642.06	0.913
2651.44	0.912
2660.81	0.912
2670.18	0.912
2679.56	0.912
2688.93	0.911
2698.3	0.911
2707.68	0.909
2717.05	0.909
2726.42	0.907
2735.79	0.905
2745.17	0.903
2754.54	0.9
2763.91	0.8975
2773.29	0.8829
2782.66	0.879
2792.03	0.879
2801.41	0.879
2810.78	0.877
2820.15	0.8733
2829.53	0.8646
2838.9	0.8513
2848.27	0.8386
2857.65	0.8134
2867.02	0.775
2876.39	0.7922
2885.77	0.7706
2895.14	0.7007
2904.51	0.7505
2913.88	0.7572
2923.26	0.7367
2932.63	0.727
2942	0.6426
2951.38	0.4728
2960.75	0.379
2970.12	0.5248
2979.5	0.7174
2988.87	0.8208
2998.24	0.85
3007.62	0.8612
3016.99	0.864
3026.36	0.863
3035.74	0.857
3045.11	0.8574
3054.48	0.8639
3063.86	0.873
3073.23	0.875
3082.6	0.875
3091.98	0.874
3101.35	0.872
3110.72	0.8713
3120.09	0.87
3129.47	0.8646
3138.84	0.861
3148.21	0.8629
3157.59	0.8689
3166.96	0.8739
3176.33	0.878
3185.71	0.879
3195.08	0.879
3204.45	0.8831
3213.83	0.8864
3223.2	0.8912
3232.57	0.895
3241.95	0.897
3251.32	0.9007
3260.69	0.9034
3270.07	0.904
3279.44	0.904
3288.81	0.904
3298.18	0.904
3307.56	0.904
3316.93	0.9047
3326.3	0.905
3335.68	0.905
3345.05	0.905
3354.42	0.905
3363.8	0.905
3373.17	0.905
3382.54	0.905
3391.92	0.905
3401.29	0.9129
3410.66	0.9063
3420.04	0.9042
3429.41	0.906
3438.78	0.905
3448.16	0.904
3457.53	0.904
3466.9	0.9044
3476.28	0.905
3485.65	0.905
3495.02	0.905
3504.39	0.905
3513.77	0.905
3523.14	0.9054
3532.51	0.904
3541.89	0.905
3551.26	0.9022
3560.63	0.9031
3570.01	0.9023
3579.38	0.903
3588.75	0.8971
3598.13	0.895
3607.5	0.897
3616.87	0.896
3626.25	0.896
3635.62	0.893
3644.99	0.8908
3654.37	0.885
3663.74	0.8855
3673.11	0.8907
3682.49	0.889
3691.86	0.8886
3701.23	0.886
3710.6	0.884
3719.98	0.883
3729.35	0.8814
3738.72	0.8784
3748.1	0.8753
3757.47	0.8802
3766.84	0.886
3776.22	0.888
3785.59	0.888
