Infrared Spectrum: Carbon tetrafluoride
Formula: C F4
CAS: 75-73-0
State: gas
Melting point: -150 C
Boiling point: -129 C
Class: IUPAC A
Instrument: IFS66V (Bruker)
Instrument parameters: KBr Beam Splitter; MCT Detector; Multipass cell
Sampling: 1 L/min Flow
Resolution: 0.4820
Temperature: 23 C
Pressure: 101.3 Pa
Origin: NIST, Analytical Chemistry Division, 301-975-3108
cm-1	(micromol/mol)-1m-1 (base 10)
575.168	-0.000172409
583.846	1.42983e-05
592.524	2.63825e-05
601.202	-3.3951e-05
609.881	-1.86442e-05
618.559	-5.61174e-07
627.237	-3.5042e-05
635.915	-3.77614e-05
644.593	-3.76246e-05
653.271	-1.67215e-05
661.949	-2.88877e-05
670.628	-2.44731e-05
679.306	-3.49202e-05
687.984	-3.50363e-05
696.662	-3.91528e-05
705.34	-1.13154e-05
714.018	-2.71075e-05
722.697	-2.5825e-05
731.375	-3.38922e-05
740.053	-2.65111e-05
748.731	-2.67177e-05
757.409	-3.27426e-05
766.087	-2.24466e-05
774.765	-3.21703e-05
783.444	-3.81304e-05
792.122	-2.93256e-05
800.8	-2.96282e-05
809.478	-1.81971e-05
818.156	-3.83301e-05
826.834	-3.35771e-05
835.512	-4.85153e-05
844.191	-3.20874e-05
852.869	-2.61131e-05
861.547	-2.32337e-05
870.225	-4.10909e-05
878.903	-2.37217e-05
887.581	-3.18643e-05
896.26	-3.01091e-05
904.938	-3.83591e-05
913.616	-3.62446e-05
922.294	-2.9198e-05
930.972	-3.11793e-05
939.65	-4.16558e-05
948.328	-2.05758e-05
957.007	-4.58733e-05
965.685	-2.90311e-05
974.363	-2.50316e-05
983.041	-2.45781e-05
991.719	-2.68452e-05
1000.4	-2.58762e-05
1009.08	-2.89779e-05
1017.75	-2.9574e-05
1026.43	-2.63611e-05
1035.11	-3.44316e-05
1043.79	-2.57032e-05
1052.47	-2.83054e-05
1061.14	-2.38662e-05
1069.82	-2.14353e-05
1078.5	-2.84898e-05
1087.18	-3.9923e-05
1095.86	-2.78295e-05
1104.54	-1.55719e-05
1113.21	-3.70688e-05
1121.89	-2.69631e-05
1130.57	-3.72119e-05
1139.25	-3.01587e-05
1147.93	-3.10314e-05
1156.6	-3.03756e-05
1165.28	-3.01433e-05
1173.96	-2.14205e-05
1182.64	-3.77222e-05
1191.32	-3.95497e-05
1199.99	-2.50731e-05
1208.67	-2.22275e-05
1217.35	-2.36913e-05
1226.03	-2.07048e-05
1234.71	3.39884e-05
1243.39	0.000377231
1252.06	0.00020467
1260.74	0.000685313
1269.42	0.0011341
1278.1	0.0105909
1286.78	0.00528304
1295.45	4.98746e-05
1304.13	-1.26007e-05
1312.81	-1.50412e-05
1321.49	-2.95463e-05
1330.17	-2.72569e-05
1338.85	-2.06567e-05
1347.52	-2.94682e-05
1356.2	7.19933e-06
1364.88	-3.09318e-05
1373.56	-2.49057e-05
1382.24	-2.6017e-05
1390.91	-3.45458e-05
1399.59	-1.79217e-05
1408.27	-2.66223e-05
1416.95	-2.9306e-05
1425.63	-2.4152e-05
1434.3	-3.32383e-05
1442.98	-3.03395e-05
1451.66	-2.67324e-05
1460.34	-2.30932e-05
1469.02	-2.60151e-05
1477.7	-2.40096e-05
1486.37	-2.08644e-05
1495.05	-2.2998e-05
1503.73	-2.26505e-05
1512.41	-4.18625e-06
1521.09	3.82183e-05
1529.76	-6.84421e-06
1538.44	7.42433e-05
1547.12	-2.42913e-05
1555.8	-8.06726e-06
1564.48	-1.44292e-05
1573.16	-2.64065e-05
1581.83	-2.94483e-05
1590.51	-3.74733e-05
1599.19	-2.47307e-05
1607.87	-2.56334e-05
1616.55	2.02378e-05
1625.22	-3.29533e-05
1633.9	-2.26553e-05
1642.58	-2.52408e-05
1651.26	-2.28252e-05
1659.94	-2.41699e-05
1668.61	-2.07033e-05
1677.29	-2.7122e-05
1685.97	-2.40399e-05
1694.65	-1.88704e-05
1703.33	-2.20448e-05
1712.01	-3.03314e-05
1720.68	-2.38114e-05
1729.36	-2.674e-05
1738.04	-2.48809e-05
1746.72	-3.04015e-05
1755.4	-3.0359e-05
1764.07	-3.51861e-05
1772.75	1.31064e-05
1781.43	-2.99302e-05
1790.11	-2.62473e-05
1798.79	-2.86825e-05
1807.47	-2.58615e-05
1816.14	-1.99752e-05
1824.82	-2.28758e-05
1833.5	-2.59192e-05
1842.18	-2.72686e-05
1850.86	-3.17614e-05
1859.53	-3.05891e-05
1868.21	-2.78287e-05
1876.89	-2.77728e-05
1885.57	-2.33451e-05
1894.25	-2.73774e-05
1902.92	-2.86471e-05
1911.6	-1.98759e-05
1920.28	-2.39852e-05
1928.96	-2.40625e-05
1937.64	-2.65886e-05
1946.32	-2.78698e-05
1954.99	-2.73156e-05
1963.67	-2.34253e-05
1972.35	-2.90914e-05
1981.03	-3.17487e-05
1989.71	-3.18417e-05
1998.38	-3.33776e-05
2007.06	-2.73955e-05
2015.74	-2.27247e-05
2024.42	-2.95811e-05
2033.1	-3.091e-05
2041.78	-2.89597e-05
2050.45	-2.47927e-05
2059.13	-2.98207e-05
2067.81	-2.89707e-05
2076.49	-3.3068e-05
2085.17	-2.92902e-05
2093.84	-2.40656e-05
2102.52	-3.20517e-05
2111.2	-2.75153e-05
2119.88	-2.63873e-05
2128.56	-2.61617e-05
2137.23	-2.69616e-05
2145.91	-2.0916e-05
2154.59	-2.90662e-05
2163.27	-2.28123e-05
2171.95	-1.62903e-05
2180.63	2.54131e-05
2189.3	6.95061e-06
2197.98	-2.30735e-05
2206.66	-2.93125e-05
2215.34	-2.94838e-05
2224.02	-2.18818e-05
2232.69	-2.96828e-05
2241.37	-2.11057e-05
2250.05	-2.02618e-05
2258.73	-2.6932e-05
2267.41	-2.69021e-05
2276.09	-2.49718e-05
2284.76	-2.83314e-05
2293.44	-2.57051e-05
2302.12	-2.34084e-05
2310.8	-2.17705e-05
2319.48	-2.1891e-05
2328.15	-2.27198e-05
2336.83	-1.48781e-05
2345.51	-2.372e-05
2354.19	-1.38055e-05
2362.87	5.10039e-06
2371.54	-1.82981e-05
2380.22	-2.6428e-05
2388.9	-2.85958e-05
2397.58	-2.25234e-05
2406.26	-3.46193e-05
2414.94	-2.70659e-05
2423.61	-2.61582e-05
2432.29	-3.06004e-05
2440.97	-3.26005e-05
2449.65	-2.49378e-05
2458.33	-1.8601e-05
2467	-2.85713e-05
2475.68	-2.77583e-05
2484.36	-2.90337e-05
2493.04	-3.07477e-05
2501.72	-2.81068e-05
2510.4	-3.29165e-05
2519.07	-2.6021e-05
2527.75	-2.71374e-05
2536.43	-1.81362e-05
2545.11	-2.36107e-05
2553.79	-6.06632e-05
2562.46	-9.38941e-05
2571.14	-9.71165e-05
2579.82	-2.03334e-05
2588.5	-1.91528e-05
2597.18	-2.12185e-05
2605.85	-2.50347e-05
2614.53	-2.14793e-05
2623.21	-2.67944e-05
2631.89	-2.30226e-05
2640.57	-1.74372e-05
2649.25	-2.1646e-05
2657.92	-3.19781e-05
2666.6	-3.14791e-05
2675.28	-2.08372e-05
2683.96	-2.32585e-05
2692.64	-3.28307e-05
2701.31	-2.34054e-05
2709.99	-1.44033e-05
2718.67	-2.25955e-05
2727.35	-2.38042e-05
2736.03	-1.67027e-05
2744.71	-2.88972e-05
2753.38	-1.89238e-05
2762.06	-2.51083e-05
2770.74	-2.44648e-05
2779.42	-3.03238e-05
2788.1	-2.61196e-05
2796.77	-2.11151e-05
2805.45	-2.56423e-05
2814.13	-2.6999e-05
2822.81	-2.44294e-05
2831.49	-2.33204e-05
2840.16	-1.95855e-05
2848.84	-2.57114e-05
2857.52	-1.80949e-05
2866.2	-1.99797e-05
2874.88	-2.12513e-05
2883.56	-2.31192e-05
2892.23	-1.96144e-05
2900.91	-2.00098e-05
2909.59	-1.33629e-05
2918.27	-2.80501e-05
2926.95	-2.50849e-05
2935.62	-2.30858e-05
2944.3	-2.63351e-05
2952.98	-9.458e-06
2961.66	-2.06828e-05
2970.34	-3.24938e-05
2979.02	-2.8407e-05
2987.69	-2.62958e-05
2996.37	-2.37584e-05
3005.05	-2.71133e-05
3013.73	-2.66047e-05
3022.41	-2.95788e-05
3031.08	-3.53804e-05
3039.76	-2.71632e-05
3048.44	-2.2319e-05
3057.12	-2.36241e-05
3065.8	-1.89681e-05
3074.48	-1.69116e-05
3083.15	-1.26471e-05
3091.83	-2.13063e-05
3100.51	-1.88769e-05
3109.19	-1.93865e-05
3117.87	-1.5066e-05
3126.54	-1.78617e-05
3135.22	-1.54305e-05
3143.9	-2.53073e-05
3152.58	-2.37805e-05
3161.26	-2.1495e-05
3169.93	-1.60577e-05
3178.61	-9.2598e-06
3187.29	-2.49556e-05
3195.97	-1.99016e-05
3204.65	-2.63638e-05
3213.33	-2.16784e-05
3222	-1.39117e-05
3230.68	-1.73195e-05
3239.36	-1.28455e-05
3248.04	-2.16822e-05
3256.72	-2.76544e-05
3265.39	-2.0378e-05
3274.07	-1.37859e-05
3282.75	-1.71027e-05
3291.43	-1.79785e-05
3300.11	-2.94401e-05
3308.79	-1.88805e-05
3317.46	-4.05056e-05
3326.14	-2.28468e-05
3334.82	-2.47213e-05
3343.5	-2.72509e-05
3352.18	-1.41391e-05
3360.85	-6.5952e-06
3369.53	-2.2341e-05
3378.21	-2.44146e-05
3386.89	-2.0025e-05
3395.57	-1.85665e-05
3404.24	-1.02574e-05
3412.92	-2.08982e-05
3421.6	-1.21462e-05
3430.28	-1.2236e-05
3438.96	-4.98764e-06
3447.64	-2.77552e-05
3456.31	-2.51815e-05
3464.99	-1.33903e-05
3473.67	-2.47338e-05
3482.35	-2.78548e-05
3491.03	-1.73676e-05
3499.7	-5.15406e-06
3508.38	-9.91731e-06
3517.06	-3.05203e-05
3525.74	-2.50967e-05
3534.42	-1.28917e-05
3543.1	-2.62778e-05
3551.77	-1.69258e-05
3560.45	-2.83647e-05
3569.13	-2.29896e-05
3577.81	-1.91746e-05
3586.49	-1.49883e-05
3595.16	-2.91707e-05
3603.84	-1.77063e-05
3612.52	-4.13695e-06
3621.2	-2.01996e-05
3629.88	-6.51331e-06
3638.55	-1.27704e-05
3647.23	-5.0058e-06
3655.91	-6.73199e-06
3664.59	-5.94212e-06
3673.27	-2.15305e-05
3681.95	-2.62989e-05
3690.62	-1.16568e-05
3699.3	-2.26557e-05
3707.98	-2.1573e-05
3716.66	-2.87323e-05
3725.34	-1.66857e-05
3734.01	-2.12049e-05
3742.69	-2.03096e-05
3751.37	-1.46256e-05
3760.05	-7.62162e-07
3768.73	-1.52052e-05
3777.41	-1.5435e-05
3786.08	-2.25525e-05
3794.76	-3.04226e-05
3803.44	-1.39124e-05
3812.12	-1.3656e-05
3820.8	-7.60125e-06
3829.47	-2.23513e-05
3838.15	-1.04834e-05
3846.83	-1.20397e-05
3855.51	-3.91156e-05
3864.19	-1.25056e-05
3872.86	-2.14257e-05
3881.54	-2.43295e-05
3890.22	-1.38438e-05
3898.9	-2.32749e-05
3907.58	-7.70579e-06
3916.26	-1.5702e-05
3924.93	-2.81423e-05
3933.61	-1.57856e-05
3942.29	-2.22122e-05
3950.97	-8.39432e-06
3959.65	-1.59452e-05
3968.32	-1.67621e-05
