Infrared Spectrum: Carbon tetrafluoride
Formula: C F4
CAS: 75-73-0
State: gas
Melting point: -150 C
Boiling point: -129 C
Class: IUPAC A
Instrument: IFS66V (Bruker)
Instrument parameters: KBr Beam Splitter; MCT Detector; Multipass cell
Sampling: 1 L/min Flow
Resolution: 1.9290
Temperature: 23 C
Pressure: 101.3 Pa
Origin: NIST, Analytical Chemistry Division, 301-975-3108
cm-1	(micromol/mol)-1m-1 (base 10)
575.65	-5.62918e-05
584.328	2.02941e-06
593.006	-3.37571e-05
601.684	-1.88684e-05
610.363	-1.59676e-05
619.041	-8.508e-06
627.719	-2.71758e-05
636.397	-2.77066e-05
645.075	-6.11795e-06
653.753	-2.60114e-06
662.431	-3.4605e-05
671.11	-3.17173e-05
679.788	-3.32699e-05
688.466	-4.76601e-05
697.144	-3.58994e-05
705.822	-1.91806e-05
714.5	-2.44971e-05
723.179	-2.10698e-05
731.857	-3.08089e-05
740.535	-2.68424e-05
749.213	-2.84494e-05
757.891	-2.68825e-05
766.569	-2.8115e-05
775.247	-2.97691e-05
783.926	-3.59571e-05
792.604	-3.03673e-05
801.282	-3.46198e-05
809.96	-3.42862e-05
818.638	-3.52206e-05
827.316	-3.49279e-05
835.994	-3.41076e-05
844.673	-3.44124e-05
853.351	-3.07997e-05
862.029	-2.65103e-05
870.707	-3.11911e-05
879.385	-2.74995e-05
888.063	-3.53621e-05
896.742	-2.78352e-05
905.42	-3.87646e-05
914.098	-3.4395e-05
922.776	-3.36267e-05
931.454	-3.13752e-05
940.132	-3.66854e-05
948.81	-2.82375e-05
957.489	-3.5888e-05
966.167	-2.98179e-05
974.845	-2.82819e-05
983.523	-3.19473e-05
992.201	-3.2223e-05
1000.88	-2.72825e-05
1009.56	-2.98072e-05
1018.24	-2.88645e-05
1026.91	-2.80745e-05
1035.59	-3.23244e-05
1044.27	-2.8211e-05
1052.95	-2.46234e-05
1061.63	-2.11039e-05
1070.3	-2.51276e-05
1078.98	-2.83647e-05
1087.66	-3.1277e-05
1096.34	-2.67769e-05
1105.02	-2.71738e-05
1113.7	-3.05551e-05
1122.37	-2.60314e-05
1131.05	-3.18996e-05
1139.73	-2.98442e-05
1148.41	-2.72004e-05
1157.09	-2.95581e-05
1165.76	-2.9484e-05
1174.44	-2.32406e-05
1183.12	-2.84789e-05
1191.8	-2.65656e-05
1200.48	-2.38589e-05
1209.15	-2.3736e-05
1217.83	-2.22511e-05
1226.51	-1.74261e-05
1235.19	5.3382e-05
1243.87	0.000222929
1252.55	0.000255651
1261.22	0.000702104
1269.9	0.00130947
1278.58	0.0123227
1287.26	0.00401013
1295.94	0.000125436
1304.61	1.10712e-05
1313.29	-1.22483e-06
1321.97	-1.75594e-05
1330.65	-1.72543e-05
1339.33	-1.92599e-05
1348.01	-2.53845e-05
1356.68	-1.69112e-06
1365.36	-2.65087e-05
1374.04	-2.51229e-05
1382.72	-2.96104e-05
1391.4	-2.7946e-05
1400.07	-2.72112e-05
1408.75	-2.70553e-05
1417.43	-2.36283e-05
1426.11	-2.53967e-05
1434.79	-2.84235e-05
1443.46	-2.88236e-05
1452.14	-2.91485e-05
1460.82	-2.77883e-05
1469.5	-2.60591e-05
1478.18	-2.49091e-05
1486.86	-2.18686e-05
1495.53	-1.46485e-05
1504.21	-1.72232e-05
1512.89	-6.52166e-06
1521.57	1.88718e-05
1530.25	-1.10829e-05
1538.92	0.000161043
1547.6	-1.83696e-05
1556.28	-5.7688e-06
1564.96	-1.31656e-05
1573.64	-2.40428e-05
1582.32	-2.8371e-05
1590.99	-3.11915e-05
1599.67	-2.74551e-05
1608.35	-2.65784e-05
1617.03	-6.52291e-06
1625.71	-2.96253e-05
1634.38	-1.99857e-05
1643.06	-2.43444e-05
1651.74	-1.01659e-05
1660.42	-2.30153e-05
1669.1	-1.66467e-05
1677.78	-2.45999e-05
1686.45	-2.37989e-05
1695.13	-1.05167e-06
1703.81	-1.96996e-05
1712.49	-2.52173e-05
1721.17	-2.68658e-05
1729.84	-2.25041e-05
1738.52	-2.55644e-05
1747.2	-2.34124e-05
1755.88	-2.99857e-05
1764.56	-3.13433e-05
1773.23	-1.83837e-05
1781.91	-2.69312e-05
1790.59	-2.35529e-05
1799.27	-2.47721e-05
1807.95	-2.38526e-05
1816.63	-2.50717e-05
1825.3	-2.30009e-05
1833.98	-2.64393e-05
1842.66	-2.76893e-05
1851.34	-3.03257e-05
1860.02	-3.18228e-05
1868.69	-2.56054e-05
1877.37	-2.84764e-05
1886.05	-2.65658e-05
1894.73	-2.52421e-05
1903.41	-2.54406e-05
1912.09	-2.09187e-05
1920.76	-2.25463e-05
1929.44	-2.35298e-05
1938.12	-2.8265e-05
1946.8	-2.53258e-05
1955.48	-2.76578e-05
1964.15	-2.57188e-05
1972.83	-2.89263e-05
1981.51	-2.61369e-05
1990.19	-2.75624e-05
1998.87	-2.81023e-05
2007.54	-2.78134e-05
2016.22	-2.64659e-05
2024.9	-3.1711e-05
2033.58	-3.15106e-05
2042.26	-2.95067e-05
2050.94	-2.73369e-05
2059.61	-2.97058e-05
2068.29	-2.85489e-05
2076.97	-3.08971e-05
2085.65	-2.94308e-05
2094.33	-2.85803e-05
2103	-2.72232e-05
2111.68	-2.67597e-05
2120.36	-2.96007e-05
2129.04	-2.74701e-05
2137.72	-2.63065e-05
2146.4	-2.33564e-05
2155.07	-2.84382e-05
2163.75	-2.25675e-05
2172.43	-1.66704e-05
2181.11	2.95023e-05
2189.79	-2.75541e-06
2198.46	-2.67022e-05
2207.14	-2.82306e-05
2215.82	-2.77747e-05
2224.5	-2.69633e-05
2233.18	-2.91613e-05
2241.85	-2.73144e-05
2250.53	-2.48375e-05
2259.21	-2.55669e-05
2267.89	-2.70775e-05
2276.57	-2.73753e-05
2285.25	-2.51689e-05
2293.92	-2.32674e-05
2302.6	-2.53196e-05
2311.28	-2.30554e-05
2319.96	-2.04039e-05
2328.64	-1.55827e-05
2337.31	-1.35005e-05
2345.99	-1.92437e-05
2354.67	-1.72146e-05
2363.35	-1.18159e-05
2372.03	-1.89257e-05
2380.71	-2.33967e-05
2389.38	-2.88811e-05
2398.06	-2.41979e-05
2406.74	-2.70758e-05
2415.42	-2.8148e-05
2424.1	-2.57371e-05
2432.77	-2.64404e-05
2441.45	-2.78023e-05
2450.13	-2.27155e-05
2458.81	-2.49933e-05
2467.49	-2.70846e-05
2476.16	-2.58064e-05
2484.84	-2.78327e-05
2493.52	-2.75382e-05
2502.2	-2.43573e-05
2510.88	-2.71401e-05
2519.56	-2.56106e-05
2528.23	-2.51789e-05
2536.91	-1.81823e-05
2545.59	-2.54258e-05
2554.27	-6.64947e-05
2562.95	-9.93403e-05
2571.62	-8.13826e-05
2580.3	-1.99074e-05
2588.98	-2.04589e-05
2597.66	-1.82837e-05
2606.34	-2.02383e-05
2615.02	-2.14883e-05
2623.69	-2.44421e-05
2632.37	-2.79297e-05
2641.05	-2.0537e-05
2649.73	-2.21475e-05
2658.41	-2.7283e-05
2667.08	-2.64028e-05
2675.76	-2.56735e-05
2684.44	-2.36577e-05
2693.12	-2.68784e-05
2701.8	-2.68312e-05
2710.47	-2.14483e-05
2719.15	-2.26222e-05
2727.83	-2.33868e-05
2736.51	-2.40946e-05
2745.19	-2.57964e-05
2753.87	-1.93992e-05
2762.54	-2.22842e-05
2771.22	-2.43096e-05
2779.9	-2.5399e-05
2788.58	-2.62084e-05
2797.26	-2.40226e-05
2805.93	-2.41243e-05
2814.61	-2.67911e-05
2823.29	-2.60741e-05
2831.97	-2.65417e-05
2840.65	-1.71426e-05
2849.33	-2.311e-05
2858	-2.20935e-05
2866.68	-2.59744e-05
2875.36	-2.31211e-05
2884.04	-2.30865e-05
2892.72	-2.5163e-05
2901.39	-2.39721e-05
2910.07	-1.73214e-05
2918.75	-2.36744e-05
2927.43	-2.34797e-05
2936.11	-2.3217e-05
2944.78	-2.85214e-05
2953.46	-2.28054e-05
2962.14	-2.3292e-05
2970.82	-2.58661e-05
2979.5	-2.77672e-05
2988.18	-2.18973e-05
2996.85	-1.98572e-05
3005.53	-2.30454e-05
3014.21	-2.51233e-05
3022.89	-2.241e-05
3031.57	-2.58089e-05
3040.24	-2.64983e-05
3048.92	-2.32847e-05
3057.6	-2.14888e-05
3066.28	-1.86141e-05
3074.96	-2.20291e-05
3083.64	-1.76831e-05
3092.31	-2.26265e-05
3100.99	-2.02453e-05
3109.67	-2.67222e-05
3118.35	-1.73978e-05
3127.03	-1.77162e-05
3135.7	-2.06825e-05
3144.38	-2.51829e-05
3153.06	-2.59059e-05
3161.74	-2.28278e-05
3170.42	-1.99668e-05
3179.09	-2.00633e-05
3187.77	-2.4886e-05
3196.45	-1.82439e-05
3205.13	-2.18883e-05
3213.81	-2.01254e-05
3222.49	-1.86422e-05
3231.16	-2.09838e-05
3239.84	-2.65537e-05
3248.52	-2.20677e-05
3257.2	-2.59151e-05
3265.88	-2.10434e-05
3274.55	-1.90724e-05
3283.23	-1.7766e-05
3291.91	-2.16008e-05
3300.59	-2.31026e-05
3309.27	-2.01141e-05
3317.95	-2.37228e-05
3326.62	-2.56657e-05
3335.3	-2.3066e-05
3343.98	-2.11252e-05
3352.66	-1.88626e-05
3361.34	-2.41259e-05
3370.01	-1.99261e-05
3378.69	-2.29833e-05
3387.37	-1.58058e-05
3396.05	-2.34813e-05
3404.73	-1.95725e-05
3413.4	-2.3056e-05
3422.08	-1.70482e-05
3430.76	-2.06075e-05
3439.44	-1.03436e-05
3448.12	-1.62151e-05
3456.8	-2.29665e-05
3465.47	-1.27304e-05
3474.15	-1.97112e-05
3482.83	-2.32672e-05
3491.51	-2.04915e-05
3500.19	-1.35073e-05
3508.86	-2.18795e-05
3517.54	-2.25729e-05
3526.22	-2.01246e-05
3534.9	-1.44934e-05
3543.58	-2.0571e-05
3552.26	-1.98584e-05
3560.93	-1.51751e-05
3569.61	-1.77763e-05
3578.29	-2.29451e-05
3586.97	-2.22162e-05
3595.65	-2.73594e-05
3604.32	-2.12793e-05
3613	-1.56705e-05
3621.68	-1.79702e-05
3630.36	-1.12999e-05
3639.04	-1.21061e-05
3647.72	-7.71183e-06
3656.39	-5.38947e-06
3665.07	-1.1743e-05
3673.75	-1.499e-05
3682.43	-1.54878e-05
3691.11	-7.2369e-06
3699.78	-1.09218e-05
3708.46	-1.77164e-05
3717.14	-2.02275e-05
3725.82	-1.70219e-05
3734.5	-1.51363e-05
3743.17	-1.39828e-05
3751.85	4.26504e-06
3760.53	-1.2588e-05
3769.21	-1.57144e-05
3777.89	-1.70901e-05
3786.57	-1.63159e-05
3795.24	-2.0547e-05
3803.92	-1.45915e-05
3812.6	-1.34832e-05
3821.28	-6.82227e-06
3829.96	-2.33477e-05
3838.63	-1.23617e-05
3847.31	-3.32071e-05
3855.99	-2.71974e-05
3864.67	-8.99911e-06
3873.35	-1.42518e-05
3882.03	-2.3734e-05
3890.7	-5.81976e-06
3899.38	-1.30677e-05
3908.06	-1.49084e-05
3916.74	-9.36418e-06
3925.42	-6.74023e-06
3934.09	-2.05443e-05
3942.77	-1.23107e-05
3951.45	-1.82663e-05
3960.13	-1.82274e-05
3968.81	-1.36189e-05
