Infrared Spectrum: Dichlorodifluoromethane
Formula: C Cl2 F2
CAS: 75-71-8
State: gas
Melting point: -158 C
Boiling point: -29.8 C
Class: IUPAC A
Instrument: IFS66V (Bruker)
Instrument parameters: KBr Beam Splitter; MCT Detector; Multipass cell
Sampling: 1 L/min Flow
Resolution: 0.4820
Temperature: 23 C
Pressure: 101.3 Pa
Origin: NIST, Analytical Chemistry Division, 301-975-3108
cm-1	(micromol/mol)-1m-1 (base 10)
575.17	-3.47523e-06
583.848	2.45484e-06
592.526	-2.77019e-06
601.205	-6.66749e-07
609.883	-6.14319e-07
618.561	-9.14122e-07
627.239	3.74134e-07
635.917	-8.44034e-07
644.595	3.25407e-06
653.274	2.61425e-05
661.952	5.45603e-05
670.63	7.28271e-05
679.308	4.72956e-05
687.986	6.70879e-06
696.664	-7.96413e-07
705.343	1.05721e-06
714.021	1.33161e-06
722.699	1.31436e-06
731.377	1.66067e-06
740.055	7.37893e-07
748.734	1.33072e-06
757.412	1.13968e-06
766.09	8.73275e-07
774.768	-2.28638e-07
783.446	-2.75022e-07
792.124	5.22701e-07
800.803	-1.23101e-07
809.481	4.55508e-07
818.159	1.28025e-06
826.837	2.16516e-06
835.515	3.73095e-06
844.193	7.18291e-06
852.872	2.06943e-05
861.55	7.03162e-05
870.228	0.000205346
878.906	0.000397582
887.584	0.000507564
896.263	0.000333441
904.941	0.000477886
913.619	0.00157395
922.297	0.00258544
930.975	0.00188395
939.653	0.000101767
948.332	5.03905e-06
957.01	1.66357e-06
965.688	6.2062e-07
974.366	3.8531e-07
983.044	2.79686e-07
991.723	-1.99731e-07
1000.4	-3.1616e-07
1009.08	-1.9618e-07
1017.76	-3.05661e-07
1026.44	4.33629e-07
1035.11	1.87289e-07
1043.79	6.13417e-07
1052.47	3.51681e-06
1061.15	1.44148e-05
1069.83	4.96197e-05
1078.5	0.000218348
1087.18	0.000821619
1095.86	0.00146231
1104.54	0.00148112
1113.22	0.00101313
1121.9	0.000340773
1130.57	0.000259357
1139.25	0.000312876
1147.93	0.000885853
1156.61	0.00104442
1165.29	0.000618687
1173.96	0.000397153
1182.64	5.4409e-05
1191.32	9.29794e-06
1200	9.11961e-06
1208.68	8.85124e-06
1217.36	4.86866e-06
1226.03	8.3408e-06
1234.71	1.2111e-05
1243.39	1.93024e-05
1252.07	8.63509e-06
1260.75	1.71059e-06
1269.42	2.35783e-07
1278.1	-4.21311e-07
1286.78	-1.37129e-07
1295.46	6.10164e-07
1304.14	1.3157e-07
1312.82	1.33665e-06
1321.49	2.03116e-06
1330.17	2.41642e-06
1338.85	3.4338e-06
1347.53	3.90402e-06
1356.21	5.63643e-06
1364.88	5.1733e-06
1373.56	6.95278e-06
1382.24	7.06341e-06
1390.92	5.10551e-06
1399.6	1.16818e-06
1408.28	2.82938e-07
1416.95	1.48559e-07
1425.63	-3.09517e-08
1434.31	8.8715e-08
1442.99	-2.36176e-08
1451.67	-5.15119e-07
1460.34	-2.7209e-07
1469.02	1.40324e-06
1477.7	1.77133e-06
1486.38	6.49527e-07
1495.06	-7.06999e-08
1503.73	-3.81606e-07
1512.41	-2.24141e-07
1521.09	-1.24335e-06
1529.77	4.95387e-07
1538.45	3.79555e-07
1547.13	3.85484e-07
1555.8	5.88802e-07
1564.48	8.00371e-07
1573.16	2.13999e-06
1581.84	4.19034e-06
1590.52	3.78403e-06
1599.19	3.21419e-06
1607.87	-4.10361e-08
1616.55	-1.71873e-06
1625.23	-3.22308e-07
1633.91	-1.453e-07
1642.59	-1.52365e-07
1651.26	-1.81439e-07
1659.94	-3.07661e-07
1668.62	-3.82312e-07
1677.3	-7.8878e-08
1685.98	-2.96056e-07
1694.65	-2.36707e-07
1703.33	-4.96027e-07
1712.01	-5.95023e-08
1720.69	-3.65156e-07
1729.37	-1.17942e-07
1738.05	8.36729e-10
1746.72	1.65947e-06
1755.4	2.97028e-06
1764.08	3.10492e-06
1772.76	5.95649e-07
1781.44	3.06577e-07
1790.11	1.12843e-06
1798.79	2.23959e-06
1807.47	2.32465e-06
1816.15	1.79325e-06
1824.83	1.64496e-06
1833.51	1.88113e-06
1842.18	1.45663e-06
1850.86	8.53449e-07
1859.54	-6.98821e-07
1868.22	-7.74832e-07
1876.9	-3.19929e-07
1885.57	-1.6923e-07
1894.25	-2.2711e-07
1902.93	-5.07378e-07
1911.61	-3.29453e-08
1920.29	-1.73894e-09
1928.97	-2.81883e-07
1937.64	-1.84662e-07
1946.32	-2.48938e-07
1955	-1.55646e-07
1963.68	1.34211e-07
1972.36	1.6338e-07
1981.03	9.50669e-08
1989.71	4.11656e-07
1998.39	4.84822e-07
2007.07	5.87951e-07
2015.75	6.57028e-07
2024.43	3.44361e-07
2033.1	-7.23224e-09
2041.78	1.96719e-07
2050.46	2.32087e-07
2059.14	3.20118e-07
2067.82	5.62427e-09
2076.49	7.24898e-08
2085.17	2.96231e-07
2093.85	-2.28267e-07
2102.53	1.41785e-07
2111.21	-3.99447e-09
2119.89	-2.14319e-07
2128.56	-1.20118e-07
2137.24	1.26644e-07
2145.92	3.36147e-09
2154.6	-3.96966e-07
2163.28	-3.93262e-08
2171.95	1.1074e-06
2180.63	3.44587e-06
2189.31	7.06815e-06
2197.99	6.14763e-06
2206.67	3.82391e-06
2215.35	1.99737e-06
2224.02	4.4162e-06
2232.7	1.05195e-05
2241.38	1.57559e-05
2250.06	3.52266e-05
2258.74	8.33829e-06
2267.41	2.04364e-06
2276.09	1.8587e-06
2284.77	6.56301e-07
2293.45	1.35495e-06
2302.13	4.05832e-06
2310.81	3.81232e-06
2319.48	4.52723e-06
2328.16	1.35918e-06
2336.84	-2.41058e-07
2345.52	-5.43044e-07
2354.2	1.89079e-07
2362.87	1.1239e-06
2371.55	1.14925e-06
2380.23	2.29642e-07
2388.91	-2.16953e-07
2397.59	5.01993e-07
2406.27	1.57632e-07
2414.94	1.87245e-07
2423.62	9.60419e-10
2432.3	2.21136e-07
2440.98	3.20969e-07
2449.66	6.03252e-07
2458.33	9.80937e-08
2467.01	1.63198e-07
2475.69	1.16844e-07
2484.37	7.35011e-08
2493.05	1.00626e-07
2501.73	-4.59153e-07
2510.4	4.19179e-07
2519.08	-6.94994e-08
2527.76	-3.62594e-07
2536.44	1.76026e-07
2545.12	-5.36307e-08
2553.79	2.02954e-07
2562.47	4.17928e-08
2571.15	1.94288e-07
2579.83	1.8456e-07
2588.51	7.71638e-07
2597.19	-1.69157e-07
2605.86	-1.37405e-07
2614.54	2.08265e-07
2623.22	-2.96653e-07
2631.9	4.26717e-07
2640.58	-2.04016e-08
2649.25	1.27714e-07
2657.93	2.5235e-07
2666.61	1.30901e-07
2675.29	7.21697e-08
2683.97	1.88482e-07
2692.65	1.74098e-07
2701.32	-9.09196e-08
2710	2.14137e-07
2718.68	2.44747e-07
2727.36	9.99127e-08
2736.04	-4.05973e-07
2744.71	-7.49854e-08
2753.39	2.08818e-07
2762.07	2.70685e-07
2770.75	-2.84757e-07
2779.43	-2.85324e-07
2788.11	-3.68066e-07
2796.78	-1.55923e-07
2805.46	-4.01921e-07
2814.14	-2.33113e-07
2822.82	-3.87434e-07
2831.5	-5.41429e-07
2840.17	-3.43655e-07
2848.85	-7.74592e-08
2857.53	-1.44769e-07
2866.21	5.70845e-07
2874.89	-3.11867e-07
2883.57	-9.03958e-08
2892.24	-6.17244e-07
2900.92	-2.65061e-07
2909.6	-2.13737e-07
2918.28	9.04613e-08
2926.96	-6.8117e-07
2935.63	2.44106e-07
2944.31	-3.57821e-07
2952.99	-2.00524e-07
2961.67	-3.61911e-07
2970.35	7.98748e-08
2979.03	-5.96107e-07
2987.7	5.14479e-08
2996.38	-3.90607e-07
3005.06	3.14464e-08
3013.74	-4.36132e-07
3022.42	4.90701e-07
3031.09	1.62922e-07
3039.77	-2.21915e-09
3048.45	4.24061e-07
3057.13	-3.04213e-07
3065.81	-3.47373e-07
3074.49	-3.85717e-07
3083.16	1.08476e-07
3091.84	1.78652e-07
3100.52	3.80435e-07
3109.2	-7.32756e-08
3117.88	1.2006e-07
3126.55	-2.74709e-07
3135.23	9.90905e-08
3143.91	2.75662e-07
3152.59	-1.41851e-07
3161.27	3.56519e-08
3169.95	2.96748e-07
3178.62	6.08192e-07
3187.3	-4.37478e-07
3195.98	-2.95387e-07
3204.66	-3.46791e-07
3213.34	-3.35419e-08
3222.01	-9.25684e-07
3230.69	-1.30959e-07
3239.37	-7.89224e-07
3248.05	-1.93757e-08
3256.73	-3.73006e-07
3265.4	-6.1656e-08
3274.08	-4.24447e-07
3282.76	6.62536e-07
3291.44	-5.01113e-07
3300.12	1.12362e-07
3308.8	-5.60288e-07
3317.47	6.08687e-07
3326.15	3.49163e-07
3334.83	-2.26382e-07
3343.51	-7.52932e-07
3352.19	-1.93917e-07
3360.86	5.9116e-07
3369.54	5.15046e-07
3378.22	-2.27874e-07
3386.9	1.61452e-07
3395.58	-7.50509e-08
3404.26	-3.71253e-07
3412.93	6.33469e-07
3421.61	-4.28973e-07
3430.29	-9.08207e-07
3438.97	6.78849e-07
3447.65	-7.23428e-07
3456.32	-5.7647e-08
3465	4.65068e-07
3473.68	-4.29598e-07
3482.36	-1.07704e-06
3491.04	3.52263e-07
3499.72	3.51295e-07
3508.39	-8.58898e-07
3517.07	-5.59029e-07
3525.75	3.49592e-07
3534.43	7.86045e-07
3543.11	3.75727e-07
3551.78	2.72701e-08
3560.46	3.3141e-07
3569.14	-6.03871e-07
3577.82	2.81301e-07
3586.5	1.04744e-07
3595.18	7.61292e-07
3603.85	1.01819e-07
3612.53	-3.92091e-07
3621.21	1.5382e-07
3629.89	1.06243e-07
3638.57	2.74265e-07
3647.24	-2.94805e-07
3655.92	-3.94456e-07
3664.6	5.39042e-07
3673.28	-5.07021e-07
3681.96	-4.2225e-07
3690.64	7.30791e-08
3699.31	9.38155e-08
3707.99	-2.27081e-07
3716.67	-1.09211e-08
3725.35	1.56286e-08
3734.03	6.46893e-07
3742.7	2.45591e-07
3751.38	2.36416e-07
3760.06	-1.98763e-07
3768.74	8.63955e-07
3777.42	5.65716e-07
3786.1	-2.13788e-07
3794.77	3.45249e-07
3803.45	8.59138e-08
3812.13	7.85841e-07
3820.81	-3.51819e-07
3829.49	1.047e-07
3838.16	-7.69201e-07
3846.84	1.83731e-07
3855.52	4.90563e-07
3864.2	9.36481e-08
3872.88	1.6218e-07
3881.56	-3.08811e-07
3890.23	-1.0478e-07
3898.91	3.16698e-07
3907.59	7.35521e-08
3916.27	8.84313e-08
3924.95	4.75575e-07
3933.62	3.98195e-07
3942.3	-1.23952e-07
3950.98	7.42746e-07
3959.66	-1.02481e-07
3968.34	5.80493e-07
