Infrared Spectrum: Dichlorodifluoromethane
Formula: C Cl2 F2
CAS: 75-71-8
State: gas
Melting point: -158 C
Boiling point: -29.8 C
Class: IUPAC A
Instrument: IFS66V (Bruker)
Instrument parameters: KBr Beam Splitter; MCT Detector; Multipass cell
Sampling: 1 L/min Flow
Resolution: 1.9290
Temperature: 23 C
Pressure: 101.3 Pa
Origin: NIST, Analytical Chemistry Division, 301-975-3108
cm-1	(micromol/mol)-1m-1 (base 10)
575.652	-1.08963e-06
584.33	-1.08239e-06
593.008	-1.77199e-06
601.687	-8.02819e-07
610.365	4.9625e-07
619.043	-1.33229e-06
627.721	-2.08135e-07
636.399	4.54083e-08
645.077	4.74172e-06
653.756	2.72206e-05
662.434	5.87135e-05
671.112	6.8469e-05
679.79	4.32957e-05
688.468	5.66026e-06
697.146	3.2509e-07
705.825	6.16067e-07
714.503	1.39738e-06
723.181	6.85839e-07
731.859	1.5518e-06
740.537	5.66112e-07
749.216	1.76832e-06
757.894	6.58096e-07
766.572	1.32926e-06
775.25	-3.79571e-07
783.928	1.37658e-07
792.606	-9.61526e-07
801.285	-8.48868e-08
809.963	-9.78933e-07
818.641	5.70572e-07
827.319	1.9839e-06
835.997	4.08355e-06
844.676	6.57696e-06
853.354	2.13975e-05
862.032	7.33891e-05
870.71	0.000216531
879.388	0.000397337
888.066	0.000546948
896.745	0.000320105
905.423	0.000516084
914.101	0.00158382
922.779	0.00277004
931.457	0.00178494
940.135	7.47013e-05
948.814	3.20706e-06
957.492	5.19747e-08
966.17	6.9238e-07
974.848	-5.33956e-07
983.526	5.30406e-09
992.205	-8.57609e-07
1000.88	-1.802e-07
1009.56	-8.31282e-07
1018.24	-4.8781e-07
1026.92	-2.82021e-07
1035.6	1.34089e-07
1044.27	6.16977e-07
1052.95	3.30334e-06
1061.63	1.43333e-05
1070.31	5.17862e-05
1078.99	0.000236546
1087.66	0.000865822
1096.34	0.00151431
1105.02	0.00141999
1113.7	0.00095701
1122.38	0.000321439
1131.06	0.000247494
1139.73	0.000331183
1148.41	0.000908069
1157.09	0.00118172
1165.77	0.000612157
1174.45	0.000370713
1183.12	4.50696e-05
1191.8	8.62383e-06
1200.48	8.65546e-06
1209.16	6.61607e-06
1217.84	4.16848e-06
1226.52	8.68732e-06
1235.19	1.26177e-05
1243.87	1.61108e-05
1252.55	7.98127e-06
1261.23	1.31433e-06
1269.91	-3.94417e-07
1278.58	-6.56786e-08
1287.26	-1.78323e-07
1295.94	5.22417e-07
1304.62	4.42845e-07
1313.3	1.29342e-06
1321.98	1.82487e-06
1330.65	2.48012e-06
1339.33	2.85494e-06
1348.01	4.11709e-06
1356.69	5.62184e-06
1365.37	5.64704e-06
1374.04	7.20911e-06
1382.72	7.09563e-06
1391.4	4.70143e-06
1400.08	9.46251e-07
1408.76	2.01354e-07
1417.44	1.59878e-07
1426.11	-8.62255e-08
1434.79	1.23609e-07
1443.47	-8.71604e-08
1452.15	-3.95665e-07
1460.83	9.2319e-08
1469.5	1.07795e-06
1478.18	1.54317e-06
1486.86	5.47977e-07
1495.54	-6.48921e-07
1504.22	-3.17723e-07
1512.9	-1.0125e-07
1521.57	-2.69285e-07
1530.25	5.31588e-07
1538.93	-2.48901e-07
1547.61	4.64698e-07
1556.29	4.14666e-07
1564.96	6.65787e-07
1573.64	2.33455e-06
1582.32	4.36212e-06
1591	4.40916e-06
1599.68	2.88656e-06
1608.36	-1.24838e-07
1617.03	-8.82365e-07
1625.71	-2.26197e-07
1634.39	-5.3046e-07
1643.07	-8.6291e-09
1651.75	-9.70839e-07
1660.42	-2.12384e-07
1669.1	-5.62467e-07
1677.78	-1.15281e-07
1686.46	-2.2181e-07
1695.14	-8.58479e-07
1703.82	-4.06972e-07
1712.49	-1.94475e-07
1721.17	-6.32958e-08
1729.85	-3.32177e-08
1738.53	8.29296e-08
1747.21	1.58452e-06
1755.88	2.85796e-06
1764.56	3.21572e-06
1773.24	1.49986e-06
1781.92	5.26946e-07
1790.6	1.12127e-06
1799.28	2.23023e-06
1807.95	2.30223e-06
1816.63	1.89823e-06
1825.31	1.48103e-06
1833.99	1.79797e-06
1842.67	1.43271e-06
1851.34	7.03006e-07
1860.02	-7.57069e-07
1868.7	-7.13079e-07
1877.38	-4.02952e-07
1886.06	-7.57556e-08
1894.74	-2.48188e-07
1903.41	-9.38469e-08
1912.09	-4.25271e-08
1920.77	-4.27199e-08
1929.45	-1.26515e-07
1938.13	-1.09312e-07
1946.8	-9.7332e-08
1955.48	4.07045e-08
1964.16	1.00595e-07
1972.84	2.74894e-07
1981.52	-3.39816e-08
1990.19	1.61934e-07
1998.87	2.52343e-07
2007.55	5.94571e-07
2016.23	5.56533e-07
2024.91	2.01762e-07
2033.59	1.53036e-07
2042.26	1.7256e-07
2050.94	2.65901e-07
2059.62	2.22549e-07
2068.3	5.08069e-08
2076.98	5.2655e-08
2085.65	1.05026e-07
2094.33	-3.05256e-08
2103.01	-1.14838e-07
2111.69	-1.17424e-07
2120.37	-1.198e-07
2129.05	-9.18679e-08
2137.72	-2.38501e-08
2146.4	6.79523e-08
2155.08	-3.29485e-07
2163.76	-4.64523e-08
2172.44	1.00112e-06
2181.11	3.67648e-06
2189.79	7.16695e-06
2198.47	6.29098e-06
2207.15	3.59454e-06
2215.83	2.10548e-06
2224.51	4.56568e-06
2233.18	1.07336e-05
2241.86	1.57737e-05
2250.54	2.29007e-05
2259.22	8.20349e-06
2267.9	2.04425e-06
2276.57	1.71755e-06
2285.25	4.73829e-07
2293.93	1.39613e-06
2302.61	4.1929e-06
2311.29	5.41732e-06
2319.97	4.491e-06
2328.64	1.43694e-06
2337.32	-1.7351e-07
2346	-4.58208e-07
2354.68	-8.28641e-08
2363.36	6.73608e-07
2372.03	4.83153e-07
2380.71	2.05545e-07
2389.39	9.1173e-08
2398.07	2.79078e-07
2406.75	2.67695e-07
2415.43	3.47572e-07
2424.1	-2.99545e-08
2432.78	1.67005e-07
2441.46	2.0254e-07
2450.14	2.93102e-07
2458.82	2.13356e-07
2467.49	1.41678e-07
2476.17	3.04128e-08
2484.85	8.16963e-08
2493.53	-4.36439e-08
2502.21	3.88346e-08
2510.89	1.79632e-07
2519.56	2.62034e-07
2528.24	-4.37676e-08
2536.92	2.20911e-07
2545.6	9.41816e-08
2554.28	8.83064e-08
2562.95	1.95366e-07
2571.63	1.96596e-07
2580.31	8.57453e-09
2588.99	2.63093e-07
2597.67	-2.86412e-08
2606.35	1.12895e-07
2615.02	3.67573e-08
2623.7	-2.5243e-07
2632.38	2.08845e-07
2641.06	2.56079e-07
2649.74	1.84234e-07
2658.41	9.8136e-08
2667.09	-4.07845e-08
2675.77	1.5281e-07
2684.45	1.7439e-07
2693.13	1.95988e-07
2701.81	-1.04109e-07
2710.48	2.20264e-07
2719.16	2.34135e-08
2727.84	6.72466e-08
2736.52	-3.64117e-08
2745.2	-1.29145e-09
2753.87	-2.70296e-08
2762.55	2.71937e-07
2771.23	-2.12963e-07
2779.91	-1.60071e-07
2788.59	-6.66682e-08
2797.27	-3.73438e-07
2805.94	-9.39124e-08
2814.62	-2.92473e-07
2823.3	-1.99219e-07
2831.98	-4.78853e-07
2840.66	-2.17284e-07
2849.33	-2.9208e-07
2858.01	-2.9165e-08
2866.69	1.9673e-07
2875.37	-3.34821e-07
2884.05	-2.08168e-07
2892.73	-2.81246e-07
2901.4	-3.18716e-08
2910.08	-3.36957e-07
2918.76	3.09222e-10
2927.44	-2.50378e-07
2936.12	3.31813e-08
2944.79	-1.28487e-07
2953.47	-1.84354e-07
2962.15	-4.41103e-07
2970.83	1.01152e-07
2979.51	-2.94699e-07
2988.19	-7.28635e-08
2996.86	-8.4603e-08
3005.54	-2.38224e-07
3014.22	-3.07403e-09
3022.9	3.02302e-07
3031.58	1.40841e-07
3040.25	-1.01166e-07
3048.93	9.21298e-08
3057.61	-3.35705e-08
3066.29	-4.66968e-07
3074.97	1.4799e-08
3083.65	-1.3915e-08
3092.32	8.37335e-08
3101	9.22681e-08
3109.68	-2.37722e-07
3118.36	-1.45778e-07
3127.04	2.1289e-07
3135.71	1.14194e-07
3144.39	1.81095e-08
3153.07	2.4152e-08
3161.75	-2.01176e-07
3170.43	-2.88813e-08
3179.11	2.10751e-07
3187.78	8.47376e-08
3196.46	-4.67637e-07
3205.14	-2.26212e-07
3213.82	-1.07158e-07
3222.5	-4.77678e-07
3231.17	-2.28878e-07
3239.85	-1.84831e-07
3248.53	4.03807e-09
3257.21	-1.9163e-07
3265.89	-2.01805e-07
3274.57	-1.90117e-08
3283.24	3.66231e-07
3291.92	7.06262e-08
3300.6	-1.20695e-07
3309.28	-3.39103e-07
3317.96	3.84173e-07
3326.63	3.11288e-07
3335.31	1.07442e-07
3343.99	-3.12325e-07
3352.67	-1.44672e-07
3361.35	8.02775e-08
3370.03	-1.80465e-07
3378.7	9.08857e-08
3387.38	-1.95617e-07
3396.06	1.11964e-07
3404.74	-1.70061e-07
3413.42	-2.48498e-07
3422.09	-2.83974e-07
3430.77	-2.34001e-07
3439.45	2.64046e-07
3448.13	-1.00166e-07
3456.81	2.1082e-07
3465.49	-4.98029e-08
3474.16	-1.4003e-07
3482.84	-4.53493e-07
3491.52	-1.28069e-07
3500.2	1.37473e-07
3508.88	-4.6321e-07
3517.55	-6.64488e-07
3526.23	-4.9912e-08
3534.91	4.89007e-08
3543.59	6.07293e-07
3552.27	-2.44012e-07
3560.95	2.2683e-07
3569.62	-1.72265e-07
3578.3	1.85286e-07
3586.98	3.5404e-08
3595.66	3.14304e-07
3604.34	3.04005e-07
3613.01	2.77645e-07
3621.69	2.64988e-07
3630.37	3.23457e-07
3639.05	3.1506e-07
3647.73	8.56798e-08
3656.41	-3.06431e-07
3665.08	4.53188e-07
3673.76	-4.88548e-07
3682.44	8.65711e-08
3691.12	3.62589e-08
3699.8	3.21965e-07
3708.47	4.04618e-07
3717.15	6.36873e-07
3725.83	2.60332e-07
3734.51	1.45298e-07
3743.19	-1.14961e-07
3751.87	-3.9799e-07
3760.54	2.9328e-07
3769.22	7.41655e-07
3777.9	4.03618e-07
3786.58	3.66646e-07
3795.26	4.39753e-07
3803.93	2.95412e-07
3812.61	1.25664e-07
3821.29	1.96334e-07
3829.97	1.29527e-07
3838.65	-1.88138e-07
3847.33	-8.51378e-08
3856	3.40078e-07
3864.68	8.6211e-08
3873.36	1.8379e-07
3882.04	2.19645e-07
3890.72	-2.30563e-07
3899.39	-8.56507e-08
3908.07	3.37877e-07
3916.75	9.61497e-09
3925.43	2.19147e-07
3934.11	1.75685e-07
3942.79	3.2342e-07
3951.46	2.62136e-07
3960.14	2.15386e-07
3968.82	2.01722e-07
