Infrared Spectrum: Carbon tetrafluoride
Formula: C F4
CAS: 75-73-0
State: gas
Melting point: -150 C
Boiling point: -129 C
Class: IUPAC A
Instrument: IFS66V (Bruker)
Instrument parameters: KBr Beam Splitter; MCT Detector; Multipass cell
Sampling: 1 L/min Flow
Resolution: 0.2410
Temperature: 23 C
Pressure: 101.3 Pa
Origin: NIST, Analytical Chemistry Division, 301-975-3108
cm-1	(micromol/mol)-1m-1 (base 10)
575.048	-0.00020435
583.606	-5.90771e-05
592.163	-4.30474e-05
600.721	2.05033e-05
609.278	-5.18866e-05
617.836	-5.4024e-05
626.394	-3.10258e-05
634.951	-3.90946e-05
643.509	1.34372e-05
652.067	-2.08098e-05
660.624	-3.67579e-05
669.182	-4.83986e-06
677.739	-2.14402e-05
686.297	-6.43024e-05
694.855	-3.97766e-05
703.412	-6.46066e-05
711.97	-3.54454e-05
720.528	-2.43097e-05
729.085	-2.33697e-05
737.643	-4.96753e-05
746.2	-3.87435e-05
754.758	-3.50821e-05
763.316	-1.80029e-05
771.873	-2.39539e-05
780.431	-5.19253e-05
788.988	-5.85086e-05
797.546	-5.1974e-05
806.104	-6.0827e-05
814.661	-2.7575e-05
823.219	-3.67775e-05
831.777	-4.94783e-05
840.334	-4.16826e-05
848.892	-1.7136e-05
857.449	-4.9091e-05
866.007	-2.28635e-05
874.565	-2.63245e-05
883.122	-1.71343e-05
891.68	-2.33067e-05
900.238	-2.816e-05
908.795	-9.73863e-06
917.353	-6.0316e-05
925.91	-1.6541e-05
934.468	-1.49598e-05
943.026	-1.62981e-05
951.583	-3.5464e-05
960.141	-3.10935e-05
968.698	-4.25669e-05
977.256	-2.71743e-05
985.814	-2.12825e-05
994.371	-4.6109e-05
1002.93	-3.55193e-05
1011.49	-3.01532e-05
1020.04	-4.42825e-05
1028.6	-3.0739e-05
1037.16	-2.43673e-05
1045.72	-4.16563e-05
1054.27	-2.0184e-05
1062.83	-3.36141e-05
1071.39	-2.16036e-05
1079.95	-4.68927e-05
1088.51	-2.67655e-05
1097.06	-4.69477e-05
1105.62	-7.56979e-06
1114.18	-3.15995e-05
1122.74	-2.80228e-05
1131.29	-1.02735e-05
1139.85	-2.90441e-05
1148.41	-3.50508e-05
1156.97	-2.87246e-05
1165.52	-4.48921e-05
1174.08	-2.19411e-05
1182.64	-4.16098e-05
1191.2	-3.50636e-05
1199.75	-3.38893e-05
1208.31	-3.41585e-05
1216.87	-2.88045e-05
1225.43	-2.71537e-05
1233.98	1.5116e-05
1242.54	6.67057e-05
1251.1	0.000153162
1259.66	0.000376728
1268.22	0.000914772
1276.77	0.00727274
1285.33	0.0167998
1293.89	5.12659e-05
1302.45	-2.26399e-05
1311	-1.4351e-05
1319.56	-2.53015e-05
1328.12	-2.37226e-05
1336.68	-1.87486e-05
1345.23	-2.97302e-05
1353.79	-3.38368e-05
1362.35	-4.02751e-05
1370.91	-2.34788e-05
1379.46	-2.76095e-05
1388.02	-3.67913e-05
1396.58	-2.43418e-05
1405.14	-2.58981e-05
1413.69	-2.1039e-05
1422.25	-2.47791e-05
1430.81	-3.33239e-05
1439.37	-3.25301e-05
1447.93	-9.88402e-06
1456.48	1.83428e-05
1465.04	-5.24485e-06
1473.6	1.28284e-05
1482.16	-3.6084e-05
1490.71	9.45948e-07
1499.27	-2.26365e-05
1507.83	-1.72869e-05
1516.39	1.97338e-06
1524.94	-1.13174e-06
1533.5	-2.42612e-05
1542.06	3.78754e-05
1550.62	-1.67217e-05
1559.17	-7.76071e-06
1567.73	-2.64934e-05
1576.29	5.45415e-05
1584.85	-3.17841e-05
1593.4	-2.9594e-05
1601.96	-3.03494e-05
1610.52	-2.65123e-05
1619.08	-3.24181e-05
1627.64	-2.35858e-05
1636.19	-2.2804e-05
1644.75	-3.13491e-05
1653.31	9.48138e-05
1661.87	-2.6927e-05
1670.42	-3.35123e-05
1678.98	-2.3794e-05
1687.54	-3.06329e-05
1696.1	4.01557e-05
1704.65	-1.77897e-05
1713.21	-1.92816e-05
1721.77	-3.76608e-05
1730.33	-2.47726e-05
1738.88	-2.70764e-05
1747.44	-2.15251e-05
1756	-3.35934e-05
1764.56	-3.26793e-05
1773.11	-2.01743e-05
1781.67	-2.59655e-05
1790.23	-2.5852e-05
1798.79	-2.82074e-05
1807.35	-2.63379e-05
1815.9	-2.56839e-05
1824.46	-2.61439e-05
1833.02	-2.25153e-05
1841.58	-2.59434e-05
1850.13	-3.64955e-05
1858.69	-3.34387e-05
1867.25	-3.53304e-05
1875.81	-2.38569e-05
1884.36	-3.91344e-05
1892.92	-2.52542e-05
1901.48	-1.50084e-05
1910.04	-1.68235e-05
1918.59	-1.43742e-05
1927.15	-2.86578e-05
1935.71	-2.52839e-05
1944.27	-2.68157e-05
1952.82	-2.79621e-05
1961.38	-2.57916e-05
1969.94	-3.18066e-05
1978.5	-2.79924e-05
1987.06	-2.87073e-05
1995.61	-3.18202e-05
2004.17	-3.50325e-05
2012.73	-3.62115e-05
2021.29	-2.95325e-05
2029.84	-2.88792e-05
2038.4	-2.39409e-05
2046.96	-2.55562e-05
2055.52	-3.36413e-05
2064.07	-3.77271e-05
2072.63	-3.23941e-05
2081.19	-2.31196e-05
2089.75	-2.75622e-05
2098.3	-1.80053e-05
2106.86	-2.99048e-05
2115.42	-3.5822e-05
2123.98	-3.28389e-05
2132.53	-1.67363e-05
2141.09	-3.22997e-05
2149.65	-2.02756e-05
2158.21	-2.8893e-05
2166.77	-2.18115e-05
2175.32	-6.10338e-06
2183.88	6.86647e-05
2192.44	-2.13596e-05
2201	-3.08686e-05
2209.55	-3.12793e-05
2218.11	-2.54664e-05
2226.67	-2.61177e-05
2235.23	-1.47528e-05
2243.78	-3.24236e-05
2252.34	-3.35047e-05
2260.9	-3.70648e-05
2269.46	-2.2653e-05
2278.01	-1.55016e-05
2286.57	-2.33219e-05
2295.13	-2.59795e-05
2303.69	-4.49357e-05
2312.24	-2.38795e-05
2320.8	-1.58652e-05
2329.36	-2.56393e-05
2337.92	-1.62106e-05
2346.48	-3.15407e-05
2355.03	-1.67573e-05
2363.59	-2.62769e-05
2372.15	-2.47218e-05
2380.71	-1.39328e-05
2389.26	-2.94127e-05
2397.82	-1.66444e-05
2406.38	-3.29781e-05
2414.94	-2.65599e-05
2423.49	-2.46658e-05
2432.05	-2.55955e-05
2440.61	-3.08582e-05
2449.17	-2.53335e-05
2457.72	-1.83761e-05
2466.28	-1.90106e-05
2474.84	-2.23686e-05
2483.4	-2.33965e-05
2491.95	-2.10629e-05
2500.51	-3.08746e-05
2509.07	-2.55872e-05
2517.63	-2.7148e-05
2526.19	-3.2461e-05
2534.74	-2.12561e-05
2543.3	-2.28093e-05
2551.86	-6.22784e-05
2560.42	-0.000133506
2568.97	-0.000134512
2577.53	-2.70822e-05
2586.09	-1.54977e-05
2594.65	-1.3581e-05
2603.2	-7.79353e-06
2611.76	-2.0675e-05
2620.32	-1.75656e-05
2628.88	-3.62638e-05
2637.43	-3.42162e-05
2645.99	-3.1376e-05
2654.55	-3.49022e-05
2663.11	-3.59719e-05
2671.66	-2.08535e-05
2680.22	-3.82696e-05
2688.78	-1.72988e-05
2697.34	-2.57357e-05
2705.9	-1.30908e-05
2714.45	-3.34719e-05
2723.01	-2.98596e-05
2731.57	-3.3771e-05
2740.13	-3.02376e-05
2748.68	-1.62433e-05
2757.24	-2.15978e-05
2765.8	-2.52349e-05
2774.36	-2.63943e-05
2782.91	-1.72195e-05
2791.47	-2.33669e-05
2800.03	-2.97662e-05
2808.59	-3.56294e-05
2817.14	-2.69637e-05
2825.7	-2.68021e-05
2834.26	-2.50275e-05
2842.82	-3.14534e-05
2851.37	-2.20046e-05
2859.93	-2.08322e-05
2868.49	-1.82016e-05
2877.05	-2.7661e-05
2885.61	-2.14132e-05
2894.16	-1.35305e-05
2902.72	-3.39866e-05
2911.28	-3.3544e-05
2919.84	-2.95544e-05
2928.39	-3.48471e-05
2936.95	-2.2149e-05
2945.51	-2.92131e-05
2954.07	-3.0271e-05
2962.62	-2.33464e-05
2971.18	-1.82688e-05
2979.74	-3.51151e-05
2988.3	1.31508e-06
2996.85	-1.96656e-05
3005.41	-1.79663e-05
3013.97	-2.08412e-05
3022.53	-2.09642e-05
3031.08	-4.09494e-05
3039.64	-3.08433e-05
3048.2	-2.78987e-05
3056.76	-2.6668e-05
3065.32	-3.06579e-05
3073.87	-2.72328e-05
3082.43	-1.87887e-05
3090.99	-2.15064e-05
3099.55	-2.73825e-05
3108.1	-3.11006e-05
3116.66	-3.40011e-05
3125.22	-2.42023e-05
3133.78	-7.48703e-06
3142.33	-2.28568e-05
3150.89	-3.61762e-05
3159.45	-1.74837e-05
3168.01	-4.18968e-05
3176.56	-1.86916e-05
3185.12	-3.67407e-05
3193.68	-8.32366e-06
3202.24	-1.59937e-05
3210.79	-2.17174e-05
3219.35	-2.31862e-05
3227.91	-1.37658e-05
3236.47	-2.86377e-05
3245.03	-1.94336e-05
3253.58	-1.65911e-05
3262.14	-2.37657e-05
3270.7	-2.75886e-05
3279.26	-4.15525e-05
3287.81	-3.02981e-05
3296.37	-2.04352e-05
3304.93	-8.73005e-06
3313.49	-3.39098e-05
3322.04	-2.63098e-05
3330.6	-1.84659e-05
3339.16	-2.63691e-05
3347.72	-3.77285e-05
3356.27	-1.92369e-05
3364.83	-4.76707e-05
3373.39	-3.60471e-05
3381.95	1.80808e-06
3390.5	-2.61438e-05
3399.06	-2.07454e-05
3407.62	-2.70448e-05
3416.18	-2.39419e-05
3424.74	-1.04476e-05
3433.29	-3.25752e-05
3441.85	-1.90361e-05
3450.41	-1.02253e-05
3458.97	-9.09558e-06
3467.52	-2.45562e-05
3476.08	-2.56717e-05
3484.64	-6.78228e-06
3493.2	-4.64476e-08
3501.75	-2.70227e-05
3510.31	-1.6732e-05
3518.87	-9.10128e-06
3527.43	-2.34281e-05
3535.98	-1.00073e-05
3544.54	-8.6566e-06
3553.1	-1.66903e-05
3561.66	-1.84382e-06
3570.21	-1.43658e-05
3578.77	-3.79928e-05
3587.33	-3.39052e-05
3595.89	-3.04196e-05
3604.45	-3.04625e-05
3613	-1.74445e-05
3621.56	-1.7522e-05
3630.12	-4.0045e-05
3638.68	-1.6715e-05
3647.23	3.73793e-07
3655.79	-1.52764e-05
3664.35	-1.58386e-05
3672.91	-2.46796e-05
3681.46	-3.51834e-05
3690.02	-2.00381e-05
3698.58	-1.51355e-05
3707.14	-2.91606e-05
3715.69	-2.6092e-05
3724.25	-7.18657e-06
3732.81	-3.25322e-05
3741.37	-1.46628e-05
3749.92	3.8846e-07
3758.48	-2.82283e-05
3767.04	-1.45159e-05
3775.6	-1.22722e-05
3784.16	-2.50312e-05
3792.71	-1.17558e-05
3801.27	3.88743e-05
3809.83	-1.82271e-05
3818.39	-9.44318e-07
3826.94	-1.78837e-05
3835.5	-1.93882e-05
3844.06	-3.12135e-05
3852.62	-2.09701e-05
3861.17	-3.84505e-05
3869.73	-1.59839e-05
3878.29	-2.77475e-05
3886.85	-2.3157e-05
3895.4	-4.09544e-05
3903.96	1.16744e-05
3912.52	-2.14173e-05
3921.08	-2.58749e-05
3929.63	-3.24291e-05
3938.19	-1.56121e-05
3946.75	-3.88495e-05
3955.31	-1.77715e-05
3963.87	-3.88603e-05
3972.42	-7.63685e-06
