Infrared Spectrum: Carbon tetrafluoride
Formula: C F4
CAS: 75-73-0
State: gas
Melting point: -150 C
Boiling point: -129 C
Class: IUPAC A
Instrument: IFS66V (Bruker)
Instrument parameters: KBr Beam Splitter; MCT Detector; Multipass cell
Sampling: 1 L/min Flow
Resolution: 0.4820
Temperature: 23 C
Pressure: 101.3 Pa
Origin: NIST, Analytical Chemistry Division, 301-975-3108
cm-1	(micromol/mol)-1m-1 (base 10)
575.168	-0.000292207
583.846	4.19685e-05
592.524	9.73391e-05
601.202	-6.50453e-05
609.881	-4.71441e-05
618.559	1.4162e-05
627.237	-3.65887e-05
635.915	-6.65958e-05
644.593	-8.32241e-05
653.271	-4.42735e-05
661.949	-4.85665e-05
670.628	-1.16134e-05
679.306	-4.25335e-05
687.984	-2.59174e-05
696.662	-3.30843e-05
705.34	4.85092e-06
714.018	-3.37423e-05
722.697	-1.94597e-05
731.375	-3.4845e-05
740.053	-3.17387e-05
748.731	-2.43311e-05
757.409	-4.30305e-05
766.087	-1.88304e-05
774.765	-4.02773e-05
783.444	-4.29856e-05
792.122	-2.24862e-05
800.8	-3.91121e-05
809.478	-1.44302e-05
818.156	-5.43007e-05
826.834	-3.9066e-05
835.512	-6.98352e-05
844.191	-3.04609e-05
852.869	-3.0946e-05
861.547	-2.21583e-05
870.225	-5.69647e-05
878.903	-2.12743e-05
887.581	-3.0525e-05
896.26	-4.82703e-05
904.938	-5.75695e-05
913.616	-4.18899e-05
922.294	-2.08615e-05
930.972	-3.78621e-05
939.65	-4.47336e-05
948.328	-1.75984e-05
957.007	-6.89325e-05
965.685	-3.51233e-05
974.363	-2.91286e-05
983.041	-2.83968e-05
991.719	-2.44903e-05
1000.4	-3.34725e-05
1009.08	-3.51221e-05
1017.75	-3.43811e-05
1026.43	-2.45631e-05
1035.11	-4.62737e-05
1043.79	-2.89004e-05
1052.47	-4.70193e-05
1061.14	-3.98491e-05
1069.82	-2.2716e-05
1078.5	-4.33403e-05
1087.18	-5.81882e-05
1095.86	-3.86295e-05
1104.54	-2.08567e-05
1113.21	-4.86417e-05
1121.89	-3.05935e-05
1130.57	-4.83324e-05
1139.25	-4.25856e-05
1147.93	-4.07671e-05
1156.6	-4.80669e-05
1165.28	-4.05079e-05
1173.96	-3.12772e-05
1182.64	-6.43244e-05
1191.32	-6.26034e-05
1199.99	-4.33631e-05
1208.67	-4.65536e-05
1217.35	-4.6779e-05
1226.03	-4.55302e-05
1234.71	7.25001e-07
1243.39	0.000363163
1252.06	0.000149431
1260.74	0.000555778
1269.42	0.000985677
1278.1	0.0101152
1286.78	0.00558099
1295.45	0.00014603
1304.13	5.54477e-05
1312.81	4.10921e-05
1321.49	4.25537e-06
1330.17	8.83785e-07
1338.85	8.80944e-06
1347.52	2.34333e-07
1356.2	4.29588e-05
1364.88	-9.20861e-06
1373.56	-9.63037e-06
1382.24	-2.04917e-06
1390.91	-2.50749e-05
1399.59	-1.63405e-06
1408.27	-1.04168e-05
1416.95	-1.7887e-05
1425.63	-1.3308e-05
1434.3	-2.0019e-05
1442.98	-2.24124e-05
1451.66	-1.18819e-05
1460.34	-6.37869e-06
1469.02	-1.09014e-05
1477.7	-1.82582e-05
1486.37	-9.73281e-06
1495.05	-1.92929e-05
1503.73	-1.55024e-05
1512.41	5.32471e-06
1521.09	5.00621e-05
1529.76	5.89966e-07
1538.44	6.75852e-05
1547.12	-2.22506e-05
1555.8	-4.02394e-06
1564.48	-6.18486e-06
1573.16	-1.95892e-05
1581.83	-2.63652e-05
1590.51	-3.60551e-05
1599.19	-1.67508e-05
1607.87	-1.76873e-05
1616.55	3.31148e-05
1625.22	-2.75258e-05
1633.9	-1.98036e-05
1642.58	-2.09857e-05
1651.26	-1.33655e-05
1659.94	-2.38432e-05
1668.61	-1.97261e-05
1677.29	-2.56026e-05
1685.97	-2.20986e-05
1694.65	-2.24208e-05
1703.33	-1.42246e-05
1712.01	-2.70261e-05
1720.68	-2.02338e-05
1729.36	-2.31136e-05
1738.04	-2.04087e-05
1746.72	-3.68333e-05
1755.4	-2.9124e-05
1764.07	-3.53251e-05
1772.75	4.28368e-05
1781.43	-3.01278e-05
1790.11	-2.6405e-05
1798.79	-3.18356e-05
1807.47	-2.58541e-05
1816.14	-1.50205e-05
1824.82	-1.95651e-05
1833.5	-1.91578e-05
1842.18	-1.61968e-05
1850.86	-3.06105e-05
1859.53	-2.5689e-05
1868.21	-2.61771e-05
1876.89	-2.70806e-05
1885.57	-2.04733e-05
1894.25	-3.12939e-05
1902.92	-2.71771e-05
1911.6	-1.54176e-05
1920.28	-1.91422e-05
1928.96	-2.40489e-05
1937.64	-2.40954e-05
1946.32	-2.63424e-05
1954.99	-2.41007e-05
1963.67	-2.09781e-05
1972.35	-2.94503e-05
1981.03	-3.28111e-05
1989.71	-3.41507e-05
1998.38	-3.48557e-05
2007.06	-3.12491e-05
2015.74	-1.84175e-05
2024.42	-2.65693e-05
2033.1	-2.93683e-05
2041.78	-2.74694e-05
2050.45	-1.95708e-05
2059.13	-3.08383e-05
2067.81	-2.83457e-05
2076.49	-2.81546e-05
2085.17	-2.54355e-05
2093.84	-2.07404e-05
2102.52	-3.36792e-05
2111.2	-2.89457e-05
2119.88	-2.39086e-05
2128.56	-2.61736e-05
2137.23	-2.23556e-05
2145.91	-1.77942e-05
2154.59	-2.71837e-05
2163.27	-1.44312e-05
2171.95	-1.82735e-05
2180.63	2.35047e-05
2189.3	1.94218e-06
2197.98	-2.05787e-05
2206.66	-2.87096e-05
2215.34	-3.17202e-05
2224.02	-1.95074e-05
2232.69	-3.13247e-05
2241.37	-1.01775e-05
2250.05	-5.17384e-06
2258.73	-2.34598e-05
2267.41	-2.72778e-05
2276.09	-2.23223e-05
2284.76	-2.83678e-05
2293.44	-2.28883e-05
2302.12	-1.99108e-05
2310.8	-2.14151e-05
2319.48	-2.96283e-05
2328.15	-2.21134e-05
2336.83	-1.81914e-05
2345.51	-2.82525e-05
2354.19	-1.51744e-05
2362.87	2.16966e-05
2371.54	-2.18578e-05
2380.22	-3.39998e-05
2388.9	-3.06627e-05
2397.58	-2.45229e-05
2406.26	-3.79952e-05
2414.94	-2.99246e-05
2423.61	-2.56126e-05
2432.29	-3.60963e-05
2440.97	-3.31766e-05
2449.65	-2.10615e-05
2458.33	-5.57162e-06
2467	-3.0864e-05
2475.68	-2.48303e-05
2484.36	-2.87862e-05
2493.04	-2.96896e-05
2501.72	-3.27706e-05
2510.4	-3.73244e-05
2519.07	-2.68273e-05
2527.75	-2.5631e-05
2536.43	-2.1034e-05
2545.11	-1.51901e-05
2553.79	-6.21127e-05
2562.46	-8.69824e-05
2571.14	-9.61249e-05
2579.82	-2.01082e-05
2588.5	-1.75458e-05
2597.18	-2.46625e-05
2605.85	-3.28437e-05
2614.53	-1.9448e-05
2623.21	-2.83973e-05
2631.89	-1.83509e-05
2640.57	-1.4933e-05
2649.25	-2.28967e-05
2657.92	-3.40355e-05
2666.6	-3.92077e-05
2675.28	-2.14189e-05
2683.96	-2.48548e-05
2692.64	-3.47865e-05
2701.31	-2.32323e-05
2709.99	-1.18318e-05
2718.67	-2.15198e-05
2727.35	-2.05389e-05
2736.03	-1.54956e-05
2744.71	-3.02818e-05
2753.38	-2.11572e-05
2762.06	-2.25423e-05
2770.74	-2.28457e-05
2779.42	-3.53435e-05
2788.1	-2.41129e-05
2796.77	-2.09684e-05
2805.45	-2.68301e-05
2814.13	-2.625e-05
2822.81	-1.27323e-05
2831.49	-1.61148e-05
2840.16	-1.67676e-05
2848.84	-2.56997e-05
2857.52	-1.43777e-05
2866.2	-1.69105e-05
2874.88	-2.76533e-05
2883.56	-1.79821e-05
2892.23	-1.30315e-05
2900.91	-1.4104e-05
2909.59	-1.26753e-05
2918.27	-2.74641e-05
2926.95	-2.64601e-05
2935.62	-2.13382e-05
2944.3	-2.37159e-05
2952.98	1.43336e-06
2961.66	-1.29506e-05
2970.34	-3.59869e-05
2979.02	-2.78717e-05
2987.69	-1.91359e-05
2996.37	-2.15354e-05
3005.05	-3.16729e-05
3013.73	-1.47964e-05
3022.41	-3.77221e-05
3031.08	-4.02046e-05
3039.76	-2.43907e-05
3048.44	-1.76054e-05
3057.12	-2.73645e-05
3065.8	-2.94709e-05
3074.48	-1.56741e-05
3083.15	-4.7089e-06
3091.83	-9.86028e-06
3100.51	-1.39439e-05
3109.19	-2.46384e-05
3117.87	-2.06978e-05
3126.54	-1.31189e-05
3135.22	-1.32274e-05
3143.9	-2.6588e-05
3152.58	-2.51226e-05
3161.26	-2.44405e-05
3169.93	-6.49719e-06
3178.61	4.02674e-06
3187.29	-2.05797e-05
3195.97	-2.85152e-05
3204.65	-2.7107e-05
3213.33	-1.86944e-05
3222	-3.78705e-06
3230.68	-1.58049e-05
3239.36	-5.08653e-06
3248.04	-1.39223e-05
3256.72	-3.05893e-05
3265.39	-2.05011e-05
3274.07	-1.30763e-06
3282.75	-1.4705e-05
3291.43	-3.056e-05
3300.11	-3.88076e-05
3308.79	-2.65425e-05
3317.46	-4.93957e-05
3326.14	-2.59635e-05
3334.82	-1.95287e-05
3343.5	-3.18616e-05
3352.18	-1.49193e-05
3360.85	9.51594e-06
3369.53	-1.36589e-05
3378.21	-2.94353e-05
3386.89	-3.17153e-05
3395.57	-9.25273e-06
3404.24	-1.42032e-06
3412.92	-2.76104e-05
3421.6	-2.52856e-05
3430.28	-5.8673e-06
3438.96	4.77851e-06
3447.64	-3.29405e-05
3456.31	-2.24513e-05
3464.99	-2.06389e-05
3473.67	-2.83687e-05
3482.35	-2.70645e-05
3491.03	-2.03459e-05
3499.7	5.60607e-06
3508.38	8.53518e-07
3517.06	-2.92173e-05
3525.74	-3.74962e-05
3534.42	-3.09767e-06
3543.1	-2.39025e-05
3551.77	-2.11097e-05
3560.45	-3.4181e-05
3569.13	-2.97017e-05
3577.81	-1.23097e-05
3586.49	-9.1255e-06
3595.16	-3.46685e-05
3603.84	-1.578e-05
3612.52	4.48761e-06
3621.2	-1.88195e-05
3629.88	-4.65279e-06
3638.55	-1.74062e-05
3647.23	-5.70502e-06
3655.91	-8.99104e-06
3664.59	-3.47577e-06
3673.27	-3.02423e-05
3681.95	-3.23519e-05
3690.62	-1.80534e-05
3699.3	-2.68129e-05
3707.98	-2.70269e-05
3716.66	-3.54393e-05
3725.34	-2.68388e-05
3734.01	-2.91188e-05
3742.69	-1.90085e-05
3751.37	-2.01258e-05
3760.05	4.08518e-06
3768.73	-1.81444e-05
3777.41	-1.05222e-05
3786.08	-2.75064e-05
3794.76	-3.74022e-05
3803.44	-1.83613e-05
3812.12	-1.68104e-05
3820.8	-1.08571e-05
3829.47	-2.00808e-05
3838.15	-3.86013e-05
3846.83	-4.59819e-06
3855.51	-3.19714e-05
3864.19	-9.31245e-06
3872.86	-1.41351e-05
3881.54	-3.82947e-05
3890.22	-7.15386e-06
3898.9	-2.17677e-05
3907.58	-4.63789e-06
3916.26	-2.009e-05
3924.93	-5.14404e-05
3933.61	-2.08278e-05
3942.29	-3.12178e-05
3950.97	6.41419e-08
3959.65	-1.02248e-05
3968.32	-1.17159e-05
