Infrared Spectrum: Carbon tetrafluoride
Formula: C F4
CAS: 75-73-0
State: gas
Melting point: -150 C
Boiling point: -129 C
Class: IUPAC A
Instrument: IFS66V (Bruker)
Instrument parameters: KBr Beam Splitter; MCT Detector; Multipass cell
Sampling: 1 L/min Flow
Resolution: 0.1250
Temperature: 23 C
Pressure: 101.3 Pa
Origin: NIST, Analytical Chemistry Division, 301-975-3108
cm-1	(micromol/mol)-1m-1 (base 10)
575.048	-0.000118573
583.606	9.09827e-05
592.163	7.62695e-05
600.721	-6.27564e-05
609.278	-2.90643e-05
617.836	-5.19483e-05
626.394	-3.95317e-05
634.951	-0.000125329
643.509	3.27994e-05
652.067	1.37558e-05
660.624	-6.92244e-06
669.182	-2.61574e-05
677.739	2.58547e-07
686.297	-4.90142e-05
694.855	-2.9867e-05
703.412	-7.51174e-05
711.97	-3.05173e-05
720.528	-5.37243e-05
729.085	6.27089e-06
737.643	-7.10666e-05
746.2	-1.1182e-05
754.758	-5.58142e-05
763.316	-4.93333e-05
771.873	1.00406e-05
780.431	-4.80097e-05
788.988	-7.85886e-05
797.546	-6.82998e-05
806.104	-2.45303e-05
814.661	-4.05887e-05
823.219	-1.88973e-05
831.777	-5.86351e-05
840.334	-7.04346e-05
848.892	-1.32981e-05
857.449	-4.27785e-05
866.007	-7.03419e-06
874.565	3.64069e-05
883.122	-1.92457e-05
891.68	-2.53822e-05
900.238	-4.65404e-05
908.795	-2.112e-05
917.353	-7.49708e-05
925.91	-2.32028e-05
934.468	-1.83028e-05
943.026	-8.45137e-08
951.583	-3.16801e-05
960.141	-1.70715e-06
968.698	-6.08307e-05
977.256	-4.80022e-05
985.814	8.62831e-07
994.371	-5.03238e-05
1002.93	-4.40537e-05
1011.49	-1.97835e-05
1020.04	-4.57021e-05
1028.6	-5.91972e-05
1037.16	-2.31152e-05
1045.72	-5.09685e-05
1054.27	-2.81195e-05
1062.83	-4.62776e-05
1071.39	5.04114e-06
1079.95	-6.54142e-05
1088.51	-5.82312e-05
1097.06	-5.40823e-05
1105.62	1.27064e-05
1114.18	-3.79656e-05
1122.74	-5.37627e-05
1131.29	-1.01546e-05
1139.85	-1.81821e-05
1148.41	-5.72159e-05
1156.97	-3.32009e-05
1165.52	-5.85048e-05
1174.08	-3.41873e-05
1182.64	-1.29868e-05
1191.2	-4.70927e-05
1199.75	-5.44079e-05
1208.31	-2.45922e-05
1216.87	-3.79211e-05
1225.43	-2.35639e-05
1233.98	-2.06124e-05
1242.54	8.50287e-05
1251.1	0.00013393
1259.66	0.000374268
1268.22	0.000907742
1276.77	0.00721545
1285.33	0.0170673
1293.89	5.63324e-05
1302.45	-3.42541e-05
1311	-1.94752e-05
1319.56	-2.78349e-05
1328.12	-3.49861e-05
1336.68	-2.84555e-05
1345.23	-5.12191e-05
1353.79	-5.78331e-05
1362.35	-3.31877e-05
1370.91	-5.07452e-05
1379.46	-2.77739e-05
1388.02	-4.03661e-05
1396.58	-2.12217e-05
1405.14	-5.72808e-05
1413.69	-1.7353e-05
1422.25	-1.83462e-05
1430.81	-2.13392e-05
1439.37	-3.2905e-05
1447.93	9.10093e-06
1456.48	5.51342e-05
1465.04	-1.64428e-05
1473.6	7.45944e-06
1482.16	-5.40227e-05
1490.71	-2.02792e-05
1499.27	-2.432e-05
1507.83	-1.51197e-05
1516.39	-7.26736e-06
1524.94	1.65768e-07
1533.5	-2.6911e-05
1542.06	3.63221e-05
1550.62	-1.7116e-05
1559.17	-6.2575e-06
1567.73	-2.3488e-05
1576.29	3.67783e-05
1584.85	-3.15102e-05
1593.4	-3.35917e-05
1601.96	-1.96389e-05
1610.52	-4.06274e-05
1619.08	-4.09344e-05
1627.64	-2.23862e-05
1636.19	-2.67418e-05
1644.75	-3.47438e-05
1653.31	0.000125734
1661.87	-3.33652e-05
1670.42	-5.53789e-05
1678.98	-2.78691e-05
1687.54	-4.20644e-05
1696.1	3.37399e-05
1704.65	-1.10863e-05
1713.21	-1.15026e-05
1721.77	-5.69295e-05
1730.33	-3.28476e-05
1738.88	-2.82867e-05
1747.44	-1.9396e-05
1756	-2.65865e-05
1764.56	-3.82429e-05
1773.11	-3.2137e-05
1781.67	-2.01957e-05
1790.23	-2.25447e-05
1798.79	-4.38543e-05
1807.35	-1.41858e-05
1815.9	-2.18716e-05
1824.46	-2.00154e-05
1833.02	-3.61301e-05
1841.58	-2.10033e-05
1850.13	-4.31277e-05
1858.69	-2.12263e-05
1867.25	-4.39811e-05
1875.81	-2.82796e-05
1884.36	-3.64163e-05
1892.92	-1.62519e-05
1901.48	-1.11179e-05
1910.04	-1.74795e-05
1918.59	-6.11758e-06
1927.15	-4.30987e-05
1935.71	-3.59297e-05
1944.27	-3.15293e-05
1952.82	-1.9902e-05
1961.38	-3.84581e-05
1969.94	-3.33405e-05
1978.5	-4.79263e-05
1987.06	-3.25355e-05
1995.61	-1.52234e-05
2004.17	-4.65022e-05
2012.73	-3.32296e-05
2021.29	-3.26489e-05
2029.84	-1.57454e-05
2038.4	-2.84308e-05
2046.96	-2.22753e-05
2055.52	-4.95604e-05
2064.07	-3.58731e-05
2072.63	-4.11719e-05
2081.19	-3.58698e-05
2089.75	-2.63266e-05
2098.3	-2.25761e-05
2106.86	-3.14317e-05
2115.42	-3.85825e-05
2123.98	-2.54855e-05
2132.53	7.11219e-06
2141.09	-3.84336e-05
2149.65	-1.50537e-05
2158.21	-4.67023e-05
2166.77	-2.99835e-05
2175.32	-4.85313e-07
2183.88	5.77482e-05
2192.44	-1.51194e-05
2201	-2.94924e-05
2209.55	-2.43411e-05
2218.11	-4.10642e-05
2226.67	-2.22312e-05
2235.23	-2.77725e-05
2243.78	-6.16822e-06
2252.34	-3.68927e-05
2260.9	-3.04552e-05
2269.46	-2.35755e-05
2278.01	-1.38219e-05
2286.57	-1.56887e-05
2295.13	-6.76191e-06
2303.69	-5.72008e-05
2312.24	-1.43226e-05
2320.8	-8.37605e-06
2329.36	-2.35174e-05
2337.92	-2.67755e-06
2346.48	-2.69223e-05
2355.03	-3.90742e-05
2363.59	-3.59332e-05
2372.15	-1.55675e-05
2380.71	-4.42742e-06
2389.26	-3.08328e-05
2397.82	-2.64121e-05
2406.38	-3.31108e-05
2414.94	-2.44956e-05
2423.49	-2.38386e-05
2432.05	-2.40358e-05
2440.61	-3.44655e-05
2449.17	-1.83523e-05
2457.72	-7.71216e-06
2466.28	-1.81231e-05
2474.84	-2.72508e-05
2483.4	-1.84043e-05
2491.95	-3.087e-05
2500.51	-3.56169e-05
2509.07	-3.01884e-05
2517.63	-4.35185e-05
2526.19	-5.86763e-05
2534.74	-1.31904e-05
2543.3	-2.55976e-05
2551.86	-5.407e-05
2560.42	-0.000125139
2568.97	-0.00014446
2577.53	-3.67889e-05
2586.09	-4.16864e-06
2594.65	-2.91774e-05
2603.2	-5.06884e-06
2611.76	-2.99085e-05
2620.32	-9.43736e-07
2628.88	-3.85954e-05
2637.43	-2.97529e-05
2645.99	-1.54705e-05
2654.55	-5.86236e-05
2663.11	-3.67595e-05
2671.66	-3.34279e-05
2680.22	-3.39804e-05
2688.78	-2.39388e-05
2697.34	-4.20667e-05
2705.9	-7.68679e-06
2714.45	-1.59538e-05
2723.01	-2.91902e-05
2731.57	-5.19077e-05
2740.13	-2.78608e-05
2748.68	-1.28242e-05
2757.24	-2.12278e-05
2765.8	-3.9968e-05
2774.36	-3.07393e-05
2782.91	-3.16167e-05
2791.47	-4.7557e-06
2800.03	-1.84042e-05
2808.59	-6.13592e-05
2817.14	-3.92558e-05
2825.7	-3.70319e-05
2834.26	-1.92676e-05
2842.82	-4.75909e-05
2851.37	2.90559e-07
2859.93	-2.28559e-05
2868.49	-3.20769e-05
2877.05	-1.72964e-05
2885.61	-2.7919e-05
2894.16	-6.99065e-06
2902.72	-4.11571e-05
2911.28	-6.39708e-05
2919.84	-1.11112e-05
2928.39	-4.0584e-05
2936.95	-1.88746e-05
2945.51	-3.68537e-05
2954.07	-4.51833e-05
2962.62	-1.73128e-05
2971.18	-3.59192e-05
2979.74	-1.18051e-05
2988.3	1.50189e-05
2996.85	-2.38203e-05
3005.41	-3.13372e-05
3013.97	1.01636e-05
3022.53	-3.81793e-05
3031.08	-5.50133e-05
3039.64	-1.89732e-05
3048.2	-4.50856e-05
3056.76	-2.04857e-05
3065.32	-4.79669e-05
3073.87	-1.74998e-05
3082.43	-3.21912e-05
3090.99	-1.93787e-05
3099.55	-4.67784e-05
3108.1	-5.92854e-05
3116.66	-3.08376e-05
3125.22	-2.76272e-05
3133.78	-3.19639e-06
3142.33	-1.94017e-05
3150.89	-5.97096e-05
3159.45	2.88698e-05
3168.01	-5.96469e-05
3176.56	-1.42992e-05
3185.12	-2.55033e-05
3193.68	1.16637e-05
3202.24	6.7406e-06
3210.79	-8.57138e-06
3219.35	-6.58397e-05
3227.91	-1.39229e-05
3236.47	-6.31734e-05
3245.03	-3.42897e-06
3253.58	2.17105e-05
3262.14	-2.12405e-05
3270.7	-2.79178e-05
3279.26	-4.82187e-05
3287.81	-4.28508e-05
3296.37	-2.7095e-05
3304.93	-2.3906e-05
3313.49	-2.59361e-05
3322.04	-7.48598e-06
3330.6	-8.30353e-07
3339.16	1.43295e-05
3347.72	-5.5874e-05
3356.27	-4.19809e-06
3364.83	-3.36453e-05
3373.39	-1.19051e-05
3381.95	-3.85585e-06
3390.5	-8.35172e-06
3399.06	-3.9e-05
3407.62	-1.21111e-05
3416.18	-3.91952e-06
3424.74	3.43794e-06
3433.29	-6.68973e-05
3441.85	-4.4329e-05
3450.41	-7.11265e-07
3458.97	-2.37871e-05
3467.52	-9.42281e-06
3476.08	-4.66831e-05
3484.64	-5.99919e-06
3493.2	3.8394e-05
3501.75	-4.76874e-05
3510.31	3.04179e-05
3518.87	1.60775e-05
3527.43	-6.99894e-05
3535.98	-3.64692e-05
3544.54	-1.86065e-05
3553.1	-2.84075e-05
3561.66	-6.98344e-07
3570.21	-3.49661e-06
3578.77	-4.35912e-05
3587.33	-3.68957e-05
3595.89	-3.19897e-05
3604.45	-6.15151e-05
3613	-6.61297e-05
3621.56	-4.14272e-05
3630.12	-4.93216e-05
3638.68	-3.80939e-05
3647.23	1.48319e-05
3655.79	-3.30631e-05
3664.35	-2.49162e-05
3672.91	-3.981e-05
3681.46	-5.73346e-05
3690.02	-5.70017e-05
3698.58	-2.09285e-05
3707.14	-1.83652e-05
3715.69	-3.76352e-05
3724.25	9.97506e-06
3732.81	-4.83044e-05
3741.37	-4.02711e-05
3749.92	-8.03439e-06
3758.48	-2.32417e-05
3767.04	-6.4256e-06
3775.6	1.4206e-05
3784.16	-3.96027e-05
3792.71	-4.95351e-05
3801.27	1.9073e-05
3809.83	-4.25696e-05
3818.39	1.591e-05
3826.94	-6.17723e-05
3835.5	-3.38865e-05
3844.06	-3.53479e-05
3852.62	-1.77248e-05
3861.17	-7.24914e-05
3869.73	-7.18843e-06
3878.29	-4.27427e-05
3886.85	-1.53192e-05
3895.4	-5.4671e-05
3903.96	-2.43309e-06
3912.52	-6.84142e-07
3921.08	-3.06363e-05
3929.63	-1.93496e-05
3938.19	-3.55744e-05
3946.75	-2.78093e-05
3955.31	-2.18018e-05
3963.87	-5.36584e-05
3972.42	-1.53567e-05
