Infrared Spectrum: Dichlorodifluoromethane
Formula: C Cl2 F2
CAS: 75-71-8
State: gas
Melting point: -158 C
Boiling point: -29.8 C
Class: IUPAC A
Instrument: IFS66V (Bruker)
Instrument parameters: KBr Beam Splitter; MCT Detector; Multipass cell
Sampling: 1 L/min Flow
Resolution: 1.9290
Temperature: 23 C
Pressure: 101.3 Pa
Origin: NIST, Analytical Chemistry Division, 301-975-3108
cm-1	(micromol/mol)-1m-1 (base 10)
575.652	3.05217e-07
584.33	-4.01748e-06
593.008	-2.12611e-06
601.687	-3.29583e-06
610.365	2.27338e-06
619.043	-2.73505e-06
627.721	1.44719e-06
636.399	-2.5342e-06
645.077	6.3132e-06
653.756	2.50588e-05
662.434	6.0141e-05
671.112	6.51868e-05
679.79	4.57918e-05
688.468	3.00015e-06
697.146	3.14676e-06
705.825	-1.4751e-06
714.503	3.72641e-06
723.181	-1.80713e-06
731.859	4.36099e-06
740.537	-2.28509e-06
749.216	4.75851e-06
757.894	-2.40678e-06
766.572	4.9014e-06
775.25	-3.64151e-06
783.928	3.33502e-06
792.606	-4.92912e-06
801.285	4.21404e-06
809.963	-5.72121e-06
818.641	5.30835e-06
827.319	-2.29734e-06
835.997	8.97083e-06
844.676	8.65767e-07
853.354	2.74478e-05
862.032	6.56204e-05
870.71	0.000224092
879.388	0.000383208
888.066	0.000575273
896.745	0.000302986
905.423	0.000537507
914.101	0.00153114
922.779	0.00313925
931.457	0.00183596
940.135	5.26311e-05
948.814	1.50731e-05
957.492	-8.76419e-06
966.17	7.59384e-06
974.848	-5.77598e-06
983.526	4.51725e-06
992.205	-4.71217e-06
1000.88	3.16419e-06
1009.56	-3.4838e-06
1018.24	1.46769e-06
1026.92	-2.11433e-06
1035.6	1.8144e-06
1044.27	-3.55522e-07
1052.95	4.33743e-06
1061.63	1.36332e-05
1070.31	5.17842e-05
1078.99	0.000235087
1087.66	0.000865948
1096.34	0.00150355
1105.02	0.00135589
1113.7	0.000961488
1122.38	0.000323798
1131.06	0.000243429
1139.73	0.000321354
1148.41	0.000922215
1157.09	0.000984056
1165.77	0.000575728
1174.45	0.000385376
1183.12	3.46532e-05
1191.8	1.57424e-05
1200.48	2.83474e-06
1209.16	1.06586e-05
1217.84	8.63868e-08
1226.52	1.23014e-05
1235.19	9.14301e-06
1243.87	1.96933e-05
1252.55	4.98806e-06
1261.23	4.0281e-06
1269.91	-2.99087e-06
1278.58	2.0837e-06
1287.26	-2.48446e-06
1295.94	2.48819e-06
1304.62	-1.69295e-06
1313.3	3.06548e-06
1321.98	9.74534e-08
1330.65	4.21376e-06
1339.33	1.50643e-06
1348.01	5.19467e-06
1356.69	4.33401e-06
1365.37	7.11109e-06
1374.04	6.02816e-06
1382.72	8.81205e-06
1391.4	3.57599e-06
1400.08	1.94386e-06
1408.76	-8.38868e-07
1417.44	1.34208e-06
1426.11	-9.83127e-07
1434.79	1.33359e-06
1443.47	-1.11596e-06
1452.15	3.82705e-07
1460.83	-9.9746e-07
1469.5	1.81614e-06
1478.18	4.90367e-07
1486.86	1.30925e-06
1495.54	-1.48025e-06
1504.22	7.28369e-07
1512.9	-1.08404e-06
1521.57	2.23152e-07
1530.25	-2.18597e-07
1538.93	2.79482e-07
1547.61	-2.11714e-07
1556.29	1.07771e-06
1564.96	1.60128e-07
1573.64	3.05808e-06
1582.32	3.44547e-06
1591	3.78193e-06
1599.68	2.32023e-06
1608.36	4.45904e-07
1617.03	-1.78687e-06
1625.71	2.45787e-07
1634.39	-7.75509e-07
1643.07	5.95853e-07
1651.75	-1.10949e-06
1660.42	6.35186e-08
1669.1	-1.45342e-06
1677.78	2.49876e-07
1686.46	-3.27074e-07
1695.14	-3.75786e-07
1703.82	-8.93226e-07
1712.49	2.53703e-07
1721.17	-4.36649e-07
1729.85	2.06163e-07
1738.53	-1.3619e-07
1747.21	2.03032e-06
1755.88	2.61361e-06
1764.56	3.80877e-06
1773.24	1.2624e-06
1781.92	8.5948e-07
1790.6	7.3691e-07
1799.28	2.5643e-06
1807.95	1.99714e-06
1816.63	2.35647e-06
1825.31	1.29256e-06
1833.99	1.99795e-06
1842.67	1.27403e-06
1851.34	8.42644e-07
1860.02	-1.03578e-06
1868.7	-4.58011e-07
1877.38	-6.23115e-07
1886.06	1.90665e-07
1894.74	-6.04547e-07
1903.41	8.45387e-08
1912.09	-2.0115e-07
1920.77	1.73334e-07
1929.45	-3.06927e-07
1938.13	-5.6672e-08
1946.8	-1.81847e-07
1955.48	2.62442e-07
1964.16	1.37311e-07
1972.84	2.72271e-07
1981.52	-6.01499e-08
1990.19	3.51026e-07
1998.87	1.8018e-07
2007.55	7.63009e-07
2016.23	5.05202e-07
2024.91	2.80886e-07
2033.59	-3.08207e-08
2042.26	2.3448e-07
2050.94	1.19092e-07
2059.62	2.61438e-07
2068.3	1.51703e-08
2076.98	4.45649e-08
2085.65	-1.76441e-08
2094.33	-3.8053e-09
2103.01	-1.08149e-07
2111.69	-4.65367e-08
2120.37	-6.79787e-08
2129.05	-4.93379e-08
2137.72	-5.50567e-08
2146.4	1.50924e-07
2155.08	-4.12383e-07
2163.76	-1.51375e-07
2172.44	1.05378e-06
2181.11	3.68417e-06
2189.79	7.28756e-06
2198.47	6.14987e-06
2207.15	3.58162e-06
2215.83	1.99911e-06
2224.51	4.73677e-06
2233.18	1.06097e-05
2241.86	1.58139e-05
2250.54	2.12494e-05
2259.22	8.03855e-06
2267.9	2.16967e-06
2276.57	1.75423e-06
2285.25	5.72279e-07
2293.93	1.38407e-06
2302.61	4.09136e-06
2311.29	4.59117e-06
2319.97	4.75448e-06
2328.64	1.56782e-06
2337.32	-2.08498e-07
2346	-6.00975e-07
2354.68	-2.54176e-07
2363.36	8.19674e-07
2372.03	4.15439e-07
2380.71	4.3464e-07
2389.39	-9.70314e-08
2398.07	4.19332e-07
2406.75	1.35092e-07
2415.43	5.90388e-07
2424.1	-2.1736e-07
2432.78	2.30042e-07
2441.46	1.65112e-07
2450.14	5.42811e-07
2458.82	1.89865e-07
2467.49	3.26033e-07
2476.17	-1.69281e-07
2484.85	2.61867e-07
2493.53	-1.26921e-07
2502.21	1.30726e-07
2510.89	1.70154e-07
2519.56	3.21398e-07
2528.24	-1.30239e-07
2536.92	6.36008e-07
2545.6	8.93189e-08
2554.28	2.90592e-07
2562.95	8.21158e-08
2571.63	4.38213e-07
2580.31	-2.85259e-07
2588.99	4.66e-07
2597.67	-2.43917e-07
2606.35	3.18211e-07
2615.02	-1.55573e-07
2623.7	-2.16385e-07
2632.38	2.45925e-08
2641.06	5.85164e-07
2649.74	1.45147e-07
2658.41	4.26826e-07
2667.09	-2.45787e-07
2675.77	4.41283e-07
2684.45	4.94034e-08
2693.13	5.3854e-07
2701.81	-3.04409e-07
2710.48	4.1306e-07
2719.16	-2.07923e-07
2727.84	1.88599e-07
2736.52	-5.53958e-07
2745.2	2.33113e-07
2753.87	-3.18699e-07
2762.55	4.05668e-07
2771.23	-4.97417e-07
2779.91	8.74345e-08
2788.59	2.36372e-07
2797.27	-3.6859e-07
2805.94	4.45503e-08
2814.62	-1.6998e-07
2823.3	-5.24585e-07
2831.98	-1.08578e-07
2840.66	-4.23836e-07
2849.33	9.12398e-09
2858.01	-3.35746e-07
2866.69	8.62063e-07
2875.37	-7.99338e-07
2884.05	1.90461e-07
2892.73	-4.89428e-07
2901.4	3.74061e-07
2910.08	-7.77183e-07
2918.76	2.6827e-07
2927.44	-1.30944e-07
2936.12	4.54409e-07
2944.79	-2.87143e-07
2953.47	1.63213e-07
2962.15	-1.0937e-06
2970.83	6.57829e-07
2979.51	-7.3782e-07
2988.19	1.84146e-07
2996.86	-4.6015e-07
3005.54	2.13264e-07
3014.22	-9.85957e-08
3022.9	8.17251e-07
3031.58	-1.33396e-07
3040.25	5.50975e-07
3048.93	-1.9658e-07
3057.61	3.62638e-07
3066.29	-1.10595e-06
3074.97	5.55566e-07
3083.65	-4.94456e-07
3092.32	3.10426e-07
3101	-6.94412e-08
3109.68	-2.21406e-08
3118.36	-4.56483e-07
3127.04	8.43335e-07
3135.71	-3.13038e-07
3144.39	1.8141e-07
3153.07	-5.10819e-07
3161.75	-4.35099e-09
3170.43	-4.05289e-07
3179.11	4.68415e-07
3187.78	-2.4327e-07
3196.46	-1.33418e-07
3205.14	-4.98566e-07
3213.82	3.94026e-07
3222.5	-9.63526e-07
3231.17	-1.61212e-07
3239.85	-8.95627e-07
3248.53	3.60637e-07
3257.21	-7.72882e-07
3265.89	1.86896e-07
3274.57	-4.5334e-07
3283.24	9.83287e-07
3291.92	-1.48865e-07
3300.6	3.84146e-07
3309.28	-8.47322e-07
3317.96	9.9754e-07
3326.63	-2.30864e-07
3335.31	5.68291e-07
3343.99	-9.17804e-07
3352.67	3.28427e-07
3361.35	-2.29591e-07
3370.03	1.4487e-07
3378.7	-3.35681e-07
3387.38	1.76426e-07
3396.06	-4.40141e-07
3404.74	4.0406e-07
3413.42	-9.39893e-07
3422.09	-1.22483e-07
3430.77	-7.2855e-07
3439.45	7.9984e-07
3448.13	-8.47948e-07
3456.81	8.56068e-07
3465.49	-5.65476e-07
3474.16	2.41735e-07
3482.84	-1.19658e-06
3491.52	5.40781e-07
3500.2	-1.22832e-07
3508.88	-1.04642e-07
3517.55	-1.21328e-06
3526.23	2.89574e-07
3534.91	-2.19245e-07
3543.59	1.20038e-06
3552.27	-8.4757e-07
3560.95	9.9949e-07
3569.62	-8.79234e-07
3578.3	7.45991e-07
3586.98	-7.68401e-07
3595.66	7.56912e-07
3604.34	-3.15832e-07
3613.01	7.56206e-07
3621.69	-1.65017e-08
3630.37	1.04335e-06
3639.05	-2.81184e-07
3647.73	8.61714e-07
3656.41	-1.01597e-06
3665.08	1.25612e-06
3673.76	-1.35979e-06
3682.44	3.95118e-07
3691.12	-8.97519e-07
3699.8	1.05291e-06
3708.47	-2.55886e-07
3717.15	1.48061e-06
3725.83	-6.46493e-07
3734.51	6.7767e-07
3743.19	-5.56563e-07
3751.87	-3.12216e-07
3760.54	-3.36292e-07
3769.22	1.68497e-06
3777.9	-2.5291e-07
3786.58	1.43396e-06
3795.26	-3.78245e-07
3803.93	4.94536e-07
3812.61	-6.5251e-07
3821.29	8.98712e-07
3829.97	-5.00342e-07
3838.65	6.29067e-07
3847.33	-7.52132e-07
3856	1.31151e-06
3864.68	-7.31912e-07
3873.36	9.52437e-07
3882.04	-5.60739e-07
3890.72	7.06839e-07
3899.39	-1.14319e-06
3908.07	1.15451e-06
3916.75	-9.14559e-07
3925.43	1.09476e-06
3934.11	-7.39384e-07
3942.79	1.17843e-06
3951.46	-3.5967e-07
3960.14	7.0104e-07
3968.82	-6.14421e-07
