Infrared Spectrum: Carbon tetrafluoride
Formula: C F4
CAS: 75-73-0
State: gas
Melting point: -150 C
Boiling point: -129 C
Class: IUPAC A
Instrument: IFS66V (Bruker)
Instrument parameters: KBr Beam Splitter; MCT Detector; Multipass cell
Sampling: 1 L/min Flow
Resolution: 0.9640
Temperature: 23 C
Pressure: 101.3 Pa
Origin: NIST, Analytical Chemistry Division, 301-975-3108
cm-1	(micromol/mol)-1m-1 (base 10)
575.168	-0.000148228
583.846	3.24917e-06
592.524	3.81709e-05
601.202	-7.02134e-06
609.881	6.36232e-06
618.559	2.71106e-05
627.237	-7.2445e-06
635.915	-5.0688e-05
644.593	-4.37024e-05
653.271	-2.30995e-05
661.949	-2.80559e-05
670.628	-1.94677e-05
679.306	-2.31205e-05
687.984	-2.62119e-05
696.662	-3.99837e-05
705.34	-8.85276e-06
714.018	-1.95681e-05
722.697	-2.98655e-05
731.375	-2.70378e-05
740.053	-2.09319e-05
748.731	-2.32494e-05
757.409	-2.83187e-05
766.087	-1.8558e-05
774.765	-2.11643e-05
783.444	-3.52014e-05
792.122	-2.813e-05
800.8	-2.47441e-05
809.478	-3.60674e-06
818.156	-2.78859e-05
826.834	-3.05286e-05
835.512	-3.96867e-05
844.191	-2.53926e-05
852.869	-1.38769e-05
861.547	-2.10655e-05
870.225	-3.53539e-05
878.903	-1.42859e-05
887.581	-1.9207e-05
896.26	-1.67524e-05
904.938	-2.51728e-05
913.616	-2.84203e-05
922.294	-2.90792e-05
930.972	-2.10879e-05
939.65	-3.39041e-05
948.328	-1.01912e-05
957.007	-3.64104e-05
965.685	-1.20164e-05
974.363	-1.40637e-05
983.041	-1.33651e-05
991.719	-1.47651e-05
1000.4	-1.27868e-05
1009.08	-1.39284e-05
1017.75	-1.74434e-05
1026.43	-1.45242e-05
1035.11	-2.18319e-05
1043.79	-1.58359e-05
1052.47	-9.25643e-06
1061.14	-5.53531e-06
1069.82	-6.22827e-06
1078.5	-9.43972e-06
1087.18	-2.54572e-05
1095.86	-1.34553e-05
1104.54	1.11006e-05
1113.21	-1.74897e-05
1121.89	-1.03259e-05
1130.57	-1.94783e-05
1139.25	-7.94782e-06
1147.93	-7.76604e-06
1156.6	-3.75406e-06
1165.28	-2.90296e-06
1173.96	9.84624e-06
1182.64	-4.89591e-06
1191.32	-1.81047e-06
1199.99	1.9409e-05
1208.67	2.90644e-05
1217.35	3.04385e-05
1226.03	4.1127e-05
1234.71	0.000104001
1243.39	0.000514919
1252.06	0.000302011
1260.74	0.000888024
1269.42	0.0013347
1278.1	0.010743
1286.78	0.00384921
1295.45	-0.000264859
1304.13	-0.000192048
1312.81	-0.000138065
1321.49	-0.000123979
1330.17	-0.000107162
1338.85	-8.56266e-05
1347.52	-8.87069e-05
1356.2	-3.8737e-05
1364.88	-8.1462e-05
1373.56	-6.28481e-05
1382.24	-6.40818e-05
1390.91	-6.78819e-05
1399.59	-4.71617e-05
1408.27	-5.31203e-05
1416.95	-5.92372e-05
1425.63	-4.78631e-05
1434.3	-5.95011e-05
1442.98	-5.33648e-05
1451.66	-4.92187e-05
1460.34	-4.36375e-05
1469.02	-4.69995e-05
1477.7	-4.17646e-05
1486.37	-4.06658e-05
1495.05	-3.5513e-05
1503.73	-4.06686e-05
1512.41	-2.10631e-05
1521.09	2.8328e-05
1529.76	-2.22627e-05
1538.44	2.46018e-05
1547.12	-3.80185e-05
1555.8	-2.46414e-05
1564.48	-2.60101e-05
1573.16	-3.31427e-05
1581.83	-4.25328e-05
1590.51	-4.84687e-05
1599.19	-3.51009e-05
1607.87	-3.67216e-05
1616.55	1.96433e-05
1625.22	-4.91076e-05
1633.9	-3.45592e-05
1642.58	-2.96331e-05
1651.26	-2.63813e-05
1659.94	-3.57216e-05
1668.61	-3.41957e-05
1677.29	-3.69982e-05
1685.97	-2.55948e-05
1694.65	-2.20325e-05
1703.33	-3.347e-05
1712.01	-4.01827e-05
1720.68	-2.99473e-05
1729.36	-3.41951e-05
1738.04	-3.44268e-05
1746.72	-3.91532e-05
1755.4	-3.63265e-05
1764.07	-3.91744e-05
1772.75	1.11893e-05
1781.43	-3.77507e-05
1790.11	-3.70829e-05
1798.79	-3.52684e-05
1807.47	-3.11293e-05
1816.14	-2.54072e-05
1824.82	-2.80433e-05
1833.5	-3.44573e-05
1842.18	-3.55291e-05
1850.86	-3.76402e-05
1859.53	-3.35285e-05
1868.21	-3.45507e-05
1876.89	-3.11665e-05
1885.57	-2.84807e-05
1894.25	-2.98914e-05
1902.92	-3.77928e-05
1911.6	-2.56492e-05
1920.28	-3.24957e-05
1928.96	-2.94612e-05
1937.64	-3.23165e-05
1946.32	-3.19574e-05
1954.99	-3.41229e-05
1963.67	-2.56537e-05
1972.35	-3.27764e-05
1981.03	-3.71127e-05
1989.71	-3.59047e-05
1998.38	-3.78624e-05
2007.06	-3.02721e-05
2015.74	-2.36684e-05
2024.42	-3.36438e-05
2033.1	-3.74596e-05
2041.78	-3.3975e-05
2050.45	-2.79606e-05
2059.13	-3.40783e-05
2067.81	-3.12558e-05
2076.49	-4.0064e-05
2085.17	-3.23785e-05
2093.84	-2.54816e-05
2102.52	-3.60975e-05
2111.2	-3.10611e-05
2119.88	-3.10487e-05
2128.56	-2.64427e-05
2137.23	-3.20548e-05
2145.91	-2.21081e-05
2154.59	-3.20956e-05
2163.27	-2.70411e-05
2171.95	-1.68583e-05
2180.63	2.39679e-05
2189.3	8.75299e-06
2197.98	-2.42648e-05
2206.66	-3.32661e-05
2215.34	-3.24868e-05
2224.02	-2.24027e-05
2232.69	-3.42321e-05
2241.37	-2.29787e-05
2250.05	-2.78719e-05
2258.73	-3.1599e-05
2267.41	-2.92557e-05
2276.09	-2.7971e-05
2284.76	-2.93538e-05
2293.44	-2.82774e-05
2302.12	-2.41105e-05
2310.8	-2.29293e-05
2319.48	-2.4456e-05
2328.15	-2.18703e-05
2336.83	-2.48191e-05
2345.51	-2.52865e-05
2354.19	-1.31008e-05
2362.87	8.53268e-06
2371.54	-1.71122e-05
2380.22	-2.67245e-05
2388.9	-3.05945e-05
2397.58	-2.58616e-05
2406.26	-3.87879e-05
2414.94	-2.87047e-05
2423.61	-2.80285e-05
2432.29	-3.20967e-05
2440.97	-3.6983e-05
2449.65	-3.08026e-05
2458.33	-1.87106e-05
2467	-3.27956e-05
2475.68	-3.16134e-05
2484.36	-3.05922e-05
2493.04	-3.51832e-05
2501.72	-2.86631e-05
2510.4	-3.68426e-05
2519.07	-2.38586e-05
2527.75	-2.77429e-05
2536.43	-1.68265e-05
2545.11	-2.82919e-05
2553.79	-6.01706e-05
2562.46	-9.53588e-05
2571.14	-9.94673e-05
2579.82	-1.88222e-05
2588.5	-2.01709e-05
2597.18	-1.84133e-05
2605.85	-2.81029e-05
2614.53	-2.2068e-05
2623.21	-2.78399e-05
2631.89	-2.26645e-05
2640.57	-1.30022e-05
2649.25	-2.33276e-05
2657.92	-3.91084e-05
2666.6	-3.34121e-05
2675.28	-2.20914e-05
2683.96	-2.31304e-05
2692.64	-3.8379e-05
2701.31	-2.32804e-05
2709.99	-1.28234e-05
2718.67	-2.68044e-05
2727.35	-2.48088e-05
2736.03	-8.96487e-06
2744.71	-2.89129e-05
2753.38	-2.11759e-05
2762.06	-3.01378e-05
2770.74	-2.55837e-05
2779.42	-3.31825e-05
2788.1	-2.81212e-05
2796.77	-1.96401e-05
2805.45	-2.79321e-05
2814.13	-2.68796e-05
2822.81	-2.83026e-05
2831.49	-2.55991e-05
2840.17	-2.36798e-05
2848.84	-2.90542e-05
2857.52	-1.83599e-05
2866.2	-2.15167e-05
2874.88	-2.22295e-05
2883.56	-2.22586e-05
2892.23	-1.9445e-05
2900.91	-2.36405e-05
2909.59	-9.93687e-06
2918.27	-2.83353e-05
2926.95	-2.42525e-05
2935.62	-2.72867e-05
2944.3	-2.76023e-05
2952.98	-6.25469e-06
2961.66	-1.87088e-05
2970.34	-3.42244e-05
2979.02	-2.5455e-05
2987.69	-3.17773e-05
2996.37	-2.65238e-05
3005.05	-2.39439e-05
3013.73	-3.34183e-05
3022.41	-2.89139e-05
3031.08	-3.87901e-05
3039.76	-2.91551e-05
3048.44	-2.32731e-05
3057.12	-2.29544e-05
3065.8	-1.26699e-05
3074.48	-1.56134e-05
3083.15	-1.41199e-05
3091.83	-2.05041e-05
3100.51	-1.90995e-05
3109.19	-1.28955e-05
3117.87	-1.26044e-05
3126.54	-1.64266e-05
3135.22	-1.60482e-05
3143.9	-2.27635e-05
3152.58	-2.19238e-05
3161.26	-1.92627e-05
3169.93	-1.76567e-05
3178.61	-7.30026e-06
3187.29	-2.89838e-05
3195.97	-1.63737e-05
3204.65	-2.97891e-05
3213.33	-2.43269e-05
3222	-1.87582e-05
3230.68	-1.96751e-05
3239.36	-1.24408e-05
3248.04	-2.29986e-05
3256.72	-3.17435e-05
3265.39	-1.83339e-05
3274.07	-1.96403e-05
3282.75	-1.88259e-05
3291.43	-1.6042e-05
3300.11	-2.76671e-05
3308.79	-1.63889e-05
3317.46	-4.95414e-05
3326.14	-2.30391e-05
3334.82	-2.37868e-05
3343.5	-2.57047e-05
3352.18	-1.40659e-05
3360.85	-6.06272e-06
3369.53	-2.26924e-05
3378.21	-2.57576e-05
3386.89	-1.32895e-05
3395.57	-1.84003e-05
3404.24	-1.03975e-05
3412.92	-1.32016e-05
3421.6	-8.50707e-06
3430.28	-1.70803e-05
3438.96	-1.90872e-06
3447.64	-2.84704e-05
3456.31	-3.08295e-05
3464.99	-7.91126e-06
3473.67	-1.93492e-05
3482.35	-3.21875e-05
3491.03	-1.85619e-05
3499.7	-5.63583e-06
3508.38	-1.00473e-05
3517.06	-3.19795e-05
3525.74	-2.50752e-05
3534.42	-1.055e-05
3543.1	-3.18063e-05
3551.77	-1.01426e-05
3560.45	-3.45832e-05
3569.13	-2.32832e-05
3577.81	-2.1358e-05
3586.49	-1.21605e-05
3595.16	-2.75324e-05
3603.84	-2.07242e-05
3612.52	1.23736e-06
3621.2	-2.28348e-05
3629.88	-3.83002e-06
3638.55	-1.35604e-05
3647.23	-3.24277e-06
3655.91	2.26088e-06
3664.59	-2.02851e-07
3673.27	-2.59945e-05
3681.95	-2.73374e-05
3690.62	-7.57046e-06
3699.3	-2.62522e-05
3707.98	-1.89748e-05
3716.66	-3.35998e-05
3725.34	-1.22436e-05
3734.01	-2.5754e-05
3742.69	-2.72591e-05
3751.37	-2.41295e-05
3760.05	7.27256e-06
3768.73	-8.19607e-06
3777.41	-1.59057e-05
3786.08	-2.34887e-05
3794.76	-3.47199e-05
3803.44	-7.41947e-06
3812.12	-8.74514e-06
3820.8	-3.45639e-06
3829.47	-2.97146e-05
3838.15	-3.10627e-06
3846.83	2.14114e-06
3855.51	-4.34732e-05
3864.19	-1.37374e-05
3872.86	-2.47362e-05
3881.54	-1.60113e-05
3890.22	-1.32597e-05
3898.9	-2.21444e-05
3907.58	-5.17495e-06
3916.26	-1.48107e-05
3924.93	-3.48243e-05
3933.61	-6.70248e-06
3942.29	-1.76052e-05
3950.97	-5.53735e-06
3959.65	-1.39763e-05
3968.32	-1.86077e-05
