Infrared Spectrum: PROPANOIC ACID, 2,2-DICHLORO-
Formula: C3 H4 Cl2 O2
CAS: 75-99-0
State: NEAT
Class: COBLENTZ III
Instrument: PERKIN-ELMER 283
Sampling: TRANSMISSION
Resolution: 4
Origin: DOW CHEMICAL COMPANY
1/CM	TRANSMITTANCE
200.863	0.09
211.223	0.074
221.582	0.075
231.942	0.056
242.302	0.055
252.662	0.031
263.021	0.03
273.381	0.024
283.741	0.023
294.101	0.023
304.46	0.021
314.82	0.021
325.18	0.021
335.54	0.022
345.899	0.022
356.259	0.021
366.619	0.026
376.979	0.026
387.338	0.026
397.698	0.03
408.058	0.032
418.417	0.03
428.777	0.026
439.137	0.022
449.497	0.021
459.856	0.021
470.216	0.022
480.576	0.029
490.936	0.036
501.295	0.041
511.655	0.051
522.015	0.064
532.375	0.087
542.734	0.125
553.094	0.172
563.454	0.225
573.813	0.29
584.173	0.332
594.533	0.38
604.893	0.46
615.252	0.482
625.612	0.489
635.972	0.46
646.332	0.3531
656.691	0.251
667.051	0.256
677.411	0.285
687.771	0.319
698.13	0.343
708.49	0.403
718.85	0.469
729.21	0.501
739.569	0.509
749.929	0.501
760.289	0.485
770.648	0.442
781.008	0.374
791.368	0.328
801.728	0.501
812.087	0.604
822.447	0.608
832.807	0.604
843.167	0.59
853.526	0.558
863.886	0.524
874.246	0.554
884.606	0.596
894.965	0.592
905.325	0.592
915.685	0.597
926.044	0.606
936.404	0.616
946.764	0.625
957.124	0.632
967.483	0.642
977.843	0.649
988.203	0.653
998.563	0.656
1008.92	0.664
1019.28	0.67
1029.64	0.666
1040	0.65
1050.36	0.562
1060.72	0.3851
1071.08	0.148
1081.44	0.079
1091.8	0.2319
1102.16	0.472
1112.52	0.456
1122.88	0.303
1133.24	0.212
1143.6	0.586
1153.96	0.645
1164.32	0.63
1174.68	0.582
1185.04	0.539
1195.4	0.47
1205.76	0.392
1216.12	0.312
1226.48	0.261
1236.84	0.258
1247.2	0.242
1257.56	0.21
1267.92	0.182
1278.28	0.192
1288.64	0.261
1298.99	0.366
1309.35	0.462
1319.71	0.519
1330.07	0.56
1340.43	0.595
1350.79	0.598
1361.15	0.571
1371.51	0.541
1381.87	0.3651
1392.23	0.461
1402.59	0.484
1412.95	0.49
1423.31	0.549
1433.67	0.551
1444.03	0.293
1454.39	0.3929
1464.75	0.609
1475.11	0.673
1485.47	0.706
1495.83	0.713
1506.19	0.708
1516.55	0.709
1526.91	0.709
1537.27	0.706
1547.63	0.697
1557.99	0.679
1568.35	0.665
1578.71	0.64
1589.07	0.595
1599.43	0.549
1609.79	0.493
1620.15	0.481
1630.51	0.492
1640.87	0.506
1651.23	0.502
1661.59	0.49
1671.95	0.45
1682.31	0.393
1692.66	0.302
1703.02	0.185
1713.38	0.092
1723.74	0.045
1734.1	0.04
1744.46	0.039
1754.82	0.041
1765.18	0.09
1775.54	0.3099
1785.9	0.4999
1796.26	0.6
1806.62	0.631
1816.98	0.649
1827.34	0.658
1837.7	0.66
1848.06	0.662
1858.42	0.66
1868.78	0.658
1879.14	0.654
1889.5	0.649
1899.86	0.645
1910.22	0.64
1920.58	0.634
1930.94	0.631
1941.3	0.629
1951.66	0.63
1962.02	0.632
1972.38	0.636
1982.74	0.642
1993.1	0.649
2003.46	0.6585
2013.82	0.665
2024.18	0.6705
2034.54	0.674
2044.9	0.676
2055.26	0.678
2065.62	0.679
2075.98	0.679
2086.33	0.68
2096.69	0.68
2107.05	0.6805
2117.41	0.681
2127.77	0.681
2138.13	0.6819
2148.49	0.684
2158.85	0.6889
2169.21	0.69
2179.57	0.691
2189.93	0.692
2200.29	0.691
2210.65	0.689
2221.01	0.687
2231.37	0.6816
2241.73	0.6763
2252.09	0.671
2262.45	0.6682
2272.81	0.6636
2283.17	0.6591
2293.53	0.6552
2303.89	0.65
2314.25	0.6426
2324.61	0.6372
2334.97	0.63
2345.33	0.6221
2355.69	0.6179
2366.05	0.609
2376.41	0.6056
2386.77	0.5965
2397.13	0.5816
2407.49	0.5702
2417.85	0.5593
2428.21	0.5418
2438.57	0.5286
2448.93	0.5113
2459.29	0.5014
2469.65	0.4892
2480	0.4797
2490.36	0.4686
2500.72	0.4578
2511.08	0.452
2521.44	0.4533
2531.8	0.4598
2542.16	0.4649
2552.52	0.469
2562.88	0.4601
2573.24	0.4484
2583.6	0.4339
2593.96	0.4154
2604.32	0.4027
2614.68	0.3962
2625.04	0.393
2635.4	0.3948
2645.76	0.4013
2656.12	0.417
2666.48	0.436
2676.84	0.453
2687.2	0.4782
2697.56	0.484
2707.92	0.485
2718.28	0.4803
2728.64	0.4679
2739	0.4508
2749.36	0.4381
2759.72	0.4214
2770.08	0.4008
2780.44	0.3851
2790.8	0.3688
2801.16	0.3593
2811.52	0.3518
2821.88	0.349
2832.24	0.3426
2842.6	0.3326
2852.96	0.3268
2863.32	0.3193
2873.67	0.3158
2884.03	0.307
2894.39	0.2945
2904.75	0.2833
2915.11	0.2778
2925.47	0.274
2935.83	0.268
2946.19	0.2666
2956.55	0.2679
2966.91	0.2617
2977.27	0.2587
2987.63	0.2494
2997.99	0.2429
3008.35	0.243
3018.71	0.2491
3029.07	0.25
3039.43	0.2511
3049.79	0.256
3060.15	0.258
3070.51	0.2586
3080.87	0.2591
3091.23	0.26
3101.59	0.2612
3111.95	0.2636
3122.31	0.2651
3132.67	0.268
3143.03	0.269
3153.39	0.27
3163.75	0.27
3174.11	0.272
3184.47	0.2741
3194.83	0.2775
3205.19	0.283
3215.55	0.2957
3225.91	0.3011
3236.27	0.31
3246.63	0.317
3256.98	0.322
3267.34	0.3291
3277.7	0.341
3288.06	0.352
3298.42	0.3605
3308.78	0.366
3319.14	0.3695
3329.5	0.378
3339.86	0.385
3350.22	0.387
3360.58	0.3905
3370.94	0.392
3381.3	0.392
3391.66	0.391
3402.02	0.39
3412.38	0.388
3422.74	0.3845
3433.1	0.382
3443.46	0.3765
3453.82	0.374
3464.18	0.374
3474.54	0.3769
3484.9	0.3809
3495.26	0.3869
3505.62	0.3924
3515.98	0.3988
3526.34	0.4034
3536.7	0.4128
3547.06	0.4304
3557.42	0.4388
3567.78	0.4454
3578.14	0.4519
3588.5	0.4628
3598.86	0.4728
3609.22	0.48
3619.58	0.4838
3629.94	0.492
3640.3	0.5092
3650.65	0.5308
3661.01	0.5768
3671.37	0.6347
3681.73	0.6826
3692.09	0.7591
3702.45	0.7987
3712.81	0.8147
3723.17	0.8225
3733.53	0.8273
3743.89	0.828
3754.25	0.8313
3764.61	0.8398
3774.97	0.843
3785.33	0.845
3795.69	0.845
3806.05	0.843
3816.41	0.842
3826.77	0.8392
3837.13	0.839
3847.49	0.8352
3857.85	0.8337
3868.21	0.833
3878.57	0.833
3888.93	0.834
3899.29	0.834
3909.65	0.8348
3920.01	0.839
3930.37	0.841
3940.73	0.841
3951.09	0.8418
3961.45	0.844
3971.81	0.8458
3982.17	0.848
3992.53	0.848
4002.89	0.846
4013.25	0.846
