Infrared Spectrum: 3,4-DICHLORO-1-BUTENE
Formula: C4 H6 Cl2
CAS: 760-23-6
Class: COBLENTZ
Instrument: Not specified, most likely a prism, grating, or hybrid spectrometer.
Sampling: TRANSMISSION
Path length: 0.0025 CM
Resolution: 4
Origin: W.T. BOLLETER
MICROMETERS	TRANSMITTANCE
14.495	0.023
14.565	0.025
14.635	0.025
14.705	0.026
14.775	0.028
14.845	0.032
14.915	0.039
14.985	0.044
15.055	0.048
15.1251	0.048
15.1951	0.048
15.2651	0.05
15.3351	0.055
15.4051	0.071
15.4751	0.1
15.5451	0.118
15.6151	0.128
15.6851	0.139
15.7551	0.134
15.8251	0.116
15.8951	0.101
15.9651	0.094
16.0351	0.069
16.1051	0.059
16.1751	0.06
16.2451	0.066
16.3152	0.075
16.3852	0.105
16.4552	0.121
16.5252	0.166
16.5952	0.209
16.6652	0.25
16.7352	0.298
16.8052	0.363
16.8752	0.411
16.9452	0.454
17.0152	0.488
17.0852	0.506
17.1552	0.52
17.2252	0.524
17.2952	0.527
17.3652	0.533
17.4353	0.549
17.5053	0.565
17.5753	0.588
17.6453	0.626
17.7153	0.656
17.7853	0.688
17.8553	0.71
17.9253	0.733
17.9953	0.74
18.0653	0.747
18.1353	0.753
18.2053	0.765
18.2753	0.776
18.3453	0.783
18.4153	0.781
18.4853	0.776
18.5553	0.769
18.6254	0.753
18.6954	0.738
18.7654	0.715
18.8354	0.679
18.9054	0.654
18.9754	0.61
19.0454	0.552
19.1154	0.491
19.1854	0.42
19.2554	0.352
19.3254	0.304
19.3954	0.262
19.4654	0.245
19.5354	0.248
19.6054	0.273
19.6754	0.311
19.7454	0.37
19.8155	0.423
19.8855	0.475
19.9555	0.516
20.0255	0.561
20.0955	0.601
20.1655	0.633
20.2355	0.658
20.3055	0.688
20.3755	0.703
20.4455	0.717
20.5155	0.722
20.5855	0.724
20.6555	0.72
20.7255	0.711
20.7955	0.697
20.8655	0.679
20.9355	0.665
21.0056	0.64
21.0756	0.604
21.1456	0.574
21.2156	0.549
21.2856	0.511
21.3556	0.483
21.4256	0.452
21.4956	0.416
21.5656	0.386
21.6356	0.354
21.7056	0.325
21.7756	0.28
21.8456	0.245
21.9156	0.216
21.9856	0.198
22.0556	0.2
22.1256	0.218
22.1957	0.255
22.2657	0.316
22.3357	0.391
22.4057	0.452
22.4757	0.513
22.5457	0.565
22.6157	0.606
22.6857	0.658
22.7557	0.703
22.8257	0.729
22.8957	0.751
22.9657	0.767
23.0357	0.787
23.1057	0.797
23.1757	0.805
23.2457	0.812
23.3158	0.813
23.3858	0.817
23.4558	0.819
23.5258	0.826
23.5958	0.833
23.6658	0.842
23.7358	0.849
23.8058	0.858
23.8758	0.865
23.9458	0.874
24.0158	0.878
24.0858	0.88
24.1558	0.878
24.2258	0.878
24.2958	0.876
24.3658	0.874
24.4358	0.871
24.5059	0.869
24.5759	0.869
24.6459	0.867
24.7159	0.865
24.7859	0.865
24.8559	0.864
24.9259	0.864
24.9959	0.862
25.0659	0.86
25.1359	0.86
25.2059	0.858
25.2759	0.853
25.3459	0.849
25.4159	0.842
25.4859	0.831
25.5559	0.826
25.6259	0.81
25.696	0.797
25.766	0.778
25.836	0.754
25.906	0.735
25.976	0.703
26.046	0.667
26.116	0.642
26.186	0.577
26.256	0.516
26.326	0.456
26.396	0.381
26.466	0.327
26.536	0.255
26.606	0.2
26.676	0.162
26.746	0.15
26.816	0.15
26.8861	0.178
26.9561	0.23
27.0261	0.28
27.0961	0.384
27.1661	0.45
27.2361	0.506
27.3061	0.568
27.3761	0.624
27.4461	0.663
27.5161	0.704
27.5861	0.729
27.6561	0.751
27.7261	0.763
27.7961	0.774
27.8661	0.781
27.9361	0.785
28.0062	0.788
28.0762	0.792
28.1462	0.796
28.2162	0.797
28.2862	0.801
28.3562	0.803
28.4262	0.806
28.4962	0.808
28.5662	0.81
28.6362	0.812
28.7062	0.812
28.7762	0.81
28.8462	0.808
28.9162	0.805
28.9862	0.803
29.0562	0.799
29.1262	0.792
29.1963	0.776
29.2663	0.769
29.3363	0.76
29.4063	0.751
29.4763	0.738
29.5463	0.715
29.6163	0.701
29.6863	0.679
29.7563	0.663
29.8263	0.651
29.8963	0.629
29.9663	0.597
30.0363	0.563
30.1063	0.547
30.1763	0.525
30.2463	0.502
30.3163	0.477
30.3864	0.456
30.4564	0.431
30.5264	0.397
30.5964	0.363
30.6664	0.341
30.7364	0.313
30.8064	0.288
30.8764	0.271
30.9464	0.254
31.0164	0.234
31.0864	0.212
31.1564	0.193
31.2264	0.189
31.2964	0.187
31.3664	0.187
31.4364	0.187
31.5064	0.189
31.5765	0.194
31.6465	0.212
31.7165	0.227
31.7865	0.236
31.8565	0.268
31.9265	0.293
31.9965	0.318
32.0665	0.352
32.1365	0.375
32.2065	0.4
32.2765	0.413
32.3465	0.434
32.4165	0.447
32.4865	0.461
32.5565	0.477
32.6265	0.493
32.6965	0.502
32.7666	0.511
32.8366	0.525
32.9066	0.543
32.9766	0.552
33.0466	0.559
33.1166	0.563
33.1866	0.565
33.2566	0.568
33.3266	0.574
33.3966	0.584
33.4666	0.592
33.5366	0.597
33.6066	0.602
33.6766	0.604
33.7466	0.602
33.8166	0.599
33.8867	0.595
33.9567	0.59
34.0267	0.581
34.0967	0.577
34.1667	0.565
34.2367	0.561
34.3067	0.558
34.3767	0.549
34.4467	0.542
34.5167	0.538
34.5867	0.533
34.6567	0.522
34.7267	0.513
34.7967	0.504
34.8667	0.499
34.9367	0.488
35.0067	0.486
35.0768	0.486
35.1468	0.479
35.2168	0.474
35.2868	0.475
35.3568	0.477
35.4268	0.477
35.4968	0.477
35.5668	0.477
35.6368	0.475
35.7068	0.474
35.7768	0.474
35.8468	0.47
35.9168	0.466
35.9868	0.466
36.0568	0.466
36.1268	0.461
36.1968	0.459
36.2669	0.459
36.3369	0.456
36.4069	0.45
36.4769	0.447
36.5469	0.447
36.6169	0.44
36.6869	0.429
36.7569	0.423
36.8269	0.411
36.8969	0.409
36.9669	0.406
37.0369	0.402
37.1069	0.4
37.1769	0.395
37.2469	0.391
37.3169	0.388
37.3869	0.386
37.457	0.384
37.527	0.381
37.597	0.379
37.667	0.375
37.737	0.368
37.807	0.372
37.877	0.372
37.947	0.37
