Infrared Spectrum: PENTACHLOROETHANE
Formula: C2 H Cl5
CAS: 76-01-7
Class: COBLENTZ
Instrument: Not specified, most likely a prism, grating, or hybrid spectrometer.
Sampling: TRANSMISSION
Path length: 0.0025 CM
Resolution: 4
Origin: W.T. BOLLETER
MICROMETERS	TRANSMITTANCE
14.525	0.394
14.595	0.387
14.6649	0.371
14.7349	0.364
14.8049	0.385
14.8749	0.412
14.9448	0.451
15.0148	0.497
15.0848	0.529
15.1547	0.554
15.2247	0.561
15.2947	0.557
15.3646	0.548
15.4346	0.566
15.5046	0.595
15.5746	0.623
15.6445	0.648
15.7145	0.671
15.7845	0.698
15.8544	0.715
15.9244	0.721
15.9944	0.722
16.0643	0.715
16.1343	0.708
16.2043	0.683
16.2743	0.658
16.3442	0.626
16.4142	0.577
16.4842	0.536
16.5541	0.483
16.6241	0.433
16.6941	0.378
16.764	0.314
16.834	0.246
16.904	0.175
16.974	0.117
17.0439	0.069
17.1139	0.058
17.1839	0.055
17.2538	0.053
17.3238	0.053
17.3938	0.058
17.4637	0.072
17.5337	0.115
17.6037	0.184
17.6737	0.277
17.7436	0.349
17.8136	0.412
17.8836	0.451
17.9535	0.484
18.0235	0.515
18.0935	0.536
18.1634	0.561
18.2334	0.582
18.3034	0.602
18.3734	0.616
18.4433	0.635
18.5133	0.662
18.5833	0.689
18.6532	0.731
18.7232	0.765
18.7932	0.79
18.8631	0.808
18.9331	0.818
19.0031	0.827
19.0731	0.833
19.143	0.847
19.213	0.85
19.283	0.85
19.3529	0.849
19.4229	0.84
19.4929	0.831
19.5629	0.817
19.6328	0.806
19.7028	0.799
19.7728	0.793
19.8427	0.797
19.9127	0.801
19.9827	0.802
20.0526	0.801
20.1226	0.795
20.1926	0.785
20.2626	0.781
20.3325	0.779
20.4025	0.779
20.4725	0.781
20.5424	0.785
20.6124	0.792
20.6824	0.797
20.7523	0.802
20.8223	0.809
20.8923	0.813
20.9623	0.817
21.0322	0.822
21.1022	0.822
21.1722	0.827
21.2421	0.831
21.3121	0.833
21.3821	0.838
21.452	0.845
21.522	0.841
21.592	0.841
21.662	0.84
21.7319	0.833
21.8019	0.829
21.8719	0.822
21.9418	0.815
22.0118	0.806
22.0818	0.797
22.1517	0.783
22.2217	0.774
22.2917	0.767
22.3617	0.756
22.4316	0.754
22.5016	0.753
22.5716	0.753
22.6415	0.758
22.7115	0.761
22.7815	0.77
22.8514	0.781
22.9214	0.79
22.9914	0.799
23.0614	0.808
23.1313	0.817
23.2013	0.82
23.2713	0.827
23.3412	0.834
23.4112	0.838
23.4812	0.843
23.5511	0.845
23.6211	0.845
23.6911	0.849
23.7611	0.85
23.831	0.847
23.901	0.843
23.971	0.838
24.0409	0.831
24.1109	0.817
24.1809	0.802
24.2509	0.781
24.3208	0.721
24.3908	0.646
24.4608	0.552
24.5307	0.454
24.6007	0.399
24.6707	0.349
24.7406	0.332
24.8106	0.33
24.8806	0.353
24.9506	0.39
25.0205	0.452
25.0905	0.5
25.1605	0.539
25.2304	0.602
25.3004	0.648
25.3704	0.69
25.4403	0.738
25.5103	0.79
25.5803	0.825
25.6503	0.849
25.7202	0.861
25.7902	0.877
25.8602	0.888
25.9301	0.898
26.0001	0.902
26.0701	0.904
26.14	0.905
26.21	0.907
26.28	0.907
26.35	0.911
26.4199	0.909
26.4899	0.911
26.5599	0.909
26.6298	0.909
26.6998	0.905
26.7698	0.902
26.8397	0.902
26.9097	0.9
26.9797	0.896
27.0497	0.895
27.1196	0.891
27.1896	0.889
27.2596	0.891
27.3295	0.891
27.3995	0.893
27.4695	0.896
27.5394	0.898
27.6094	0.898
27.6794	0.9
27.7494	0.904
27.8193	0.909
27.8893	0.914
27.9593	0.92
28.0292	0.925
28.0992	0.928
28.1692	0.93
28.2391	0.93
28.3091	0.932
28.3791	0.936
28.4491	0.937
28.519	0.936
28.589	0.934
28.659	0.932
28.7289	0.93
28.7989	0.93
28.8689	0.93
28.9389	0.927
29.0088	0.927
29.0788	0.923
29.1488	0.918
29.2187	0.914
29.2887	0.909
29.3587	0.907
29.4286	0.9
29.4986	0.896
29.5686	0.891
29.6386	0.882
29.7085	0.872
29.7785	0.857
29.8485	0.833
29.9184	0.811
29.9884	0.777
30.0584	0.726
30.1283	0.664
30.1983	0.596
30.2683	0.515
30.3383	0.44
30.4082	0.378
30.4782	0.328
30.5482	0.273
30.6181	0.252
30.6881	0.243
30.7581	0.241
30.828	0.252
30.898	0.284
30.968	0.339
31.038	0.406
31.1079	0.474
31.1779	0.527
31.2479	0.602
31.3178	0.651
31.3878	0.71
31.4578	0.761
31.5277	0.797
31.5977	0.802
31.6677	0.813
31.7377	0.822
31.8076	0.831
31.8776	0.833
31.9476	0.838
32.0175	0.849
32.0875	0.854
32.1575	0.861
32.2274	0.865
32.2974	0.865
32.3674	0.866
32.4374	0.865
32.5073	0.865
32.5773	0.865
32.6473	0.863
32.7172	0.861
32.7872	0.863
32.8572	0.865
32.9271	0.866
32.9971	0.866
33.0671	0.865
33.1371	0.865
33.207	0.863
33.277	0.859
33.347	0.857
33.4169	0.857
33.4869	0.856
33.5569	0.852
33.6269	0.852
33.6968	0.852
33.7668	0.852
33.8368	0.85
33.9067	0.85
33.9767	0.85
34.0467	0.849
34.1166	0.847
34.1866	0.845
34.2566	0.843
34.3266	0.843
34.3965	0.843
34.4665	0.841
34.5365	0.84
34.6064	0.838
34.6764	0.834
34.7464	0.831
34.8163	0.827
34.8863	0.82
34.9563	0.815
35.0263	0.804
35.0962	0.801
35.1662	0.793
35.2362	0.785
35.3061	0.781
35.3761	0.774
35.4461	0.767
35.516	0.756
35.586	0.749
35.656	0.733
35.726	0.724
35.7959	0.719
35.8659	0.715
35.9359	0.712
36.0058	0.708
36.0758	0.705
36.1458	0.703
36.2157	0.701
36.2857	0.701
36.3557	0.703
36.4257	0.705
36.4956	0.708
36.5656	0.71
36.6356	0.714
36.7055	0.717
36.7755	0.721
36.8455	0.722
36.9154	0.728
36.9854	0.731
37.0554	0.737
37.1254	0.738
37.1953	0.742
37.2653	0.747
37.3353	0.749
37.4052	0.751
37.4752	0.754
37.5452	0.761
37.6151	0.769
37.6851	0.772
37.7551	0.774
37.8251	0.777
37.895	0.783
37.965	0.788
