Infrared Spectrum: METHANE, TRICHLORONITRO-
Formula: C Cl3 N O2
CAS: 76-06-2
State: SOLUTION (10% IN CCl4 FOR 3800-1330, 10% IN CS2 FOR 1330-400 CM^-^1)
Class: COBLENTZ III
Instrument: DOW KBr FOREPRISM-GRATING
Instrument parameters: BLAZED AT 3.5, 12.0, 20.0 MICRON, CHANGED AT 5.0, 7.5, 14.9 MICRON
Sampling: TRANSMISSION
Path length: 0.010, 0.010 CM
Resolution: 4
Origin: DOW CHEMICAL COMPANY
1/CM	TRANSMITTANCE
382.278	0.628
391.772	0.63
401.265	0.676
410.759	0.841
420.253	0.936
429.746	0.964
439.24	0.983
448.734	1.025
458.227	1.048
467.721	1.062
477.215	1.069
486.708	1.073
496.202	1.082
505.696	1.082
515.19	1.085
524.683	1.088
534.177	1.084
543.671	1.09
553.164	1.09
562.658	1.084
572.152	1.082
581.645	1.078
591.139	1.073
600.633	1.071
610.126	1.06
619.62	1.048
629.114	1.022
638.607	0.986
648.101	0.94
657.595	0.788
667.088	0.301
676.582	0.631
686.076	0.84
695.569	0.73
705.063	0.295
714.557	0.664
724.05	0.798
733.544	0.676
743.038	0.952
752.531	1.022
762.025	1.036
771.519	1.042
781.013	1.032
790.506	1.028
800	1.017
809.494	1
818.987	0.974
828.481	0.86
837.975	0.437
847.468	0.306
856.962	0.019
866.456	0.068
875.949	0.173
885.443	0.202
894.937	0.054
904.43	0.0821
913.924	0.523
923.418	0.857
932.911	0.955
942.405	1.001
951.899	1.022
961.392	1.032
970.886	1.038
980.38	1.041
989.873	1.036
999.367	1.036
1008.86	1.044
1018.35	1.045
1027.85	1.045
1037.34	1.045
1046.84	1.041
1056.33	1.042
1065.82	1.042
1075.32	1.042
1084.81	1.044
1094.3	1.038
1103.8	1.029
1113.29	1.029
1122.78	1.032
1132.28	1.022
1141.77	1.022
1151.27	1.032
1160.76	1.034
1170.25	1.032
1179.75	1.035
1189.24	1.034
1198.73	1.029
1208.23	1.034
1217.72	1.029
1227.22	1.026
1236.71	1.025
1246.2	1.022
1255.7	1.005
1265.19	0.955
1274.68	0.772
1284.18	0.865
1293.67	0.715
1303.16	0.2319
1312.66	0.2363
1322.15	0.797
1331.65	0.85
1341.14	0.7109
1350.63	0.5001
1360.13	0.942
1369.62	1.005
1379.11	1.023
1388.61	1.028
1398.1	1.025
1407.6	1.022
1417.09	1.034
1426.58	1.035
1436.08	1.032
1445.57	1.035
1455.06	1.029
1464.56	1.026
1474.05	1.014
1483.54	1.001
1493.04	0.965
1502.53	0.894
1512.03	0.815
1521.52	0.757
1531.01	0.708
1540.51	0.6129
1550	0.507
1559.49	0.511
1568.99	0.559
1578.48	0.513
1587.98	0.378
1597.47	0.164
1606.96	0.008
1616.46	0.028
1625.95	0.4151
1635.44	0.678
1644.94	0.832
1654.43	0.905
1663.92	0.954
1673.42	0.979
1682.91	1.002
1692.41	1.014
1701.9	1.019
1711.39	1.026
1720.89	1.028
1730.38	1.026
1739.87	1.02
1749.37	1.023
1758.86	1.029
1768.36	1.028
1777.85	1.029
1787.34	1.026
1796.84	1.026
1806.33	1.026
1815.82	1.026
1825.32	1.028
1834.81	1.028
1844.3	1.028
1853.8	1.028
1863.29	1.028
1872.79	1.028
1882.28	1.026
1891.77	1.026
1901.27	1.028
1910.76	1.029
1920.25	1.029
1929.75	1.028
1939.24	1.029
1948.74	1.031
1958.23	1.026
1967.72	1.023
1977.22	1.02
1986.71	1.016
1996.2	1.008
2005.7	1.007
2015.19	1.008
2024.68	1.01
2034.18	1.01
2043.67	1.01
2053.17	1.008
2062.66	1.007
2072.15	1.0097
2081.65	1.0127
2091.14	1.013
2100.63	1.013
2110.13	1.0114
2119.62	1.01
2129.11	1.008
2138.61	1.005
2148.1	1.001
2157.6	1.0009
2167.09	1.0077
2176.58	1.008
2186.08	1.007
2195.57	1.0047
2205.06	1.01
2214.56	1.01
2224.05	1.01
2233.55	1.008
2243.04	1.007
2252.53	1.005
2262.03	1.0029
2271.52	1.0005
2281.01	0.997
2290.51	0.994
2300	0.992
2309.49	0.991
2318.99	0.992
2328.48	0.9945
2337.98	0.9961
2347.47	0.9944
2356.96	1
2366.46	0.998
2375.95	1.0051
2385.44	1.013
2394.94	1.0153
2404.43	1.014
2413.93	1.016
2423.42	1.017
2432.91	1.019
2442.41	1.019
2451.9	1.02
2461.39	1.022
2470.89	1.022
2480.38	1.022
2489.87	1.022
2499.37	1.022
2508.86	1.022
2518.36	1.022
2527.85	1.0218
2537.34	1.02
2546.84	1.017
2556.33	1.014
2565.82	1.0109
2575.32	1.0039
2584.81	1.001
2594.31	0.991
2603.8	0.977
2613.29	0.991
2622.79	0.992
2632.28	0.9803
2641.77	0.9739
2651.27	0.9947
2660.76	1.0109
2670.25	1.013
2679.75	1.013
2689.24	1.013
2698.74	1.013
2708.23	1.013
2717.72	1.013
2727.22	1.011
2736.71	1.011
2746.2	1.011
2755.7	1.011
2765.19	1.011
2774.69	1.011
2784.18	1.01
2793.67	1.01
2803.17	1.0087
2812.66	1.0074
2822.15	1.007
2831.65	1.0046
2841.14	1.007
2850.63	1.007
2860.13	1.0023
2869.62	0.9899
2879.12	0.9684
2888.61	0.953
2898.1	0.9175
2907.6	0.8496
2917.09	0.9578
2926.58	0.985
2936.08	0.983
2945.57	0.9692
2955.07	0.9773
2964.56	0.9974
2974.05	1.002
2983.55	1.004
2993.04	1.005
3002.53	1.007
3012.03	1.007
3021.52	1.007
3031.01	1.007
3040.51	1.005
3050	1.005
3059.5	1.005
3068.99	1.005
3078.48	1.005
3087.98	1.007
3097.47	1.007
3106.96	1.007
3116.46	1.007
3125.95	1.007
3135.44	1.007
3144.94	1.007
3154.43	1.0069
3163.93	1.005
3173.42	1.004
3182.91	1.001
3192.41	1
3201.9	0.998
3211.39	0.998
3220.89	1
3230.38	1.001
3239.88	1.001
3249.37	1
3258.86	1
3268.36	0.9982
3277.85	0.998
3287.34	0.997
3296.84	0.995
3306.33	0.997
3315.82	0.997
3325.32	0.997
3334.81	0.9942
3344.31	0.994
3353.8	0.994
3363.29	0.994
3372.79	0.994
3382.28	0.994
3391.77	0.994
3401.27	0.992
3410.76	0.992
3420.26	0.991
3429.75	0.991
3439.24	0.991
3448.74	0.989
3458.23	0.989
3467.72	0.988
3477.22	0.988
3486.71	0.986
3496.2	0.986
3505.7	0.988
3515.19	0.988
3524.69	0.9855
3534.18	0.985
3543.67	0.985
3553.17	0.985
3562.66	0.985
3572.15	0.985
3581.65	0.985
3591.14	0.985
3600.64	0.985
3610.13	0.983
3619.62	0.982
3629.12	0.982
3638.61	0.9793
3648.1	0.979
3657.6	0.977
3667.09	0.979
3676.58	0.98
3686.08	0.98
3695.57	0.9786
3705.07	0.976
3714.56	0.9773
3724.05	0.983
3733.55	0.9818
3743.04	0.979
3752.53	0.979
3762.03	0.98
3771.52	0.9821
3781.02	0.983
3790.51	0.983
3800	0.98
