Infrared Spectrum: Hexafluoroethane
Formula: C2 F6
CAS: 76-16-4
State: gas
Melting point: -94 C
Boiling point: -79 C
Class: IUPAC A
Instrument: IFS66V (Bruker)
Instrument parameters: KBr Beam Splitter; MCT Detector; Multipass cell
Sampling: 1 L/min Flow
Resolution: 0.4820
Temperature: 23 C
Pressure: 101.3 Pa
Origin: NIST, Analytical Chemistry Division, 301-975-3108
cm-1	(micromol/mol)-1m-1 (base 10)
575.171	2.93443e-06
583.849	-2.0882e-06
592.527	1.14608e-06
601.206	-3.61141e-07
609.884	-4.33329e-08
618.562	-3.20527e-06
627.24	-3.5663e-07
635.918	-3.7697e-06
644.596	-1.62075e-06
653.275	-2.67433e-07
661.953	-2.2933e-06
670.631	-8.86447e-07
679.309	-1.24461e-06
687.987	-5.36626e-07
696.666	1.31734e-05
705.344	0.000218242
714.022	0.00101432
722.7	0.000251123
731.378	2.01327e-05
740.057	1.39384e-07
748.735	-2.22691e-06
757.413	-1.01586e-06
766.091	-2.43603e-06
774.769	5.64113e-07
783.447	-9.81974e-07
792.126	-1.63728e-06
800.804	-1.64215e-06
809.482	-1.66915e-07
818.16	-7.43993e-08
826.838	-1.34704e-06
835.517	1.79705e-08
844.195	-1.63517e-06
852.873	-1.33533e-06
861.551	-2.02957e-06
870.229	1.02963e-07
878.907	-7.7164e-07
887.586	6.25926e-07
896.264	2.50612e-07
904.942	1.52332e-06
913.62	-8.01498e-07
922.298	-1.09354e-06
930.977	-1.47739e-06
939.655	-9.3835e-07
948.333	-1.50697e-06
957.011	-1.04609e-06
965.689	-9.60701e-07
974.368	-1.84293e-06
983.046	-5.53564e-07
991.724	-6.17574e-07
1000.4	2.18032e-07
1009.08	7.58733e-07
1017.76	2.75714e-06
1026.44	4.80879e-06
1035.11	3.77e-06
1043.79	-6.76636e-07
1052.47	-4.31888e-07
1061.15	1.42092e-06
1069.83	1.26322e-06
1078.51	-2.61438e-07
1087.18	9.12882e-06
1095.86	8.5211e-05
1104.54	0.00103106
1113.22	0.00190647
1121.9	0.00244136
1130.57	0.000199905
1139.25	0.000171484
1147.93	0.00010964
1156.61	6.85447e-06
1165.29	1.91401e-06
1173.97	3.83198e-06
1182.64	7.1424e-06
1191.32	1.99429e-05
1200	6.69157e-05
1208.68	6.83043e-05
1217.36	2.29791e-05
1226.03	5.29121e-05
1234.71	0.00069481
1243.39	0.00631225
1252.07	0.0119834
1260.75	0.0017298
1269.43	7.38411e-05
1278.1	1.32949e-05
1286.78	1.05339e-05
1295.46	1.40778e-05
1304.14	3.50106e-05
1312.82	7.32521e-05
1321.49	0.000122675
1330.17	0.000136065
1338.85	9.30674e-05
1347.53	4.27377e-05
1356.21	1.07734e-05
1364.89	1.28303e-06
1373.56	-2.95094e-07
1382.24	-9.82949e-07
1390.92	-1.21278e-06
1399.6	-3.39504e-07
1408.28	-1.2535e-06
1416.95	-1.00035e-06
1425.63	-1.0396e-06
1434.31	2.68804e-06
1442.99	6.12732e-06
1451.67	7.24635e-06
1460.35	6.45158e-06
1469.02	4.21283e-06
1477.7	3.42516e-07
1486.38	-8.86229e-07
1495.06	-1.35572e-06
1503.74	-1.15678e-06
1512.41	-1.07734e-06
1521.09	-2.32721e-06
1529.77	-1.18548e-06
1538.45	-1.76122e-06
1547.13	-1.13533e-06
1555.81	-1.11909e-06
1564.48	-1.42738e-06
1573.16	-1.36065e-06
1581.84	-1.08782e-06
1590.52	1.72134e-06
1599.2	7.89236e-06
1607.88	3.86555e-06
1616.55	5.10822e-06
1625.23	1.22859e-05
1633.91	1.47796e-05
1642.59	7.87432e-06
1651.27	4.67043e-07
1659.94	-1.2993e-06
1668.62	-2.14729e-06
1677.3	-1.20248e-06
1685.98	-1.11133e-06
1694.66	-9.66565e-07
1703.34	1.59435e-07
1712.01	2.00232e-06
1720.69	5.6082e-06
1729.37	9.87029e-06
1738.05	8.46742e-06
1746.73	4.30202e-06
1755.4	4.97295e-07
1764.08	-7.72367e-07
1772.76	-2.24733e-06
1781.44	-1.2648e-06
1790.12	-1.83912e-06
1798.8	-1.80514e-06
1807.47	-1.61355e-06
1816.15	-1.99455e-06
1824.83	-1.61046e-06
1833.51	-1.01515e-06
1842.19	-9.56859e-07
1850.86	1.33494e-06
1859.54	6.32955e-06
1868.22	1.01548e-05
1876.9	5.11012e-06
1885.58	-4.26082e-07
1894.26	-2.10681e-06
1902.93	-1.73717e-06
1911.61	-1.08024e-06
1920.29	8.15234e-07
1928.97	2.40804e-06
1937.65	2.79577e-06
1946.32	2.72222e-06
1955	2.66758e-06
1963.68	5.31373e-07
1972.36	-1.16903e-06
1981.04	-1.54924e-06
1989.72	-1.84942e-06
1998.39	-1.86924e-06
2007.07	-1.58868e-06
2015.75	-1.83306e-06
2024.43	-1.79603e-06
2033.11	-1.46059e-06
2041.78	2.63431e-06
2050.46	2.09921e-05
2059.14	1.55989e-05
2067.82	-1.25857e-06
2076.5	-1.87705e-06
2085.18	-2.0067e-06
2093.85	-2.47921e-06
2102.53	-1.86215e-06
2111.21	-1.75025e-06
2119.89	-1.24904e-06
2128.57	-1.317e-06
2137.24	-7.47674e-07
2145.92	-1.39192e-06
2154.6	-1.28539e-06
2163.28	-2.08788e-06
2171.96	-1.74074e-06
2180.64	-2.11816e-06
2189.31	-2.38808e-06
2197.99	-2.58989e-06
2206.67	-5.32248e-06
2215.35	-7.19463e-06
2224.03	-6.96487e-06
2232.7	-9.73976e-06
2241.38	-8.86363e-06
2250.06	-7.47454e-06
2258.74	-3.55488e-06
2267.42	-2.60719e-06
2276.1	-2.73889e-06
2284.77	-2.59344e-06
2293.45	-3.22152e-06
2302.13	-2.03036e-06
2310.81	-2.91948e-06
2319.49	-3.32276e-06
2328.16	-6.68211e-07
2336.84	5.2055e-06
2345.52	1.38553e-05
2354.2	1.26598e-05
2362.88	-5.88896e-06
2371.56	-4.52721e-06
2380.23	-1.31329e-06
2388.91	-1.62805e-06
2397.59	-2.17034e-06
2406.27	-2.1711e-06
2414.95	-1.74663e-06
2423.62	-1.61806e-06
2432.3	-8.89124e-07
2440.98	4.37549e-08
2449.66	2.27351e-06
2458.34	6.02634e-06
2467.02	7.66326e-06
2475.69	3.56863e-06
2484.37	-2.24999e-06
2493.05	-4.2524e-06
2501.73	-7.99231e-06
2510.41	-1.04781e-05
2519.08	-6.38517e-06
2527.76	-1.20427e-06
2536.44	1.30712e-07
2545.12	-1.98204e-06
2553.8	-1.18521e-06
2562.48	-1.13173e-06
2571.15	-8.76785e-07
2579.83	-1.26445e-06
2588.51	-1.53931e-06
2597.19	-2.12934e-06
2605.87	-2.31859e-06
2614.54	-2.38425e-06
2623.22	-2.61972e-06
2631.9	-2.18594e-06
2640.58	-1.4072e-06
2649.26	1.78542e-06
2657.94	8.50525e-06
2666.61	1.21655e-05
2675.29	4.2389e-06
2683.97	-2.17131e-06
2692.65	-2.23563e-06
2701.33	-2.27388e-06
2710	-2.33239e-06
2718.68	-2.15157e-06
2727.36	-2.24574e-06
2736.04	-1.65785e-06
2744.72	-2.45663e-06
2753.4	-2.3162e-06
2762.07	-2.04942e-06
2770.75	-2.19294e-06
2779.43	-2.4025e-06
2788.11	-2.0756e-06
2796.79	-2.2723e-06
2805.46	-2.37136e-06
2814.14	-2.56566e-06
2822.82	-1.85553e-06
2831.5	-3.16279e-06
2840.18	-2.66612e-06
2848.86	-1.74139e-06
2857.53	-1.46216e-06
2866.21	-2.89689e-06
2874.89	-3.12723e-06
2883.57	-1.98707e-06
2892.25	-2.64322e-06
2900.92	-2.42893e-06
2909.6	-3.12225e-06
2918.28	-2.69157e-06
2926.96	-2.62346e-06
2935.64	-2.52243e-06
2944.32	-2.7259e-06
2952.99	-2.29041e-06
2961.67	-2.01918e-06
2970.35	-2.88794e-06
2979.03	-1.99584e-06
2987.71	-3.0284e-06
2996.38	-2.53356e-06
3005.06	-2.07526e-06
3013.74	-2.10758e-06
3022.42	-2.46364e-06
3031.1	-2.12461e-06
3039.78	-2.41817e-06
3048.45	-3.83663e-06
3057.13	-2.23738e-06
3065.81	-2.17647e-06
3074.49	-2.75094e-06
3083.17	-1.92536e-06
3091.84	-2.40909e-06
3100.52	-1.88502e-06
3109.2	-2.03318e-06
3117.88	-1.89281e-06
3126.56	-1.89227e-06
3135.24	-2.35808e-06
3143.91	-1.54801e-06
3152.59	-2.05983e-06
3161.27	-2.33564e-06
3169.95	-1.58516e-06
3178.63	-2.86986e-06
3187.3	-3.26407e-06
3195.98	-2.87587e-06
3204.66	-3.04542e-06
3213.34	-3.12119e-06
3222.02	-1.88152e-06
3230.7	-1.97576e-06
3239.37	-2.28714e-06
3248.05	-2.64747e-06
3256.73	-2.92955e-06
3265.41	-1.79529e-06
3274.09	-2.82071e-06
3282.76	-2.41218e-06
3291.44	-2.02316e-06
3300.12	-2.91921e-06
3308.8	-3.12037e-06
3317.48	-2.72834e-06
3326.16	-2.08836e-06
3334.83	-1.37153e-06
3343.51	-1.52919e-06
3352.19	-3.98796e-06
3360.87	-2.06492e-06
3369.55	-3.11108e-06
3378.22	-3.78272e-06
3386.9	-3.14514e-06
3395.58	-3.52804e-06
3404.26	-2.90697e-06
3412.94	-2.0014e-06
3421.62	-2.78596e-06
3430.29	-2.76446e-06
3438.97	-3.34754e-06
3447.65	-3.16924e-06
3456.33	-2.11126e-06
3465.01	-2.70001e-06
3473.68	-2.67884e-06
3482.36	-3.4601e-06
3491.04	-2.874e-06
3499.72	-3.35108e-06
3508.4	-2.80332e-06
3517.08	-1.94836e-06
3525.75	-2.92487e-06
3534.43	-3.44232e-06
3543.11	-2.78828e-06
3551.79	-2.86209e-06
3560.47	-3.73651e-06
3569.14	-3.06108e-06
3577.82	-3.88251e-06
3586.5	-3.69844e-06
3595.18	-3.76685e-06
3603.86	-3.0914e-06
3612.54	-2.99231e-06
3621.21	-2.62257e-06
3629.89	-3.04295e-06
3638.57	-2.84703e-06
3647.25	-3.05616e-06
3655.93	-1.95983e-06
3664.6	-3.0771e-06
3673.28	-3.28985e-06
3681.96	-2.37388e-06
3690.64	-2.99364e-06
3699.32	-3.22172e-06
3708	-2.97257e-06
3716.67	-3.07637e-06
3725.35	-3.87688e-06
3734.03	-3.90022e-06
3742.71	-4.26705e-06
3751.39	-4.45092e-06
3760.06	-4.89691e-06
3768.74	-4.88825e-06
3777.42	-4.22923e-06
3786.1	-3.56523e-06
3794.78	-2.92949e-06
3803.46	-3.02122e-06
3812.13	-2.55607e-06
3820.81	-3.47066e-06
3829.49	-2.11093e-06
3838.17	-4.20073e-06
3846.85	-3.34741e-06
3855.52	-3.24035e-06
3864.2	-3.61668e-06
3872.88	-2.71138e-06
3881.56	-2.83149e-06
3890.24	-3.06549e-06
3898.92	-3.33053e-06
3907.59	-2.30722e-06
3916.27	-3.12881e-06
3924.95	-3.38408e-06
3933.63	-2.79458e-06
3942.31	-4.40273e-06
3950.98	-2.90882e-06
3959.66	-2.71465e-06
3968.34	-3.62006e-06
