Infrared Spectrum: Hexafluoroethane
Formula: C2 F6
CAS: 76-16-4
State: gas
Melting point: -94 C
Boiling point: -79 C
Class: IUPAC A
Instrument: IFS66V (Bruker)
Instrument parameters: KBr Beam Splitter; MCT Detector; Multipass cell
Sampling: 1 L/min Flow
Resolution: 0.1250
Temperature: 23 C
Pressure: 101.3 Pa
Origin: NIST, Analytical Chemistry Division, 301-975-3108
cm-1	(micromol/mol)-1m-1 (base 10)
575.05	5.27145e-06
583.608	-9.81485e-06
592.165	-2.59049e-06
600.723	2.46629e-06
609.281	2.49535e-07
617.838	3.775e-06
626.396	-1.7558e-06
634.954	3.42196e-07
643.511	-5.04774e-07
652.069	-4.27954e-06
660.627	-3.96961e-06
669.184	-3.28116e-06
677.742	-2.37969e-06
686.3	7.52272e-07
694.857	5.7226e-06
703.415	0.000155343
711.973	0.000129528
720.53	0.000279482
729.088	4.90858e-05
737.645	2.72549e-06
746.203	7.14367e-07
754.761	-1.72857e-06
763.318	6.46283e-07
771.876	-1.308e-06
780.434	-1.21504e-06
788.991	-6.65737e-07
797.549	-1.62073e-06
806.107	6.48829e-07
814.664	-9.11373e-07
823.222	-2.07432e-06
831.78	-5.39144e-07
840.337	-4.04663e-08
848.895	-1.58683e-06
857.453	-1.26498e-06
866.01	-1.87271e-08
874.568	-4.10265e-07
883.126	-1.09699e-06
891.683	3.74746e-07
900.241	2.52277e-06
908.799	-1.52375e-06
917.356	-1.24449e-06
925.914	3.74688e-07
934.472	-6.06631e-07
943.029	-9.91578e-07
951.587	-2.25926e-06
960.145	3.39868e-07
968.702	-1.12236e-06
977.26	-1.19859e-06
985.818	-1.55437e-06
994.375	4.58604e-07
1002.93	3.95642e-07
1011.49	1.05773e-06
1020.05	2.9041e-06
1028.61	2.45698e-06
1037.16	1.78814e-06
1045.72	3.05469e-07
1054.28	1.00339e-06
1062.84	2.21565e-06
1071.39	1.41807e-06
1079.95	1.40243e-06
1088.51	1.33391e-05
1097.07	0.000121325
1105.62	0.0012606
1114.18	0.00272005
1122.74	0.00246737
1131.3	0.000151078
1139.86	0.000122888
1148.41	0.000101959
1156.97	6.62708e-06
1165.53	2.65019e-06
1174.09	3.87998e-06
1182.64	6.77672e-06
1191.2	1.97261e-05
1199.76	6.66301e-05
1208.32	7.20951e-05
1216.87	2.42115e-05
1225.43	4.65256e-05
1233.99	0.000555426
1242.55	0.00531783
1251.1	0.0124292
1259.66	0.00239004
1268.22	0.000117611
1276.78	1.47618e-05
1285.34	1.14063e-05
1293.89	1.30604e-05
1302.45	2.8392e-05
1311.01	6.32392e-05
1319.57	0.000113213
1328.12	0.000139466
1336.68	0.000105348
1345.24	5.63128e-05
1353.8	1.55631e-05
1362.35	8.21026e-07
1370.91	-2.44122e-07
1379.47	-9.45553e-07
1388.03	-1.66449e-07
1396.59	-1.44459e-06
1405.14	-1.63798e-06
1413.7	-5.8156e-07
1422.26	-5.47161e-07
1430.82	2.7612e-07
1439.37	4.22982e-06
1447.93	7.06342e-06
1456.49	5.66118e-06
1465.05	4.56941e-06
1473.6	1.35406e-06
1482.16	-1.5539e-06
1490.72	-1.08779e-06
1499.28	-1.46584e-06
1507.83	-1.11881e-06
1516.39	-1.27979e-06
1524.95	-2.07979e-06
1533.51	-8.53445e-07
1542.07	-2.64565e-06
1550.62	-1.05591e-06
1559.18	-1.88355e-06
1567.74	-2.07198e-06
1576.3	-3.04803e-06
1584.85	-1.15663e-06
1593.41	4.19094e-06
1601.97	6.42313e-06
1610.53	3.61457e-06
1619.08	9.3474e-06
1627.64	1.34441e-05
1636.2	1.14875e-05
1644.76	5.2212e-06
1653.31	-3.6811e-06
1661.87	-2.01383e-06
1670.43	-1.50018e-06
1678.99	-8.00887e-07
1687.55	-1.39067e-06
1696.1	-9.62767e-07
1704.66	4.77666e-07
1713.22	2.44925e-06
1721.78	7.90013e-06
1730.33	1.03377e-05
1738.89	9.21515e-06
1747.45	3.8899e-06
1756.01	3.04116e-09
1764.56	-7.96798e-07
1773.12	-9.35629e-07
1781.68	-1.77931e-06
1790.24	-2.07295e-06
1798.79	-1.53381e-06
1807.35	-1.83837e-06
1815.91	-1.68017e-06
1824.47	-7.1476e-07
1833.03	-2.13091e-06
1841.58	-5.66063e-07
1850.14	1.37425e-06
1858.7	5.9481e-06
1867.26	1.06734e-05
1875.81	5.57751e-06
1884.37	9.91112e-07
1892.93	-2.50609e-06
1901.49	-1.95356e-06
1910.04	-1.24356e-06
1918.6	6.72111e-08
1927.16	1.59742e-06
1935.72	2.24784e-06
1944.28	3.46013e-06
1952.83	2.08114e-06
1961.39	1.20938e-06
1969.95	-7.94979e-07
1978.51	-1.79807e-06
1987.06	-1.51466e-06
1995.62	-2.35514e-06
2004.18	-2.32707e-06
2012.74	-1.6285e-06
2021.29	-2.56237e-06
2029.85	-1.88923e-06
2038.41	-7.154e-07
2046.97	1.29e-05
2055.52	2.37106e-05
2064.08	2.89668e-06
2072.64	-1.17526e-06
2081.2	-2.31323e-06
2089.76	-2.69129e-06
2098.31	-2.78759e-06
2106.87	-1.95583e-06
2115.43	-1.75561e-06
2123.99	-1.97457e-08
2132.54	-7.08299e-07
2141.1	-2.26796e-06
2149.66	-1.05928e-06
2158.22	-9.90574e-07
2166.77	-1.48778e-06
2175.33	-1.25572e-06
2183.89	-2.27447e-06
2192.45	-1.82526e-06
2201	-3.7731e-06
2209.56	-4.56964e-06
2218.12	-7.54087e-06
2226.68	-8.45016e-06
2235.24	-5.91801e-06
2243.79	-8.58556e-06
2252.35	-6.86835e-06
2260.91	-3.13766e-06
2269.47	-2.25978e-06
2278.02	-3.22286e-06
2286.58	-2.6391e-06
2295.14	-2.2521e-06
2303.7	-3.76209e-06
2312.25	-4.44839e-07
2320.81	-2.61819e-06
2329.37	-6.94476e-07
2337.93	4.81426e-06
2346.49	1.76645e-05
2355.04	1.45362e-05
2363.6	3.12819e-06
2372.16	-1.22978e-06
2380.72	-2.87141e-06
2389.27	-1.11055e-06
2397.83	-3.19352e-06
2406.39	-1.88769e-06
2414.95	-1.9763e-06
2423.5	-1.43249e-06
2432.06	-7.13974e-07
2440.62	4.161e-07
2449.18	1.82967e-06
2457.73	5.86429e-06
2466.29	6.80712e-06
2474.85	4.5832e-06
2483.41	-3.78416e-06
2491.97	-3.39837e-06
2500.52	-7.23271e-06
2509.08	-9.73053e-06
2517.64	-8.30692e-06
2526.2	-1.55859e-06
2534.75	6.12495e-07
2543.31	-1.66234e-06
2551.87	-9.51359e-07
2560.43	-1.07273e-06
2568.98	2.56796e-07
2577.54	-9.71847e-07
2586.1	-1.285e-06
2594.66	-1.62545e-06
2603.21	-2.51239e-06
2611.77	-2.50509e-06
2620.33	-3.25896e-06
2628.89	-9.99246e-07
2637.45	-2.32787e-06
2646	-9.7691e-07
2654.56	4.65002e-06
2663.12	1.40697e-05
2671.68	8.97629e-06
2680.23	-7.52578e-08
2688.79	-2.23722e-06
2697.35	-2.96015e-06
2705.91	-1.28031e-06
2714.46	-1.73947e-06
2723.02	-1.2826e-06
2731.58	-2.77995e-06
2740.14	-2.25744e-06
2748.69	-2.08781e-06
2757.25	-3.15875e-06
2765.81	-1.69548e-06
2774.37	-3.39511e-06
2782.93	-2.15164e-06
2791.48	-2.63049e-06
2800.04	-2.65505e-06
2808.6	-3.25181e-06
2817.16	-2.43114e-06
2825.71	-1.67194e-06
2834.27	-3.82557e-06
2842.83	-2.51879e-06
2851.39	-2.22761e-06
2859.94	-1.5774e-06
2868.5	-4.28131e-06
2877.06	-1.49497e-06
2885.62	-2.91647e-06
2894.18	-3.85578e-06
2902.73	-9.80621e-07
2911.29	-3.70765e-06
2919.85	-2.8207e-06
2928.41	-3.66818e-06
2936.96	-2.54998e-06
2945.52	-3.14453e-06
2954.08	-2.32985e-06
2962.64	-1.58172e-06
2971.19	-1.65659e-06
2979.75	-2.34436e-06
2988.31	-4.41637e-06
2996.87	-9.72065e-07
3005.42	-3.4503e-06
3013.98	-2.02036e-06
3022.54	-2.83443e-06
3031.1	-1.08962e-06
3039.66	-2.30233e-06
3048.21	-4.02668e-06
3056.77	-2.56176e-06
3065.33	-3.72945e-06
3073.89	-1.53503e-06
3082.44	-3.26564e-06
3091	-3.23713e-06
3099.56	3.71269e-07
3108.12	-6.35908e-07
3116.67	-2.10681e-06
3125.23	-1.19013e-06
3133.79	-1.08457e-06
3142.35	-1.67347e-06
3150.9	-1.41693e-06
3159.46	-1.20542e-06
3168.02	-2.37098e-06
3176.58	-2.82876e-06
3185.14	-1.28436e-06
3193.69	-2.72824e-06
3202.25	-1.35107e-06
3210.81	-1.75041e-06
3219.37	-1.87877e-06
3227.92	-2.87123e-06
3236.48	-1.9455e-06
3245.04	-1.81854e-06
3253.6	-3.37598e-06
3262.15	-1.92131e-06
3270.71	-2.97564e-06
3279.27	-1.57702e-06
3287.83	-2.06818e-06
3296.38	-2.15176e-06
3304.94	-2.35291e-06
3313.5	-1.56301e-06
3322.06	-1.91987e-06
3330.62	-4.91037e-06
3339.17	-5.07072e-06
3347.73	-4.28738e-06
3356.29	-3.15112e-06
3364.85	-6.42721e-06
3373.4	-5.47394e-07
3381.96	-3.07476e-06
3390.52	-3.14178e-06
3399.08	-5.24168e-06
3407.63	-1.47288e-06
3416.19	-4.70376e-06
3424.75	-1.80064e-06
3433.31	-1.81381e-06
3441.87	-3.11372e-06
3450.42	-3.13277e-06
3458.98	-3.5047e-06
3467.54	-9.35091e-07
3476.1	-1.37906e-06
3484.65	-4.57334e-06
3493.21	-3.72683e-06
3501.77	-2.12347e-06
3510.33	-3.42599e-06
3518.88	-3.75909e-06
3527.44	-2.92162e-06
3536	-2.50475e-06
3544.56	-4.03253e-06
3553.11	-4.49364e-07
3561.67	-3.74279e-06
3570.23	-1.20973e-06
3578.79	-2.06428e-06
3587.35	-4.26005e-06
3595.9	-1.93799e-06
3604.46	-4.35987e-06
3613.02	-2.16443e-06
3621.58	-4.2344e-06
3630.13	-4.28105e-06
3638.69	-3.13095e-06
3647.25	-3.84787e-06
3655.81	-4.54394e-06
3664.36	-3.72708e-06
3672.92	-1.98509e-06
3681.48	-2.90997e-06
3690.04	-3.40281e-06
3698.59	-3.01785e-06
3707.15	-3.09226e-06
3715.71	-3.62454e-06
3724.27	-3.50155e-06
3732.83	-3.11486e-06
3741.38	-5.90058e-06
3749.94	-2.72888e-06
3758.5	-2.8397e-06
3767.06	-4.04025e-06
3775.61	-5.52026e-06
3784.17	-4.71759e-06
3792.73	-2.9687e-06
3801.29	-5.35052e-06
3809.84	-2.79152e-06
3818.4	-4.47873e-06
3826.96	-1.13933e-06
3835.52	-2.67228e-06
3844.08	-1.75487e-06
3852.63	-3.67254e-06
3861.19	-1.35464e-06
3869.75	-3.31091e-06
3878.31	-3.37908e-06
3886.86	-4.00938e-06
3895.42	-2.14386e-06
3903.98	-4.0524e-06
3912.54	-2.01249e-06
3921.09	-2.77386e-06
3929.65	-3.18761e-06
3938.21	-4.40543e-06
3946.77	-4.55048e-06
3955.32	-3.65977e-06
3963.88	-2.45523e-06
3972.44	-4.37499e-06
