Infrared Spectrum: Hexafluoroethane
Formula: C2 F6
CAS: 76-16-4
State: gas
Melting point: -94 C
Boiling point: -79 C
Class: IUPAC A
Instrument: IFS66V (Bruker)
Instrument parameters: KBr Beam Splitter; MCT Detector; Multipass cell
Sampling: 1 L/min Flow
Resolution: 0.9640
Temperature: 23 C
Pressure: 101.3 Pa
Origin: NIST, Analytical Chemistry Division, 301-975-3108
cm-1	(micromol/mol)-1m-1 (base 10)
575.171	7.81054e-07
583.849	-2.70954e-06
592.527	-3.95412e-06
601.206	1.17908e-06
609.884	-3.43258e-08
618.562	-1.48801e-06
627.24	3.68097e-07
635.918	-2.45104e-06
644.596	-1.16153e-06
653.275	-1.39125e-06
661.953	-1.96185e-06
670.631	6.46734e-07
679.309	-1.56855e-06
687.987	-5.74794e-07
696.666	1.34479e-05
705.344	0.000216329
714.022	0.000872017
722.7	0.000250531
731.378	1.99734e-05
740.057	4.05915e-07
748.735	-1.27247e-06
757.413	-1.37552e-06
766.091	-1.17223e-06
774.769	2.40746e-07
783.447	-7.85739e-07
792.126	-1.12223e-06
800.804	-1.50251e-06
809.482	-8.02837e-07
818.16	-9.16437e-07
826.838	-6.77364e-07
835.517	-7.32672e-07
844.195	-1.32349e-06
852.873	-1.23845e-06
861.551	-1.37993e-06
870.229	-6.04492e-07
878.907	-9.90137e-07
887.586	3.10358e-07
896.264	8.85414e-07
904.942	1.16439e-06
913.62	-4.06293e-07
922.298	-1.13053e-06
930.977	-1.14247e-06
939.655	-1.01061e-06
948.333	-1.16082e-06
957.011	-1.12932e-06
965.689	-1.2208e-06
974.368	-1.69379e-06
983.046	-6.48524e-07
991.724	-4.61732e-07
1000.4	2.67389e-07
1009.08	8.8457e-07
1017.76	2.68488e-06
1026.44	4.73769e-06
1035.11	3.17373e-06
1043.79	-5.92066e-07
1052.47	-9.06236e-08
1061.15	1.88587e-06
1069.83	1.20439e-06
1078.51	-4.09305e-07
1087.18	9.54269e-06
1095.86	8.62619e-05
1104.54	0.00103189
1113.22	0.00194557
1121.9	0.00242293
1130.57	0.000204392
1139.25	0.00016198
1147.93	0.000108787
1156.61	6.9904e-06
1165.29	1.61753e-06
1173.97	3.46046e-06
1182.64	6.99734e-06
1191.32	2.02022e-05
1200	6.69987e-05
1208.68	6.7785e-05
1217.36	2.32419e-05
1226.03	5.35375e-05
1234.71	0.000699777
1243.39	0.00632451
1252.07	0.0118875
1260.75	0.00174094
1269.43	7.47758e-05
1278.1	1.32169e-05
1286.78	1.03692e-05
1295.46	1.4175e-05
1304.14	3.48647e-05
1312.82	7.33577e-05
1321.49	0.000122556
1330.17	0.000135874
1338.85	9.32353e-05
1347.53	4.31806e-05
1356.21	1.06798e-05
1364.89	1.11503e-06
1373.56	-3.12264e-07
1382.24	-9.39238e-07
1390.92	-7.57074e-07
1399.6	-8.55177e-07
1408.28	-1.08856e-06
1416.95	-1.21093e-06
1425.63	-9.32617e-07
1434.31	2.83339e-06
1442.99	6.13501e-06
1451.67	7.63215e-06
1460.35	6.10627e-06
1469.02	4.13759e-06
1477.7	2.8747e-07
1486.38	-8.73031e-07
1495.06	-9.57107e-07
1503.74	-1.43717e-06
1512.42	-9.90545e-07
1521.09	-1.70731e-06
1529.77	-1.20772e-06
1538.45	-2.05978e-06
1547.13	-1.3323e-06
1555.81	-1.20359e-06
1564.48	-1.43436e-06
1573.16	-1.30409e-06
1581.84	-1.16216e-06
1590.52	1.67479e-06
1599.2	7.63388e-06
1607.88	3.85449e-06
1616.55	5.73066e-06
1625.23	1.23031e-05
1633.91	1.47425e-05
1642.59	7.88427e-06
1651.27	3.99148e-07
1659.94	-1.24765e-06
1668.62	-2.1252e-06
1677.3	-1.28952e-06
1685.98	-1.03571e-06
1694.66	-8.98932e-07
1703.34	6.27439e-08
1712.01	2.17782e-06
1720.69	5.89403e-06
1729.37	9.86126e-06
1738.05	8.51151e-06
1746.73	4.15467e-06
1755.4	4.1725e-07
1764.08	-8.07944e-07
1772.76	-1.5969e-06
1781.44	-1.39883e-06
1790.12	-1.78788e-06
1798.8	-1.9753e-06
1807.47	-1.64681e-06
1816.15	-1.94179e-06
1824.83	-1.67449e-06
1833.51	-1.24926e-06
1842.19	-8.86432e-07
1850.86	1.4214e-06
1859.54	6.38576e-06
1868.22	1.02078e-05
1876.9	5.14343e-06
1885.58	-3.48409e-07
1894.26	-1.88897e-06
1902.93	-1.77566e-06
1911.61	-8.19105e-07
1920.29	7.34316e-07
1928.97	2.18776e-06
1937.65	2.9001e-06
1946.32	2.89162e-06
1955	2.70771e-06
1963.68	5.21028e-07
1972.36	-1.00936e-06
1981.04	-1.6645e-06
1989.72	-1.87644e-06
1998.39	-1.80539e-06
2007.07	-1.58919e-06
2015.75	-1.72675e-06
2024.43	-1.76346e-06
2033.11	-1.47268e-06
2041.78	2.61061e-06
2050.46	2.09431e-05
2059.14	1.55311e-05
2067.82	-8.28243e-07
2076.5	-1.93597e-06
2085.18	-2.01467e-06
2093.85	-2.08818e-06
2102.53	-1.72311e-06
2111.21	-1.67047e-06
2119.89	-1.11247e-06
2128.57	-1.07574e-06
2137.24	-8.89474e-07
2145.92	-1.25271e-06
2154.6	-1.5473e-06
2163.28	-2.09258e-06
2171.96	-1.6595e-06
2180.64	-1.86809e-06
2189.31	-2.21214e-06
2197.99	-2.80654e-06
2206.67	-5.28066e-06
2215.35	-7.26208e-06
2224.03	-6.96159e-06
2232.7	-9.18917e-06
2241.38	-8.94336e-06
2250.06	-7.74679e-06
2258.74	-3.66372e-06
2267.42	-2.54452e-06
2276.1	-2.89636e-06
2284.77	-2.54367e-06
2293.45	-3.08209e-06
2302.13	-2.14898e-06
2310.81	-2.84015e-06
2319.49	-3.29925e-06
2328.16	-2.38203e-06
2336.84	3.44071e-06
2345.52	1.3081e-05
2354.2	1.32211e-05
2362.88	-1.07771e-06
2371.56	-2.76639e-06
2380.23	-1.37155e-06
2388.91	-1.75561e-06
2397.59	-1.95903e-06
2406.27	-2.22822e-06
2414.95	-1.82838e-06
2423.62	-1.75898e-06
2432.3	-9.3739e-07
2440.98	-1.0823e-07
2449.66	2.26248e-06
2458.34	6.00817e-06
2467.02	7.31064e-06
2475.69	3.42583e-06
2484.37	-2.23927e-06
2493.05	-4.4865e-06
2501.73	-7.84002e-06
2510.41	-1.02457e-05
2519.08	-6.47036e-06
2527.76	-1.07379e-06
2536.44	1.76329e-07
2545.12	-1.80047e-06
2553.8	-1.24514e-06
2562.48	-1.1606e-06
2571.15	-9.37506e-07
2579.83	-1.30002e-06
2588.51	-1.56077e-06
2597.19	-1.87869e-06
2605.87	-2.42415e-06
2614.54	-2.45964e-06
2623.22	-2.53496e-06
2631.9	-2.30387e-06
2640.58	-1.49305e-06
2649.26	1.76795e-06
2657.94	8.86227e-06
2666.61	1.21669e-05
2675.29	4.46803e-06
2683.97	-1.69406e-06
2692.65	-2.45117e-06
2701.33	-2.45761e-06
2710	-2.25686e-06
2718.68	-2.0529e-06
2727.36	-1.99582e-06
2736.04	-1.60367e-06
2744.72	-2.28701e-06
2753.4	-2.28961e-06
2762.07	-2.12072e-06
2770.75	-2.31828e-06
2779.43	-2.48709e-06
2788.11	-2.24737e-06
2796.79	-2.3702e-06
2805.46	-2.37539e-06
2814.14	-2.55409e-06
2822.82	-2.17648e-06
2831.5	-2.97392e-06
2840.18	-2.72369e-06
2848.86	-1.96967e-06
2857.53	-1.88916e-06
2866.21	-2.87272e-06
2874.89	-2.6408e-06
2883.57	-2.29405e-06
2892.25	-2.30569e-06
2900.92	-2.49608e-06
2909.6	-2.79849e-06
2918.28	-2.88916e-06
2926.96	-2.73163e-06
2935.64	-2.46133e-06
2944.32	-2.64029e-06
2952.99	-2.22521e-06
2961.67	-2.1429e-06
2970.35	-2.46164e-06
2979.03	-2.29328e-06
2987.71	-2.93792e-06
2996.38	-2.5727e-06
3005.06	-2.24595e-06
3013.74	-2.01416e-06
3022.42	-2.32845e-06
3031.1	-2.29552e-06
3039.78	-2.56089e-06
3048.45	-3.39549e-06
3057.13	-2.58277e-06
3065.81	-2.52215e-06
3074.49	-2.29092e-06
3083.17	-2.22198e-06
3091.84	-2.3617e-06
3100.52	-2.20989e-06
3109.2	-2.1914e-06
3117.88	-2.0595e-06
3126.56	-1.9715e-06
3135.24	-1.97994e-06
3143.91	-2.07512e-06
3152.59	-2.09789e-06
3161.27	-2.21794e-06
3169.95	-2.00431e-06
3178.63	-3.02448e-06
3187.3	-2.88514e-06
3195.98	-2.58506e-06
3204.66	-2.91727e-06
3213.34	-2.53014e-06
3222.02	-2.17526e-06
3230.7	-1.95239e-06
3239.37	-2.30239e-06
3248.05	-1.98161e-06
3256.73	-2.85966e-06
3265.41	-2.04274e-06
3274.09	-2.19189e-06
3282.76	-2.67866e-06
3291.44	-1.99547e-06
3300.12	-2.62941e-06
3308.8	-2.83443e-06
3317.48	-2.88506e-06
3326.16	-2.46849e-06
3334.83	-2.33458e-06
3343.51	-2.10252e-06
3352.19	-3.85628e-06
3360.87	-2.10313e-06
3369.55	-3.1595e-06
3378.22	-3.51465e-06
3386.9	-3.20938e-06
3395.58	-3.04961e-06
3404.26	-2.97169e-06
3412.94	-2.89539e-06
3421.62	-3.03141e-06
3430.29	-3.08829e-06
3438.97	-3.06025e-06
3447.65	-3.11957e-06
3456.33	-2.57241e-06
3465.01	-2.83567e-06
3473.68	-2.72395e-06
3482.36	-3.15809e-06
3491.04	-2.62928e-06
3499.72	-3.12301e-06
3508.4	-3.21427e-06
3517.08	-2.38571e-06
3525.75	-2.70414e-06
3534.43	-3.05543e-06
3543.11	-2.79605e-06
3551.79	-2.95892e-06
3560.47	-3.47911e-06
3569.14	-3.12292e-06
3577.82	-3.38594e-06
3586.5	-3.54711e-06
3595.18	-3.5293e-06
3603.86	-3.21042e-06
3612.54	-2.8201e-06
3621.21	-2.97668e-06
3629.89	-3.13078e-06
3638.57	-2.89655e-06
3647.25	-2.87989e-06
3655.93	-2.7842e-06
3664.6	-2.82658e-06
3673.28	-2.7957e-06
3681.96	-2.4097e-06
3690.64	-2.95339e-06
3699.32	-2.86246e-06
3708	-3.38129e-06
3716.67	-3.4134e-06
3725.35	-4.32144e-06
3734.03	-4.27932e-06
3742.71	-4.53354e-06
3751.39	-4.83819e-06
3760.06	-4.38726e-06
3768.74	-4.34347e-06
3777.42	-4.24479e-06
3786.1	-3.74994e-06
3794.78	-3.24006e-06
3803.46	-3.28791e-06
3812.13	-2.82687e-06
3820.81	-3.41601e-06
3829.49	-2.43291e-06
3838.17	-4.1614e-06
3846.85	-3.16695e-06
3855.53	-3.49832e-06
3864.2	-3.32582e-06
3872.88	-2.74091e-06
3881.56	-3.37372e-06
3890.24	-3.3057e-06
3898.92	-3.08743e-06
3907.59	-2.52391e-06
3916.27	-3.16174e-06
3924.95	-3.39846e-06
3933.63	-2.83861e-06
3942.31	-3.76034e-06
3950.99	-2.88877e-06
3959.66	-2.72267e-06
3968.34	-3.39469e-06
