Infrared Spectrum: Hexafluoroethane
Formula: C2 F6
CAS: 76-16-4
State: gas
Melting point: -94 C
Boiling point: -79 C
Class: IUPAC A
Instrument: IFS66V (Bruker)
Instrument parameters: KBr Beam Splitter; MCT Detector; Multipass cell
Sampling: 1 L/min Flow
Resolution: 1.9290
Temperature: 23 C
Pressure: 101.3 Pa
Origin: NIST, Analytical Chemistry Division, 301-975-3108
cm-1	(micromol/mol)-1m-1 (base 10)
575.653	1.00192e-06
584.331	-1.02241e-06
593.009	-2.65911e-06
601.688	1.65692e-07
610.366	6.28414e-07
619.044	-2.88401e-08
627.722	-2.17654e-07
636.4	-9.82163e-07
645.078	-1.03459e-06
653.757	-6.11317e-07
662.435	-2.00313e-06
671.113	3.6427e-07
679.791	-1.3621e-06
688.469	-4.53438e-07
697.148	1.6936e-05
705.826	0.000227437
714.504	0.00059474
723.182	0.000235168
731.86	1.75882e-05
740.539	2.46087e-07
749.217	-5.36204e-07
757.895	-1.58276e-06
766.573	-5.17594e-07
775.251	-4.6505e-07
783.929	-3.34018e-07
792.608	-1.23531e-06
801.286	-1.20418e-06
809.964	-1.05876e-06
818.642	-1.17406e-06
827.32	-6.93879e-07
835.999	-7.95372e-07
844.677	-1.41201e-06
853.355	-1.30064e-06
862.033	-1.35885e-06
870.711	-6.16555e-07
879.389	-9.13686e-07
888.068	3.00202e-07
896.746	7.60683e-07
905.424	1.11181e-06
914.102	-4.77637e-07
922.78	-1.05918e-06
931.459	-1.16615e-06
940.137	-9.08681e-07
948.815	-1.24605e-06
957.493	-1.27734e-06
966.171	-1.608e-06
974.85	-1.50273e-06
983.528	-1.08645e-06
992.206	-4.64599e-07
1000.88	1.30202e-07
1009.56	9.6479e-07
1018.24	2.42763e-06
1026.92	4.80657e-06
1035.6	2.57588e-06
1044.28	-2.93828e-07
1052.95	-1.53164e-07
1061.63	2.40826e-06
1070.31	1.10969e-06
1078.99	5.20053e-08
1087.67	1.10634e-05
1096.34	0.000100485
1105.02	0.0011328
1113.7	0.00237008
1122.38	0.00242992
1131.06	0.000174423
1139.74	0.000136334
1148.41	0.000101318
1157.09	6.25302e-06
1165.77	1.2709e-06
1174.45	3.62215e-06
1183.13	7.05121e-06
1191.8	2.20503e-05
1200.48	6.97064e-05
1209.16	6.15295e-05
1217.84	2.26953e-05
1226.52	6.07801e-05
1235.2	0.000816965
1243.87	0.00694545
1252.55	0.0113749
1261.23	0.00151348
1269.91	6.40627e-05
1278.59	1.27744e-05
1287.26	1.04868e-05
1295.94	1.44567e-05
1304.62	3.66912e-05
1313.3	7.61365e-05
1321.98	0.000124354
1330.66	0.00013479
1339.33	9.07149e-05
1348.01	4.07858e-05
1356.69	9.97905e-06
1365.37	8.42023e-07
1374.05	-1.6885e-07
1382.72	-9.82949e-07
1391.4	-7.08299e-07
1400.08	-1.23264e-06
1408.76	-1.12584e-06
1417.44	-1.38443e-06
1426.12	-1.48039e-06
1434.79	3.04699e-06
1443.47	6.16356e-06
1452.15	7.83139e-06
1460.83	6.0719e-06
1469.51	3.82499e-06
1478.18	2.99314e-07
1486.86	-8.95745e-07
1495.54	-1.16054e-06
1504.22	-1.60723e-06
1512.9	-8.97069e-07
1521.58	-1.78096e-06
1530.25	-1.32193e-06
1538.93	-2.44928e-06
1547.61	-1.38467e-06
1556.29	-1.3354e-06
1564.97	-1.43789e-06
1573.64	-1.24274e-06
1582.32	-1.24536e-06
1591	1.79658e-06
1599.68	7.4602e-06
1608.36	3.74429e-06
1617.04	6.42098e-06
1625.71	1.25321e-05
1634.39	1.40241e-05
1643.07	7.29357e-06
1651.75	-4.2569e-07
1660.43	-1.38806e-06
1669.1	-1.95704e-06
1677.78	-1.27806e-06
1686.46	-8.85516e-07
1695.14	-1.23262e-06
1703.82	1.18736e-08
1712.5	2.22505e-06
1721.17	6.23714e-06
1729.85	1.01442e-05
1738.53	8.26683e-06
1747.21	3.7312e-06
1755.89	3.82662e-07
1764.56	-8.35635e-07
1773.24	-1.34294e-06
1781.92	-1.55348e-06
1790.6	-1.88961e-06
1799.28	-2.20419e-06
1807.96	-1.67246e-06
1816.63	-1.88438e-06
1825.31	-1.60364e-06
1833.99	-1.1866e-06
1842.67	-8.20371e-07
1851.35	1.80677e-06
1860.02	6.5501e-06
1868.7	9.71643e-06
1877.38	4.97931e-06
1886.06	-5.49213e-07
1894.74	-1.92163e-06
1903.42	-1.92647e-06
1912.09	-7.43178e-07
1920.77	8.72289e-07
1929.45	2.22128e-06
1938.13	2.82917e-06
1946.81	2.81312e-06
1955.48	2.55804e-06
1964.16	5.89985e-07
1972.84	-1.1387e-06
1981.52	-1.82245e-06
1990.2	-1.71063e-06
1998.88	-1.76412e-06
2007.55	-1.64834e-06
2016.23	-1.72313e-06
2024.91	-1.89643e-06
2033.59	-1.4898e-06
2042.27	3.23719e-06
2050.94	2.20451e-05
2059.62	1.37009e-05
2068.3	-9.19871e-07
2076.98	-1.89806e-06
2085.66	-2.00683e-06
2094.34	-1.8735e-06
2103.01	-1.5964e-06
2111.69	-1.55569e-06
2120.37	-1.24651e-06
2129.05	-1.04121e-06
2137.73	-9.26331e-07
2146.4	-1.44214e-06
2155.08	-1.6791e-06
2163.76	-1.94935e-06
2172.44	-1.51444e-06
2181.12	-1.99554e-06
2189.8	-2.05574e-06
2198.47	-2.99943e-06
2207.15	-5.41233e-06
2215.83	-7.38546e-06
2224.51	-7.13625e-06
2233.19	-6.88297e-06
2241.86	-8.74572e-06
2250.54	-7.74978e-06
2259.22	-3.43948e-06
2267.9	-2.51021e-06
2276.58	-3.05308e-06
2285.26	-2.6815e-06
2293.93	-3.0402e-06
2302.61	-2.25997e-06
2311.29	-2.66195e-06
2319.97	-2.79395e-06
2328.65	-2.73191e-06
2337.32	2.74919e-06
2346	1.39311e-05
2354.68	1.28247e-05
2363.36	-5.91949e-07
2372.04	-2.57275e-06
2380.72	-1.26859e-06
2389.39	-1.90432e-06
2398.07	-1.92034e-06
2406.75	-2.17484e-06
2415.43	-1.95049e-06
2424.11	-1.54916e-06
2432.78	-8.94625e-07
2441.46	-1.00256e-07
2450.14	2.38993e-06
2458.82	6.13677e-06
2467.5	7.08268e-06
2476.18	2.73038e-06
2484.85	-2.44832e-06
2493.53	-4.72468e-06
2502.21	-8.09363e-06
2510.89	-1.02332e-05
2519.57	-6.02257e-06
2528.24	-7.81942e-07
2536.92	2.34955e-07
2545.6	-1.48976e-06
2554.28	-1.2908e-06
2562.96	-1.08353e-06
2571.64	-9.44316e-07
2580.31	-1.37229e-06
2588.99	-1.75559e-06
2597.67	-1.81451e-06
2606.35	-2.48198e-06
2615.03	-2.60489e-06
2623.7	-2.36586e-06
2632.38	-2.49643e-06
2641.06	-1.13309e-06
2649.74	1.99582e-06
2658.42	9.40856e-06
2667.1	1.17927e-05
2675.77	4.34459e-06
2684.45	-1.87986e-06
2693.13	-2.40864e-06
2701.81	-2.5017e-06
2710.49	-2.14712e-06
2719.16	-1.97665e-06
2727.84	-2.0109e-06
2736.52	-1.8774e-06
2745.2	-2.10329e-06
2753.88	-2.26866e-06
2762.56	-2.17606e-06
2771.23	-2.28628e-06
2779.91	-2.40812e-06
2788.59	-2.4152e-06
2797.27	-2.4622e-06
2805.95	-2.32816e-06
2814.62	-2.62964e-06
2823.3	-2.12058e-06
2831.98	-2.62258e-06
2840.66	-2.73079e-06
2849.34	-2.3325e-06
2858.02	-1.91103e-06
2866.69	-2.74362e-06
2875.37	-2.45733e-06
2884.05	-2.45531e-06
2892.73	-2.38427e-06
2901.41	-2.38957e-06
2910.08	-2.57908e-06
2918.76	-2.80542e-06
2927.44	-2.75196e-06
2936.12	-2.46424e-06
2944.8	-2.79797e-06
2953.48	-2.38318e-06
2962.15	-2.01431e-06
2970.83	-2.42865e-06
2979.51	-2.44706e-06
2988.19	-2.87472e-06
2996.87	-2.54801e-06
3005.54	-2.11943e-06
3014.22	-2.05905e-06
3022.9	-2.37045e-06
3031.58	-2.45633e-06
3040.26	-2.86534e-06
3048.94	-2.94991e-06
3057.61	-2.56831e-06
3066.29	-2.5602e-06
3074.97	-2.2913e-06
3083.65	-2.2362e-06
3092.33	-2.31665e-06
3101	-2.12941e-06
3109.68	-2.21449e-06
3118.36	-1.98826e-06
3127.04	-1.99499e-06
3135.72	-1.86816e-06
3144.4	-1.93866e-06
3153.07	-2.30265e-06
3161.75	-2.08363e-06
3170.43	-2.25869e-06
3179.11	-2.89005e-06
3187.79	-2.78906e-06
3196.47	-2.38712e-06
3205.14	-2.87774e-06
3213.82	-2.58657e-06
3222.5	-2.38305e-06
3231.18	-1.99574e-06
3239.86	-2.18661e-06
3248.53	-2.10485e-06
3257.21	-2.65713e-06
3265.89	-2.14651e-06
3274.57	-1.98413e-06
3283.25	-2.73288e-06
3291.93	-2.1131e-06
3300.6	-2.46526e-06
3309.28	-2.54814e-06
3317.96	-2.54544e-06
3326.64	-2.64537e-06
3335.32	-2.49959e-06
3343.99	-2.16078e-06
3352.67	-3.7704e-06
3361.35	-2.30607e-06
3370.03	-3.22906e-06
3378.71	-3.18871e-06
3387.39	-3.27361e-06
3396.06	-2.87862e-06
3404.74	-2.86918e-06
3413.42	-2.91314e-06
3422.1	-2.6005e-06
3430.78	-3.08794e-06
3439.45	-3.01436e-06
3448.13	-2.9041e-06
3456.81	-2.94665e-06
3465.49	-3.00213e-06
3474.17	-2.75919e-06
3482.85	-3.037e-06
3491.52	-2.7574e-06
3500.2	-2.97143e-06
3508.88	-3.07978e-06
3517.56	-2.36022e-06
3526.24	-2.78746e-06
3534.91	-2.70142e-06
3543.59	-3.12237e-06
3552.27	-3.02803e-06
3560.95	-3.14987e-06
3569.63	-3.00552e-06
3578.31	-3.10834e-06
3586.98	-3.54333e-06
3595.66	-3.23598e-06
3604.34	-3.29394e-06
3613.02	-2.71373e-06
3621.7	-3.1584e-06
3630.37	-2.92642e-06
3639.05	-3.16208e-06
3647.73	-2.81835e-06
3656.41	-2.98896e-06
3665.09	-2.57724e-06
3673.77	-2.63714e-06
3682.44	-2.28858e-06
3691.12	-3.045e-06
3699.8	-2.75477e-06
3708.48	-3.52425e-06
3717.16	-3.39633e-06
3725.83	-4.12873e-06
3734.51	-4.3598e-06
3743.19	-4.79895e-06
3751.87	-5.03892e-06
3760.55	-4.19524e-06
3769.23	-4.06229e-06
3777.9	-4.01925e-06
3786.58	-3.67915e-06
3795.26	-3.22044e-06
3803.94	-3.17095e-06
3812.62	-2.66416e-06
3821.29	-3.53239e-06
3829.97	-2.73275e-06
3838.65	-3.73159e-06
3847.33	-3.2313e-06
3856.01	-3.40976e-06
3864.69	-3.43012e-06
3873.36	-2.73928e-06
3882.04	-3.21804e-06
3890.72	-3.84298e-06
3899.4	-3.07831e-06
3908.08	-2.72732e-06
3916.75	-3.2328e-06
3925.43	-3.00157e-06
3934.11	-2.91363e-06
3942.79	-3.60417e-06
3951.47	-3.27332e-06
3960.15	-3.19524e-06
3968.82	-3.46979e-06
