Infrared Spectrum: Hexafluoroethane
Formula: C2 F6
CAS: 76-16-4
State: gas
Melting point: -94 C
Boiling point: -79 C
Class: IUPAC A
Instrument: IFS66V (Bruker)
Instrument parameters: KBr Beam Splitter; MCT Detector; Multipass cell
Sampling: 1 L/min Flow
Resolution: 0.4820
Temperature: 23 C
Pressure: 101.3 Pa
Origin: NIST, Analytical Chemistry Division, 301-975-3108
cm-1	(micromol/mol)-1m-1 (base 10)
575.171	2.27761e-06
583.849	-2.2096e-06
592.527	6.53194e-08
601.206	3.60763e-07
609.884	-1.92277e-07
618.562	-3.04826e-06
627.24	-7.70039e-08
635.918	-3.52264e-06
644.596	-1.56901e-06
653.275	-8.71168e-07
661.953	-2.47563e-06
670.631	-1.3464e-07
679.309	-1.32445e-06
687.987	-6.85381e-07
696.666	1.3084e-05
705.344	0.000217695
714.022	0.00101182
722.7	0.00025106
731.378	2.01606e-05
740.057	3.17066e-07
748.735	-1.998e-06
757.413	-1.17207e-06
766.091	-1.99721e-06
774.769	5.38954e-07
783.447	-9.92786e-07
792.126	-1.36158e-06
800.804	-1.67195e-06
809.482	-2.48604e-07
818.16	-3.16979e-07
826.838	-1.0852e-06
835.517	-2.62602e-07
844.195	-1.46243e-06
852.873	-1.25386e-06
861.551	-1.84707e-06
870.229	-1.69112e-07
878.907	-9.00474e-07
887.586	5.9969e-07
896.264	4.54239e-07
904.942	1.48337e-06
913.62	-6.34002e-07
922.298	-1.08009e-06
930.977	-1.38998e-06
939.655	-9.54982e-07
948.333	-1.39979e-06
957.011	-9.95187e-07
965.689	-9.94153e-07
974.368	-1.75914e-06
983.046	-5.10987e-07
991.724	-5.42738e-07
1000.4	3.28285e-07
1009.08	8.09312e-07
1017.76	2.73643e-06
1026.44	4.77193e-06
1035.11	3.61629e-06
1043.79	-6.9353e-07
1052.47	-3.42487e-07
1061.15	1.58286e-06
1069.83	1.22583e-06
1078.51	-2.93072e-07
1087.18	9.30499e-06
1095.86	8.53091e-05
1104.54	0.00103131
1113.22	0.0019115
1121.9	0.00243903
1130.57	0.000200457
1139.25	0.000170042
1147.93	0.000109474
1156.61	6.85956e-06
1165.29	1.82116e-06
1173.97	3.69134e-06
1182.64	7.10899e-06
1191.32	2.00156e-05
1200	6.70144e-05
1208.68	6.8089e-05
1217.36	2.30995e-05
1226.03	5.3129e-05
1234.71	0.000695537
1243.39	0.00631448
1252.07	0.0119533
1260.75	0.00173117
1269.43	7.39609e-05
1278.1	1.32209e-05
1286.78	1.04711e-05
1295.46	1.40867e-05
1304.14	3.49613e-05
1312.82	7.32885e-05
1321.49	0.000122647
1330.17	0.000136027
1338.85	9.31207e-05
1347.53	4.2897e-05
1356.21	1.07256e-05
1364.89	1.23698e-06
1373.56	-3.43593e-07
1382.24	-9.49278e-07
1390.92	-1.06001e-06
1399.6	-4.9584e-07
1408.28	-1.20798e-06
1416.95	-1.05051e-06
1425.63	-9.77667e-07
1434.31	2.73828e-06
1442.99	6.11663e-06
1451.67	7.38698e-06
1460.35	6.35484e-06
1469.02	4.2249e-06
1477.7	3.52745e-07
1486.38	-9.01915e-07
1495.06	-1.2685e-06
1503.74	-1.26687e-06
1512.41	-1.06438e-06
1521.09	-2.17194e-06
1529.77	-1.15989e-06
1538.45	-1.7943e-06
1547.13	-1.21284e-06
1555.81	-1.07925e-06
1564.48	-1.42721e-06
1573.16	-1.30525e-06
1581.84	-1.14222e-06
1590.52	1.71834e-06
1599.2	7.81796e-06
1607.88	3.85401e-06
1616.55	5.24943e-06
1625.23	1.22913e-05
1633.91	1.48016e-05
1642.59	7.86196e-06
1651.27	4.37389e-07
1659.94	-1.25789e-06
1668.62	-2.15561e-06
1677.3	-1.23072e-06
1685.98	-1.09992e-06
1694.66	-9.29285e-07
1703.34	1.3595e-07
1712.01	2.0763e-06
1720.69	5.72138e-06
1729.37	9.86232e-06
1738.05	8.47781e-06
1746.73	4.2672e-06
1755.4	4.69561e-07
1764.08	-7.73618e-07
1772.76	-2.04634e-06
1781.44	-1.30512e-06
1790.12	-1.83181e-06
1798.8	-1.82029e-06
1807.47	-1.60582e-06
1816.15	-1.96137e-06
1824.83	-1.69638e-06
1833.51	-1.1042e-06
1842.19	-9.60162e-07
1850.86	1.33687e-06
1859.54	6.38306e-06
1868.22	1.01823e-05
1876.9	5.12915e-06
1885.58	-3.98479e-07
1894.26	-2.02698e-06
1902.93	-1.76552e-06
1911.61	-1.02822e-06
1920.29	8.14783e-07
1928.97	2.32084e-06
1937.65	2.8168e-06
1946.32	2.79328e-06
1955	2.67114e-06
1963.68	5.18394e-07
1972.36	-1.10151e-06
1981.04	-1.55282e-06
1989.72	-1.87089e-06
1998.39	-1.84368e-06
2007.07	-1.57488e-06
2015.75	-1.76093e-06
2024.43	-1.82459e-06
2033.11	-1.44644e-06
2041.78	2.60185e-06
2050.46	2.09787e-05
2059.14	1.55832e-05
2067.82	-1.15939e-06
2076.5	-1.8905e-06
2085.18	-1.99855e-06
2093.85	-2.37002e-06
2102.53	-1.82251e-06
2111.21	-1.67224e-06
2119.89	-1.19247e-06
2128.57	-1.27452e-06
2137.24	-7.64451e-07
2145.92	-1.33331e-06
2154.6	-1.3667e-06
2163.28	-2.09351e-06
2171.96	-1.69077e-06
2180.64	-2.08276e-06
2189.31	-2.36221e-06
2197.99	-2.64927e-06
2206.67	-5.30356e-06
2215.35	-7.20197e-06
2224.03	-6.96996e-06
2232.7	-9.62854e-06
2241.38	-8.91527e-06
2250.06	-7.52335e-06
2258.74	-3.61937e-06
2267.42	-2.59245e-06
2276.1	-2.78235e-06
2284.77	-2.55868e-06
2293.45	-3.138e-06
2302.13	-2.03649e-06
2310.81	-2.92647e-06
2319.49	-3.53562e-06
2328.16	-1.08598e-06
2336.84	5.06349e-06
2345.52	1.36213e-05
2354.2	1.25624e-05
2362.88	-4.42477e-06
2371.56	-4.00793e-06
2380.23	-1.35112e-06
2388.91	-1.66797e-06
2397.59	-2.13262e-06
2406.27	-2.19393e-06
2414.95	-1.8016e-06
2423.62	-1.70148e-06
2432.3	-9.24265e-07
2440.98	1.14953e-09
2449.66	2.24614e-06
2458.34	6.01256e-06
2467.02	7.60694e-06
2475.69	3.52086e-06
2484.37	-2.23262e-06
2493.05	-4.31744e-06
2501.73	-7.9251e-06
2510.41	-1.04127e-05
2519.08	-6.40349e-06
2527.76	-1.16881e-06
2536.44	1.36692e-07
2545.12	-1.955e-06
2553.8	-1.17528e-06
2562.48	-1.12292e-06
2571.15	-8.91307e-07
2579.83	-1.31628e-06
2588.51	-1.53004e-06
2597.19	-2.03129e-06
2605.87	-2.34761e-06
2614.54	-2.39297e-06
2623.22	-2.5884e-06
2631.9	-2.21182e-06
2640.58	-1.38256e-06
2649.26	1.82264e-06
2657.94	8.61584e-06
2666.61	1.22521e-05
2675.29	4.3083e-06
2683.97	-2.00117e-06
2692.65	-2.31212e-06
2701.33	-2.33286e-06
2710	-2.35431e-06
2718.68	-2.11839e-06
2727.36	-2.1586e-06
2736.04	-1.5838e-06
2744.72	-2.43399e-06
2753.4	-2.2973e-06
2762.07	-2.08005e-06
2770.75	-2.1807e-06
2779.43	-2.41145e-06
2788.11	-2.09809e-06
2796.79	-2.26504e-06
2805.46	-2.3717e-06
2814.14	-2.5554e-06
2822.82	-2.02099e-06
2831.5	-3.16762e-06
2840.18	-2.72668e-06
2848.86	-1.81722e-06
2857.53	-1.59927e-06
2866.21	-2.96117e-06
2874.89	-2.97677e-06
2883.57	-2.06032e-06
2892.25	-2.52749e-06
2900.92	-2.39619e-06
2909.6	-3.0863e-06
2918.28	-2.76281e-06
2926.96	-2.73685e-06
2935.64	-2.50546e-06
2944.32	-2.70497e-06
2952.99	-2.31357e-06
2961.67	-2.09511e-06
2970.35	-2.79644e-06
2979.03	-2.1057e-06
2987.71	-3.02488e-06
2996.38	-2.56034e-06
3005.06	-2.19083e-06
3013.74	-2.12199e-06
3022.42	-2.39237e-06
3031.1	-2.22092e-06
3039.78	-2.45576e-06
3048.45	-3.80024e-06
3057.13	-2.45938e-06
3065.81	-2.30016e-06
3074.49	-2.58602e-06
3083.17	-1.98238e-06
3091.84	-2.40969e-06
3100.52	-2.00175e-06
3109.2	-2.10221e-06
3117.88	-1.97648e-06
3126.56	-1.97333e-06
3135.24	-2.24333e-06
3143.91	-1.73636e-06
3152.59	-2.08948e-06
3161.27	-2.3173e-06
3169.95	-1.69663e-06
3178.63	-2.87382e-06
3187.3	-3.2003e-06
3195.98	-2.7825e-06
3204.66	-2.99791e-06
3213.34	-2.84631e-06
3222.02	-1.90311e-06
3230.7	-1.92639e-06
3239.37	-2.22977e-06
3248.05	-2.33851e-06
3256.73	-2.90915e-06
3265.41	-1.91446e-06
3274.09	-2.64006e-06
3282.76	-2.49985e-06
3291.44	-2.02854e-06
3300.12	-2.83583e-06
3308.8	-3.03141e-06
3317.48	-2.85056e-06
3326.16	-2.19497e-06
3334.83	-1.68132e-06
3343.51	-1.75622e-06
3352.19	-3.99942e-06
3360.87	-2.11257e-06
3369.55	-3.14162e-06
3378.22	-3.62708e-06
3386.9	-3.05904e-06
3395.58	-3.34138e-06
3404.26	-2.91369e-06
3412.94	-2.29686e-06
3421.62	-2.81419e-06
3430.29	-2.91893e-06
3438.97	-3.23779e-06
3447.65	-3.07477e-06
3456.33	-2.2734e-06
3465.01	-2.69026e-06
3473.68	-2.66731e-06
3482.36	-3.43081e-06
3491.04	-2.74663e-06
3499.72	-3.23012e-06
3508.4	-2.98405e-06
3517.08	-2.1321e-06
3525.75	-2.87574e-06
3534.43	-3.36591e-06
3543.11	-2.74838e-06
3551.79	-2.87384e-06
3560.47	-3.67535e-06
3569.14	-3.13027e-06
3577.82	-3.70135e-06
3586.5	-3.6779e-06
3595.18	-3.67103e-06
3603.86	-3.1555e-06
3612.54	-2.94367e-06
3621.21	-2.69137e-06
3629.89	-3.12976e-06
3638.57	-2.83379e-06
3647.25	-2.85662e-06
3655.93	-2.21063e-06
3664.6	-3.12737e-06
3673.28	-3.17995e-06
3681.96	-2.34369e-06
3690.64	-3.03278e-06
3699.32	-3.10066e-06
3708	-3.10974e-06
3716.67	-3.1439e-06
3725.35	-4.0582e-06
3734.03	-4.05608e-06
3742.71	-4.42304e-06
3751.39	-4.51852e-06
3760.06	-4.70495e-06
3768.74	-4.77033e-06
3777.42	-4.37522e-06
3786.1	-3.63675e-06
3794.78	-2.9974e-06
3803.46	-3.12503e-06
3812.13	-2.65071e-06
3820.81	-3.41253e-06
3829.49	-2.16838e-06
3838.17	-4.28895e-06
3846.85	-3.2839e-06
3855.52	-3.36988e-06
3864.2	-3.54547e-06
3872.88	-2.7308e-06
3881.56	-3.04634e-06
3890.24	-3.15867e-06
3898.92	-3.23547e-06
3907.59	-2.34009e-06
3916.27	-3.13397e-06
3924.95	-3.37978e-06
3933.63	-2.7888e-06
3942.31	-4.2484e-06
3950.98	-2.82557e-06
3959.66	-2.65217e-06
3968.34	-3.61278e-06
