Infrared Spectrum: Hexafluoroethane
Formula: C2 F6
CAS: 76-16-4
State: gas
Melting point: -94 C
Boiling point: -79 C
Class: IUPAC A
Instrument: IFS66V (Bruker)
Instrument parameters: KBr Beam Splitter; MCT Detector; Multipass cell
Sampling: 1 L/min Flow
Resolution: 1.9290
Temperature: 23 C
Pressure: 101.3 Pa
Origin: NIST, Analytical Chemistry Division, 301-975-3108
cm-1	(micromol/mol)-1m-1 (base 10)
575.653	1.24468e-06
584.331	-7.39016e-07
593.009	-2.11212e-06
601.688	1.89483e-07
610.366	7.47645e-07
619.044	-2.5537e-08
627.722	3.10227e-08
636.4	-8.00407e-07
645.078	-7.02886e-07
653.757	-4.60917e-07
662.435	-1.47735e-06
671.113	4.31117e-07
679.791	-3.72971e-07
688.469	7.07877e-07
697.148	2.11916e-05
705.826	0.000218997
714.504	0.000556419
723.182	0.000228654
731.86	2.08288e-05
740.539	2.01885e-06
749.217	-3.36128e-09
757.895	-8.08468e-07
766.573	-2.91078e-07
775.251	-6.00956e-09
783.929	-1.82077e-07
792.608	-8.28068e-07
801.286	-1.09568e-06
809.964	-7.3631e-07
818.642	-1.03103e-06
827.32	-3.64648e-07
835.999	-6.26697e-07
844.677	-1.05026e-06
853.355	-1.14633e-06
862.033	-1.00489e-06
870.711	-4.69255e-07
879.389	-5.64375e-07
888.068	4.75672e-07
896.746	1.09458e-06
905.424	1.25018e-06
914.102	-8.84264e-08
922.78	-8.24969e-07
931.459	-7.25091e-07
940.137	-6.44973e-07
948.815	-7.36455e-07
957.493	-9.34363e-07
966.171	-1.00956e-06
974.85	-1.0523e-06
983.528	-4.07952e-07
992.206	6.40244e-08
1000.88	9.17993e-07
1009.56	1.65317e-06
1018.24	3.44115e-06
1026.92	5.59333e-06
1035.6	3.8645e-06
1044.28	1.09623e-06
1052.95	1.83788e-06
1061.63	4.46639e-06
1070.31	4.49897e-06
1078.99	4.85768e-06
1087.67	2.04667e-05
1096.34	0.000121753
1105.02	0.00112111
1113.7	0.00231063
1122.38	0.0023243
1131.06	0.000217395
1139.74	0.000143457
1148.41	0.000105626
1157.09	1.27053e-05
1165.77	6.86561e-06
1174.45	8.42774e-06
1183.13	1.29873e-05
1191.8	2.86439e-05
1200.48	7.67463e-05
1209.16	7.25531e-05
1217.84	4.40005e-05
1226.52	0.000104236
1235.2	0.000913784
1243.87	0.00685234
1252.55	0.0109726
1261.23	0.00163919
1269.91	0.000121698
1278.59	3.7492e-05
1287.26	2.4178e-05
1295.94	2.39342e-05
1304.62	4.3052e-05
1313.3	8.04003e-05
1321.98	0.000126002
1330.66	0.000135402
1339.33	9.21462e-05
1348.01	4.30411e-05
1356.69	1.22432e-05
1365.37	2.79497e-06
1374.05	1.32213e-06
1382.72	3.58784e-07
1391.4	3.60617e-07
1400.08	-2.25002e-07
1408.76	-2.82668e-07
1417.44	-5.52865e-07
1426.12	-6.48858e-07
1434.79	3.66323e-06
1443.47	6.62971e-06
1452.15	8.17612e-06
1460.83	6.44276e-06
1469.51	4.20962e-06
1478.18	7.45841e-07
1486.86	-4.68557e-07
1495.54	-7.89901e-07
1504.22	-1.22402e-06
1512.9	-6.34133e-07
1521.58	-1.4129e-06
1530.25	-1.06032e-06
1538.93	-2.09169e-06
1547.61	-1.16962e-06
1556.29	-1.07874e-06
1564.97	-1.22025e-06
1573.64	-1.00913e-06
1582.32	-9.55448e-07
1591	2.06748e-06
1599.68	7.43272e-06
1608.36	4.06856e-06
1617.04	6.63233e-06
1625.71	1.2496e-05
1634.39	1.383e-05
1643.07	7.30546e-06
1651.75	-1.06106e-07
1660.43	-1.17578e-06
1669.1	-1.77065e-06
1677.78	-1.13198e-06
1686.46	-7.49318e-07
1695.14	-1.01898e-06
1703.82	1.60337e-07
1712.5	2.35667e-06
1721.17	6.24289e-06
1729.85	1.00095e-05
1738.53	8.21893e-06
1747.21	3.83732e-06
1755.89	5.3536e-07
1764.56	-7.0066e-07
1773.24	-1.22847e-06
1781.92	-1.43927e-06
1790.6	-1.81205e-06
1799.28	-2.06933e-06
1807.96	-1.60003e-06
1816.63	-1.76066e-06
1825.31	-1.51211e-06
1833.99	-1.06388e-06
1842.67	-6.83475e-07
1851.35	1.9094e-06
1860.02	6.48643e-06
1868.7	9.46751e-06
1877.38	4.92233e-06
1886.06	-3.90592e-07
1894.74	-1.78875e-06
1903.42	-1.78557e-06
1912.09	-6.692e-07
1920.77	8.78357e-07
1929.45	2.17471e-06
1938.13	2.80083e-06
1946.81	2.79584e-06
1955.48	2.57384e-06
1964.16	6.73813e-07
1972.84	-1.04367e-06
1981.52	-1.73471e-06
1990.2	-1.633e-06
1998.88	-1.705e-06
2007.55	-1.5854e-06
2016.23	-1.65816e-06
2024.91	-1.78841e-06
2033.59	-1.30582e-06
2042.27	3.47992e-06
2050.94	2.13318e-05
2059.62	1.34793e-05
2068.3	-6.63482e-07
2076.98	-1.76688e-06
2085.66	-1.92859e-06
2094.34	-1.81457e-06
2103.01	-1.57087e-06
2111.69	-1.4991e-06
2120.37	-1.20885e-06
2129.05	-1.00691e-06
2137.73	-9.13686e-07
2146.4	-1.39271e-06
2155.08	-1.65931e-06
2163.76	-1.90135e-06
2172.44	-1.51735e-06
2181.12	-1.96472e-06
2189.8	-2.07349e-06
2198.47	-3.01682e-06
2207.15	-5.35993e-06
2215.83	-7.26623e-06
2224.51	-7.17235e-06
2233.19	-6.97416e-06
2241.86	-8.61795e-06
2250.54	-7.59631e-06
2259.22	-3.48527e-06
2267.9	-2.52377e-06
2276.58	-3.00231e-06
2285.26	-2.65963e-06
2293.93	-2.96133e-06
2302.61	-2.21164e-06
2311.29	-2.57304e-06
2319.97	-2.75632e-06
2328.65	-2.52547e-06
2337.32	2.85801e-06
2346	1.35812e-05
2354.68	1.24963e-05
2363.36	-3.3492e-07
2372.04	-2.42545e-06
2380.72	-1.26217e-06
2389.39	-1.8298e-06
2398.07	-1.88379e-06
2406.75	-2.11246e-06
2415.43	-1.90618e-06
2424.11	-1.49464e-06
2432.78	-8.74297e-07
2441.46	-1.69956e-08
2450.14	2.39507e-06
2458.82	6.02123e-06
2467.5	6.90915e-06
2476.18	2.6988e-06
2484.85	-2.37481e-06
2493.53	-4.67439e-06
2502.21	-7.98733e-06
2510.89	-9.9928e-06
2519.57	-5.953e-06
2528.24	-8.49386e-07
2536.92	1.68879e-07
2545.6	-1.41839e-06
2554.28	-1.27596e-06
2562.96	-1.06761e-06
2571.64	-9.52145e-07
2580.31	-1.35415e-06
2588.99	-1.72581e-06
2597.67	-1.78224e-06
2606.35	-2.43294e-06
2615.03	-2.53243e-06
2623.7	-2.33723e-06
2632.38	-2.41638e-06
2641.06	-1.06529e-06
2649.74	2.06853e-06
2658.42	9.22749e-06
2667.1	1.14939e-05
2675.77	4.30825e-06
2684.45	-1.69778e-06
2693.13	-2.35119e-06
2701.81	-2.4202e-06
2710.49	-2.10853e-06
2719.16	-1.93864e-06
2727.84	-1.99285e-06
2736.52	-1.85436e-06
2745.2	-2.08057e-06
2753.88	-2.23978e-06
2762.56	-2.18739e-06
2771.23	-2.25875e-06
2779.91	-2.39844e-06
2788.59	-2.38194e-06
2797.27	-2.4539e-06
2805.95	-2.30524e-06
2814.62	-2.60841e-06
2823.3	-2.12058e-06
2831.98	-2.58528e-06
2840.66	-2.68472e-06
2849.34	-2.32688e-06
2858.02	-1.90631e-06
2866.69	-2.6945e-06
2875.37	-2.43997e-06
2884.05	-2.43195e-06
2892.73	-2.35717e-06
2901.41	-2.38906e-06
2910.08	-2.55568e-06
2918.76	-2.7739e-06
2927.44	-2.7032e-06
2936.12	-2.47456e-06
2944.8	-2.766e-06
2953.48	-2.37609e-06
2962.15	-2.03772e-06
2970.83	-2.43835e-06
2979.51	-2.42145e-06
2988.19	-2.81e-06
2996.87	-2.50466e-06
3005.54	-2.13142e-06
3014.22	-2.06898e-06
3022.9	-2.36339e-06
3031.58	-2.4594e-06
3040.26	-2.82076e-06
3048.94	-2.88504e-06
3057.61	-2.52758e-06
3066.29	-2.5115e-06
3074.97	-2.26114e-06
3083.65	-2.23339e-06
3092.33	-2.28401e-06
3101	-2.10444e-06
3109.68	-2.18415e-06
3118.36	-1.95206e-06
3127.04	-1.98985e-06
3135.72	-1.84189e-06
3144.4	-1.93556e-06
3153.07	-2.2785e-06
3161.75	-2.09904e-06
3170.43	-2.26e-06
3179.11	-2.8249e-06
3187.79	-2.72875e-06
3196.47	-2.37987e-06
3205.14	-2.79074e-06
3213.82	-2.55418e-06
3222.5	-2.3516e-06
3231.18	-2.01793e-06
3239.86	-2.1932e-06
3248.53	-2.13891e-06
3257.21	-2.61064e-06
3265.89	-2.16484e-06
3274.57	-1.99682e-06
3283.25	-2.69573e-06
3291.93	-2.10815e-06
3300.6	-2.44682e-06
3309.28	-2.52434e-06
3317.96	-2.55424e-06
3326.64	-2.63667e-06
3335.32	-2.54938e-06
3343.99	-2.22703e-06
3352.67	-3.64604e-06
3361.35	-2.36527e-06
3370.03	-3.19432e-06
3378.71	-3.13816e-06
3387.39	-3.22065e-06
3396.06	-2.8908e-06
3404.74	-2.87679e-06
3413.42	-2.92449e-06
3422.1	-2.61369e-06
3430.78	-3.02879e-06
3439.45	-3.03039e-06
3448.13	-2.90797e-06
3456.81	-2.95666e-06
3465.49	-2.9751e-06
3474.17	-2.76358e-06
3482.85	-3.01807e-06
3491.52	-2.7332e-06
3500.2	-2.93817e-06
3508.88	-3.02188e-06
3517.56	-2.39681e-06
3526.24	-2.79532e-06
3534.91	-2.70717e-06
3543.59	-3.08538e-06
3552.27	-2.99765e-06
3560.95	-3.11621e-06
3569.63	-2.96862e-06
3578.31	-3.08125e-06
3586.98	-3.44429e-06
3595.66	-3.18667e-06
3604.34	-3.24457e-06
3613.02	-2.72095e-06
3621.7	-3.08874e-06
3630.37	-2.91937e-06
3639.05	-3.13452e-06
3647.73	-2.80767e-06
3656.41	-2.95506e-06
3665.09	-2.59181e-06
3673.77	-2.63965e-06
3682.44	-2.26987e-06
3691.12	-3.00471e-06
3699.8	-2.73473e-06
3708.48	-3.46762e-06
3717.16	-3.39038e-06
3725.83	-4.07873e-06
3734.51	-4.30833e-06
3743.19	-4.69763e-06
3751.87	-4.97781e-06
3760.55	-4.16781e-06
3769.23	-4.00653e-06
3777.9	-3.97692e-06
3786.58	-3.66722e-06
3795.26	-3.20116e-06
3803.94	-3.20208e-06
3812.62	-2.68575e-06
3821.29	-3.49327e-06
3829.97	-2.71933e-06
3838.65	-3.66671e-06
3847.33	-3.21107e-06
3856.01	-3.37039e-06
3864.69	-3.36604e-06
3873.36	-2.76409e-06
3882.04	-3.17587e-06
3890.72	-3.79233e-06
3899.4	-3.09559e-06
3908.08	-2.73722e-06
3916.75	-3.19876e-06
3925.43	-3.00191e-06
3934.11	-2.92621e-06
3942.79	-3.54845e-06
3951.47	-3.24639e-06
3960.15	-3.17995e-06
3968.82	-3.4351e-06
