Infrared Spectrum: Hexafluoroethane
Formula: C2 F6
CAS: 76-16-4
State: gas
Melting point: -94 C
Boiling point: -79 C
Class: IUPAC A
Instrument: IFS66V (Bruker)
Instrument parameters: KBr Beam Splitter; MCT Detector; Multipass cell
Sampling: 1 L/min Flow
Resolution: 0.2410
Temperature: 23 C
Pressure: 101.3 Pa
Origin: NIST, Analytical Chemistry Division, 301-975-3108
cm-1	(micromol/mol)-1m-1 (base 10)
575.05	5.23763e-06
583.608	-1.53408e-06
592.165	-5.2397e-06
600.723	4.06911e-06
609.281	6.22666e-07
617.838	1.5854e-06
626.396	-1.25466e-06
634.954	3.71691e-07
643.511	8.4048e-07
652.069	-2.49656e-06
660.627	-2.93878e-06
669.184	-2.85687e-06
677.742	-1.02037e-06
686.3	1.00508e-06
694.857	6.15563e-06
703.415	0.000154424
711.973	0.000136135
720.53	0.000277014
729.088	4.87526e-05
737.645	2.63181e-06
746.203	6.33783e-07
754.761	-8.01513e-07
763.318	5.45037e-07
771.876	-1.20766e-06
780.434	-1.44935e-06
788.991	-7.82844e-08
797.549	-1.91376e-06
806.107	-6.3422e-07
814.664	-1.058e-06
823.222	-1.96101e-06
831.78	-4.11852e-07
840.337	-5.64346e-07
848.895	-5.71083e-07
857.453	-1.06e-06
866.01	-4.54471e-07
874.568	-3.09864e-07
883.126	-9.37186e-07
891.683	5.78912e-07
900.241	2.03523e-06
908.799	-6.6888e-07
917.356	-8.89168e-07
925.914	-3.17183e-07
934.472	-1.17569e-06
943.029	-1.00172e-06
951.587	-1.4066e-06
960.145	-2.7548e-07
968.702	-9.88595e-07
977.26	-1.09735e-06
985.818	-1.19034e-06
994.375	-1.86777e-07
1002.93	-9.95288e-08
1011.49	1.42379e-06
1020.05	2.65629e-06
1028.61	3.3082e-06
1037.16	1.9909e-06
1045.72	3.12701e-08
1054.28	9.43225e-07
1062.84	2.54804e-06
1071.39	1.24789e-06
1079.95	1.62859e-06
1088.51	1.4884e-05
1097.07	0.000124093
1105.62	0.00125844
1114.18	0.00271862
1122.74	0.00244738
1131.3	0.000158039
1139.86	0.000125515
1148.41	0.0001024
1156.97	7.17828e-06
1165.53	2.93878e-06
1174.09	4.49159e-06
1182.64	7.83766e-06
1191.2	2.05445e-05
1199.76	6.68022e-05
1208.32	7.40247e-05
1216.87	2.62266e-05
1225.43	5.17032e-05
1233.99	0.000568198
1242.55	0.00532048
1251.1	0.0123942
1259.66	0.00240949
1268.22	0.00012686
1276.78	1.81387e-05
1285.34	1.28181e-05
1293.89	1.41554e-05
1302.45	2.95861e-05
1311.01	6.39611e-05
1319.57	0.000113675
1328.12	0.000139864
1336.68	0.000105922
1345.24	5.64783e-05
1353.8	1.56485e-05
1362.35	1.48398e-06
1370.91	2.65105e-07
1379.47	-5.87235e-07
1388.03	-2.60259e-07
1396.59	-1.18591e-06
1405.14	-1.5016e-06
1413.7	-4.70361e-07
1422.26	-4.4561e-07
1430.82	7.06378e-07
1439.37	4.77225e-06
1447.93	6.97848e-06
1456.49	6.00329e-06
1465.05	4.76774e-06
1473.6	1.34378e-06
1482.16	-1.03912e-06
1490.72	-1.09095e-06
1499.28	-1.41572e-06
1507.83	-1.23411e-06
1516.39	-1.49319e-06
1524.95	-1.73639e-06
1533.51	-1.20281e-06
1542.07	-2.72016e-06
1550.62	-1.27265e-06
1559.18	-1.58334e-06
1567.74	-1.88293e-06
1576.3	-3.08534e-06
1584.85	-1.10272e-06
1593.41	4.02826e-06
1601.97	6.60439e-06
1610.53	3.90048e-06
1619.08	9.06981e-06
1627.64	1.33598e-05
1636.2	1.14101e-05
1644.76	5.14951e-06
1653.31	-3.26727e-06
1661.87	-1.92246e-06
1670.43	-1.45555e-06
1678.99	-1.15116e-06
1687.55	-1.39397e-06
1696.1	-1.64834e-06
1704.66	2.90438e-07
1713.22	2.41087e-06
1721.78	7.26571e-06
1730.33	1.02277e-05
1738.89	8.70784e-06
1747.45	3.66426e-06
1756.01	2.47105e-07
1764.56	-8.94552e-07
1773.12	-1.14931e-06
1781.68	-1.6316e-06
1790.24	-2.07243e-06
1798.79	-1.67673e-06
1807.35	-1.71917e-06
1815.91	-1.80953e-06
1824.47	-9.96482e-07
1833.03	-1.9011e-06
1841.58	-5.571e-07
1850.14	1.214e-06
1858.7	5.86613e-06
1867.26	1.07232e-05
1875.81	5.61427e-06
1884.37	9.46921e-07
1892.93	-2.16813e-06
1901.49	-2.01735e-06
1910.04	-1.42184e-06
1918.6	-4.04518e-09
1927.16	1.81467e-06
1935.72	1.95586e-06
1944.28	3.13314e-06
1952.83	2.21462e-06
1961.39	1.10177e-06
1969.95	-9.47634e-07
1978.51	-1.64258e-06
1987.06	-1.49904e-06
1995.62	-2.12199e-06
2004.18	-2.06764e-06
2012.74	-1.72121e-06
2021.29	-2.33638e-06
2029.85	-1.77268e-06
2038.41	-3.095e-07
2046.97	1.26099e-05
2055.52	2.38376e-05
2064.08	2.81358e-06
2072.64	-1.35513e-06
2081.2	-2.1353e-06
2089.76	-2.59257e-06
2098.31	-2.63181e-06
2106.87	-1.95619e-06
2115.43	-1.49247e-06
2123.99	-4.35963e-07
2132.54	-9.48303e-07
2141.1	-1.86e-06
2149.66	-1.32776e-06
2158.22	-1.13726e-06
2166.77	-2.09884e-06
2175.33	-1.49541e-06
2183.89	-2.00955e-06
2192.45	-2.02303e-06
2201	-3.93044e-06
2209.56	-5.13432e-06
2218.12	-7.46156e-06
2226.68	-8.76427e-06
2235.24	-5.81365e-06
2243.79	-8.37985e-06
2252.35	-6.55165e-06
2260.91	-3.15566e-06
2269.47	-2.48278e-06
2278.02	-3.03206e-06
2286.58	-2.64869e-06
2295.14	-2.38727e-06
2303.7	-3.54956e-06
2312.25	-1.409e-06
2320.81	-2.78986e-06
2329.37	-7.12693e-07
2337.93	4.06242e-06
2346.49	1.65816e-05
2355.04	1.42678e-05
2363.6	2.7842e-06
2372.16	-1.20799e-06
2380.72	-2.14223e-06
2389.27	-1.42188e-06
2397.83	-2.64988e-06
2406.39	-1.99717e-06
2414.95	-1.70431e-06
2423.5	-1.81454e-06
2432.06	-7.47659e-07
2440.62	2.14671e-07
2449.18	2.10869e-06
2457.73	5.7867e-06
2466.29	7.16363e-06
2474.85	4.43126e-06
2483.41	-2.97764e-06
2491.97	-3.67915e-06
2500.52	-7.31668e-06
2509.08	-9.60709e-06
2517.64	-8.00742e-06
2526.2	-1.58866e-06
2534.75	4.14631e-07
2543.31	-1.08497e-06
2551.87	-1.1675e-06
2560.43	-1.15755e-06
2568.98	-3.63644e-07
2577.54	-1.29264e-06
2586.1	-1.26525e-06
2594.66	-1.63641e-06
2603.21	-2.2465e-06
2611.77	-2.62878e-06
2620.33	-2.85572e-06
2628.89	-1.77228e-06
2637.45	-2.2075e-06
2646	-4.66549e-07
2654.56	5.13288e-06
2663.12	1.33479e-05
2671.68	8.64744e-06
2680.23	-1.71833e-07
2688.79	-2.3521e-06
2697.35	-3.02707e-06
2705.91	-1.41034e-06
2714.46	-1.93189e-06
2723.02	-1.67385e-06
2731.58	-2.54982e-06
2740.14	-1.94992e-06
2748.69	-2.02167e-06
2757.25	-2.68606e-06
2765.81	-2.03534e-06
2774.37	-2.92303e-06
2782.93	-2.3014e-06
2791.48	-2.69989e-06
2800.04	-2.58631e-06
2808.6	-3.06531e-06
2817.16	-2.14083e-06
2825.71	-2.2072e-06
2834.27	-3.35678e-06
2842.83	-2.6874e-06
2851.39	-2.04594e-06
2859.94	-2.06541e-06
2868.5	-3.47089e-06
2877.06	-2.05195e-06
2885.62	-2.76811e-06
2894.18	-3.49321e-06
2902.73	-1.43375e-06
2911.29	-3.35494e-06
2919.85	-2.58969e-06
2928.41	-3.69865e-06
2936.96	-2.39475e-06
2945.52	-3.03611e-06
2954.08	-2.36931e-06
2962.64	-1.51207e-06
2971.19	-2.04789e-06
2979.75	-2.75151e-06
2988.31	-3.58247e-06
2996.87	-1.84824e-06
3005.42	-2.87372e-06
3013.98	-1.98639e-06
3022.54	-2.87395e-06
3031.1	-1.63984e-06
3039.66	-2.45486e-06
3048.21	-3.97867e-06
3056.77	-2.65252e-06
3065.33	-2.89169e-06
3073.89	-1.85268e-06
3082.44	-2.70931e-06
3091	-2.88661e-06
3099.56	-6.49935e-07
3108.12	-1.83874e-06
3116.67	-2.38194e-06
3125.23	-1.48349e-06
3133.79	-1.90088e-06
3142.35	-2.01313e-06
3150.9	-1.82094e-06
3159.46	-1.43191e-06
3168.02	-2.46923e-06
3176.58	-2.37135e-06
3185.14	-1.42828e-06
3193.69	-2.76558e-06
3202.25	-1.81518e-06
3210.81	-1.87737e-06
3219.37	-2.24256e-06
3227.92	-2.8076e-06
3236.48	-2.00588e-06
3245.04	-2.00743e-06
3253.6	-3.14219e-06
3262.15	-2.14573e-06
3270.71	-2.71126e-06
3279.27	-2.0579e-06
3287.83	-2.12002e-06
3296.38	-2.68371e-06
3304.94	-2.41938e-06
3313.5	-1.90831e-06
3322.06	-2.55293e-06
3330.62	-3.58688e-06
3339.17	-4.75077e-06
3347.73	-3.80139e-06
3356.29	-3.04346e-06
3364.85	-5.62801e-06
3373.4	-1.81634e-06
3381.96	-2.92066e-06
3390.52	-3.13765e-06
3399.08	-4.83197e-06
3407.63	-2.53739e-06
3416.19	-4.2193e-06
3424.75	-2.42815e-06
3433.31	-2.37146e-06
3441.87	-3.32789e-06
3450.42	-3.60711e-06
3458.98	-2.4936e-06
3467.54	-1.41757e-06
3476.1	-1.79439e-06
3484.65	-3.72731e-06
3493.21	-2.81768e-06
3501.77	-2.31614e-06
3510.33	-3.21491e-06
3518.88	-3.30802e-06
3527.44	-2.85118e-06
3536	-2.03641e-06
3544.56	-4.11675e-06
3553.11	-1.46706e-06
3561.67	-3.17012e-06
3570.23	-2.0258e-06
3578.79	-2.26361e-06
3587.35	-4.33573e-06
3595.9	-2.47917e-06
3604.46	-4.29924e-06
3613.02	-2.66002e-06
3621.58	-4.03022e-06
3630.13	-3.13292e-06
3638.69	-2.97488e-06
3647.25	-3.57866e-06
3655.81	-3.18332e-06
3664.36	-3.6015e-06
3672.92	-2.71609e-06
3681.48	-2.49248e-06
3690.04	-2.75778e-06
3698.59	-2.5646e-06
3707.15	-3.2653e-06
3715.71	-3.74215e-06
3724.27	-3.56187e-06
3732.83	-3.91137e-06
3741.38	-5.25422e-06
3749.94	-3.80845e-06
3758.5	-3.30578e-06
3767.06	-4.26814e-06
3775.61	-4.46139e-06
3784.17	-4.5472e-06
3792.73	-3.72328e-06
3801.29	-5.10403e-06
3809.84	-3.27722e-06
3818.4	-3.97768e-06
3826.96	-1.64656e-06
3835.52	-2.67794e-06
3844.08	-2.74091e-06
3852.63	-3.20774e-06
3861.19	-1.79641e-06
3869.75	-3.45975e-06
3878.31	-3.75782e-06
3886.86	-3.35261e-06
3895.42	-2.4472e-06
3903.98	-4.1796e-06
3912.54	-2.87184e-06
3921.09	-3.00469e-06
3929.65	-2.68237e-06
3938.21	-4.40722e-06
3946.77	-4.03303e-06
3955.32	-4.02683e-06
3963.88	-2.97291e-06
3972.44	-3.87429e-06
