Infrared Spectrum: Hexafluoroethane
Formula: C2 F6
CAS: 76-16-4
State: gas
Melting point: -94 C
Boiling point: -79 C
Class: IUPAC A
Instrument: IFS66V (Bruker)
Instrument parameters: KBr Beam Splitter; MCT Detector; Multipass cell
Sampling: 1 L/min Flow
Resolution: 0.1250
Temperature: 23 C
Pressure: 101.3 Pa
Origin: NIST, Analytical Chemistry Division, 301-975-3108
cm-1	(micromol/mol)-1m-1 (base 10)
575.05	5.11967e-06
583.608	-9.59701e-06
592.165	-2.73774e-06
600.723	2.50033e-06
609.281	2.59692e-07
617.838	3.73572e-06
626.396	-1.74782e-06
634.954	3.03447e-07
643.511	-5.05269e-07
652.069	-4.23631e-06
660.627	-3.95652e-06
669.184	-3.2675e-06
677.742	-2.34257e-06
686.3	7.41403e-07
694.857	5.71413e-06
703.415	0.000155349
711.973	0.000129574
720.53	0.000279457
729.088	4.90715e-05
737.645	2.70305e-06
746.203	7.19154e-07
754.761	-1.70647e-06
763.318	6.45148e-07
771.876	-1.31327e-06
780.434	-1.21184e-06
788.991	-6.49382e-07
797.549	-1.637e-06
806.107	5.97828e-07
814.664	-8.99921e-07
823.222	-2.08404e-06
831.78	-5.10507e-07
840.337	-3.92149e-08
848.895	-1.55784e-06
857.453	-1.2584e-06
866.01	-2.24813e-08
874.568	-4.04241e-07
883.126	-1.08171e-06
891.683	3.77671e-07
900.241	2.51467e-06
908.799	-1.52119e-06
917.356	-1.24055e-06
925.914	3.52003e-07
934.472	-6.22623e-07
943.029	-9.89264e-07
951.587	-2.24589e-06
960.145	3.06822e-07
968.702	-1.11461e-06
977.26	-1.19468e-06
985.818	-1.54454e-06
994.375	4.42176e-07
1002.93	3.93037e-07
1011.49	1.04581e-06
1020.05	2.88719e-06
1028.61	2.47331e-06
1037.16	1.78225e-06
1045.72	2.84079e-07
1054.28	9.93513e-07
1062.84	2.22095e-06
1071.39	1.41206e-06
1079.95	1.38153e-06
1088.51	1.33439e-05
1097.07	0.000121306
1105.62	0.00126061
1114.18	0.00272016
1122.74	0.0024673
1131.3	0.000151089
1139.86	0.000122919
1148.41	0.00010196
1156.97	6.62573e-06
1165.53	2.64504e-06
1174.09	3.87777e-06
1182.64	6.79152e-06
1191.2	1.97333e-05
1199.76	6.66057e-05
1208.32	7.21052e-05
1216.87	2.41975e-05
1225.43	4.65333e-05
1233.99	0.000555447
1242.55	0.00531782
1251.1	0.0124298
1259.66	0.00239006
1268.22	0.000117613
1276.78	1.47676e-05
1285.34	1.13958e-05
1293.89	1.30617e-05
1302.45	2.83969e-05
1311.01	6.32421e-05
1319.57	0.000113234
1328.12	0.00013948
1336.68	0.000105363
1345.24	5.63282e-05
1353.8	1.55529e-05
1362.35	8.42794e-07
1370.91	-2.41692e-07
1379.47	-9.38554e-07
1388.03	-1.80432e-07
1396.59	-1.44929e-06
1405.14	-1.64045e-06
1413.7	-5.77995e-07
1422.26	-5.38372e-07
1430.82	2.86553e-07
1439.37	4.23502e-06
1447.93	7.0552e-06
1456.49	5.66479e-06
1465.05	4.57389e-06
1473.6	1.35166e-06
1482.16	-1.54548e-06
1490.72	-1.08679e-06
1499.28	-1.46869e-06
1507.83	-1.12201e-06
1516.39	-1.29067e-06
1524.95	-2.06828e-06
1533.51	-8.71256e-07
1542.07	-2.64962e-06
1550.62	-1.06355e-06
1559.18	-1.88278e-06
1567.74	-2.06955e-06
1576.3	-3.05421e-06
1584.85	-1.15662e-06
1593.41	4.18577e-06
1601.97	6.42817e-06
1610.53	3.62289e-06
1619.08	9.34333e-06
1627.64	1.34503e-05
1636.2	1.14841e-05
1644.76	5.21252e-06
1653.31	-3.67135e-06
1661.87	-2.01042e-06
1670.43	-1.5006e-06
1678.99	-8.08686e-07
1687.55	-1.39527e-06
1696.1	-9.82585e-07
1704.66	4.73751e-07
1713.22	2.44988e-06
1721.78	7.88913e-06
1730.33	1.03337e-05
1738.89	9.1977e-06
1747.45	3.87643e-06
1756.01	5.1365e-09
1764.56	-7.98064e-07
1773.12	-9.35455e-07
1781.68	-1.77659e-06
1790.24	-2.07516e-06
1798.79	-1.52898e-06
1807.35	-1.83219e-06
1815.91	-1.68576e-06
1824.47	-7.23869e-07
1833.03	-2.12477e-06
1841.58	-5.6794e-07
1850.14	1.37411e-06
1858.7	5.94849e-06
1867.26	1.06794e-05
1875.81	5.58518e-06
1884.37	9.83167e-07
1892.93	-2.49614e-06
1901.49	-1.95029e-06
1910.04	-1.25366e-06
1918.6	6.43882e-08
1927.16	1.60825e-06
1935.72	2.23851e-06
1944.28	3.44677e-06
1952.83	2.08402e-06
1961.39	1.21579e-06
1969.95	-7.99316e-07
1978.51	-1.78739e-06
1987.06	-1.51357e-06
1995.62	-2.3499e-06
2004.18	-2.32187e-06
2012.74	-1.63093e-06
2021.29	-2.56055e-06
2029.85	-1.88828e-06
2038.41	-7.0066e-07
2046.97	1.28983e-05
2055.52	2.37218e-05
2064.08	2.89144e-06
2072.64	-1.18169e-06
2081.2	-2.3021e-06
2089.76	-2.69119e-06
2098.31	-2.78346e-06
2106.87	-1.95899e-06
2115.43	-1.74868e-06
2123.99	-2.84763e-08
2132.54	-7.09449e-07
2141.1	-2.24819e-06
2149.66	-1.06596e-06
2158.22	-9.92887e-07
2166.77	-1.51374e-06
2175.33	-1.26407e-06
2183.89	-2.27425e-06
2192.45	-1.83497e-06
2201	-3.77681e-06
2209.56	-4.59436e-06
2218.12	-7.53534e-06
2226.68	-8.45353e-06
2235.24	-5.91324e-06
2243.79	-8.57955e-06
2252.35	-6.851e-06
2260.91	-3.14035e-06
2269.47	-2.26585e-06
2278.02	-3.22313e-06
2286.58	-2.64623e-06
2295.14	-2.25775e-06
2303.7	-3.75673e-06
2312.25	-4.725e-07
2320.81	-2.61834e-06
2329.37	-6.90576e-07
2337.93	4.79666e-06
2346.49	1.76362e-05
2355.04	1.45365e-05
2363.6	3.13216e-06
2372.16	-1.22246e-06
2380.72	-2.85108e-06
2389.27	-1.11904e-06
2397.83	-3.17785e-06
2406.39	-1.88942e-06
2414.95	-1.9716e-06
2423.5	-1.4486e-06
2432.06	-7.20144e-07
2440.62	4.08636e-07
2449.18	1.83392e-06
2457.73	5.8564e-06
2466.29	6.81591e-06
2474.85	4.58111e-06
2483.41	-3.7621e-06
2491.97	-3.41131e-06
2500.52	-7.2386e-06
2509.08	-9.73197e-06
2517.64	-8.29596e-06
2526.2	-1.5525e-06
2534.75	6.13878e-07
2543.31	-1.64565e-06
2551.87	-9.63131e-07
2560.43	-1.06723e-06
2568.98	2.43613e-07
2577.54	-9.81814e-07
2586.1	-1.29069e-06
2594.66	-1.62676e-06
2603.21	-2.51152e-06
2611.77	-2.50622e-06
2620.33	-3.25232e-06
2628.89	-1.01739e-06
2637.45	-2.32266e-06
2646	-9.58853e-07
2654.56	4.66041e-06
2663.12	1.40561e-05
2671.68	8.9611e-06
2680.23	-7.80807e-08
2688.79	-2.25159e-06
2697.35	-2.96078e-06
2705.91	-1.28676e-06
2714.46	-1.74571e-06
2723.02	-1.29188e-06
2731.58	-2.78067e-06
2740.14	-2.24336e-06
2748.69	-2.0827e-06
2757.25	-3.14719e-06
2765.81	-1.70603e-06
2774.37	-3.38343e-06
2782.93	-2.15815e-06
2791.48	-2.63283e-06
2800.04	-2.65009e-06
2808.6	-3.23745e-06
2817.16	-2.42737e-06
2825.71	-1.69379e-06
2834.27	-3.81958e-06
2842.83	-2.52381e-06
2851.39	-2.22786e-06
2859.94	-1.58607e-06
2868.5	-4.25912e-06
2877.06	-1.50532e-06
2885.62	-2.9112e-06
2894.18	-3.84656e-06
2902.73	-9.87358e-07
2911.29	-3.70516e-06
2919.85	-2.81512e-06
2928.41	-3.67398e-06
2936.96	-2.54242e-06
2945.52	-3.14219e-06
2954.08	-2.33151e-06
2962.64	-1.57766e-06
2971.19	-1.66955e-06
2979.75	-2.35828e-06
2988.31	-4.39612e-06
2996.87	-9.91913e-07
3005.42	-3.44904e-06
3013.98	-2.01766e-06
3022.54	-2.82902e-06
3031.1	-1.10596e-06
3039.66	-2.30673e-06
3048.21	-4.02805e-06
3056.77	-2.56981e-06
3065.33	-3.7078e-06
3073.89	-1.55718e-06
3082.44	-3.25503e-06
3091	-3.22738e-06
3099.56	3.49573e-07
3108.12	-6.79168e-07
3116.67	-2.12357e-06
3125.23	-1.19145e-06
3133.79	-1.10938e-06
3142.35	-1.67997e-06
3150.9	-1.41236e-06
3159.46	-1.21856e-06
3168.02	-2.36455e-06
3176.58	-2.82985e-06
3185.14	-1.29516e-06
3193.69	-2.72791e-06
3202.25	-1.36889e-06
3210.81	-1.7613e-06
3219.37	-1.86665e-06
3227.92	-2.88143e-06
3236.48	-1.95643e-06
3245.04	-1.82061e-06
3253.6	-3.38296e-06
3262.15	-1.93745e-06
3270.71	-2.96388e-06
3279.27	-1.60435e-06
3287.83	-2.06733e-06
3296.38	-2.15793e-06
3304.94	-2.36125e-06
3313.5	-1.56452e-06
3322.06	-1.93694e-06
3330.62	-4.87862e-06
3339.17	-5.06966e-06
3347.73	-4.27602e-06
3356.29	-3.14693e-06
3364.85	-6.41143e-06
3373.4	-5.95209e-07
3381.96	-3.05881e-06
3390.52	-3.12928e-06
3399.08	-5.24018e-06
3407.63	-1.5153e-06
3416.19	-4.682e-06
3424.75	-1.8255e-06
3433.31	-1.83022e-06
3441.87	-3.11019e-06
3450.42	-3.14348e-06
3458.98	-3.48355e-06
3467.54	-9.4337e-07
3476.1	-1.39933e-06
3484.65	-4.54694e-06
3493.21	-3.71793e-06
3501.77	-2.11214e-06
3510.33	-3.42589e-06
3518.88	-3.75391e-06
3527.44	-2.90888e-06
3536	-2.48426e-06
3544.56	-4.03387e-06
3553.11	-4.87371e-07
3561.67	-3.71679e-06
3570.23	-1.2411e-06
3578.79	-2.08423e-06
3587.35	-4.25442e-06
3595.9	-1.94737e-06
3604.46	-4.36463e-06
3613.02	-2.18002e-06
3621.58	-4.2258e-06
3630.13	-4.26058e-06
3638.69	-3.12938e-06
3647.25	-3.83992e-06
3655.81	-4.50224e-06
3664.36	-3.71628e-06
3672.92	-2.00968e-06
3681.48	-2.91232e-06
3690.04	-3.3782e-06
3698.59	-3.01925e-06
3707.15	-3.09228e-06
3715.71	-3.6067e-06
3724.27	-3.50363e-06
3732.83	-3.1427e-06
3741.38	-5.88052e-06
3749.94	-2.74379e-06
3758.5	-2.85332e-06
3767.06	-4.04914e-06
3775.61	-5.49033e-06
3784.17	-4.72215e-06
3792.73	-2.99289e-06
3801.29	-5.32954e-06
3809.84	-2.79253e-06
3818.4	-4.47705e-06
3826.96	-1.15378e-06
3835.52	-2.67559e-06
3844.08	-1.77793e-06
3852.63	-3.64936e-06
3861.19	-1.35669e-06
3869.75	-3.32087e-06
3878.31	-3.38464e-06
3886.86	-3.98965e-06
3895.42	-2.14403e-06
3903.98	-4.06732e-06
3912.54	-2.03571e-06
3921.09	-2.79386e-06
3929.65	-3.18115e-06
3938.21	-4.41793e-06
3946.77	-4.53556e-06
3955.32	-3.66506e-06
3963.88	-2.45504e-06
3972.44	-4.36642e-06
