Infrared Spectrum: Hexafluoroethane
Formula: C2 F6
CAS: 76-16-4
State: gas
Melting point: -94 C
Boiling point: -79 C
Class: IUPAC A
Instrument: IFS66V (Bruker)
Instrument parameters: KBr Beam Splitter; MCT Detector; Multipass cell
Sampling: 1 L/min Flow
Resolution: 0.2410
Temperature: 23 C
Pressure: 101.3 Pa
Origin: NIST, Analytical Chemistry Division, 301-975-3108
cm-1	(micromol/mol)-1m-1 (base 10)
575.05	4.6867e-06
583.608	-1.09213e-06
592.165	-5.65747e-06
600.723	4.39768e-06
609.281	2.37894e-07
617.838	1.6745e-06
626.396	-1.29457e-06
634.954	2.01153e-07
643.511	6.04521e-07
652.069	-2.02551e-06
660.627	-2.67264e-06
669.184	-2.96372e-06
677.742	-6.76098e-07
686.3	3.47041e-07
694.857	5.6392e-06
703.415	0.000154982
711.973	0.000131195
720.53	0.000278195
729.088	4.78435e-05
737.645	2.35178e-06
746.203	4.059e-07
754.761	-8.66774e-07
763.318	4.71874e-07
771.876	-1.07756e-06
780.434	-1.60806e-06
788.991	-9.13948e-08
797.549	-1.82718e-06
806.107	-1.05626e-06
814.664	-1.00693e-06
823.222	-2.02917e-06
831.78	-3.18885e-07
840.337	-8.9397e-07
848.895	-5.43218e-07
857.453	-1.28066e-06
866.01	-7.11893e-07
874.568	-4.45319e-07
883.126	-9.68427e-07
891.683	8.4115e-07
900.241	1.84575e-06
908.799	-5.13636e-07
917.356	-1.04677e-06
925.914	-3.4224e-07
934.472	-1.35272e-06
943.029	-9.77725e-07
951.587	-1.27708e-06
960.145	-6.26042e-07
968.702	-1.00054e-06
977.26	-1.14534e-06
985.818	-1.09252e-06
994.375	-3.95947e-07
1002.93	-1.87271e-07
1011.49	1.27797e-06
1020.05	2.51866e-06
1028.61	3.40054e-06
1037.16	1.8686e-06
1045.72	-3.49748e-07
1054.28	7.20085e-07
1062.84	2.35317e-06
1071.39	7.9236e-07
1079.95	8.24532e-07
1088.51	1.36798e-05
1097.07	0.000120674
1105.62	0.00126153
1114.18	0.00272735
1122.74	0.00246451
1131.3	0.000152122
1139.86	0.000123993
1148.41	0.000102104
1156.97	6.10596e-06
1165.53	2.25856e-06
1174.09	3.89801e-06
1182.64	7.2175e-06
1191.2	1.97833e-05
1199.76	6.5785e-05
1208.32	7.29295e-05
1216.87	2.37284e-05
1225.43	4.66207e-05
1233.99	0.000556133
1242.55	0.00531808
1251.1	0.0124607
1259.66	0.00239149
1268.22	0.000117634
1276.78	1.47144e-05
1285.34	1.08662e-05
1293.89	1.29503e-05
1302.45	2.87274e-05
1311.01	6.33116e-05
1319.57	0.000113543
1328.12	0.000139783
1336.68	0.00010607
1345.24	5.62154e-05
1353.8	1.53727e-05
1362.35	1.36679e-06
1370.91	1.51374e-07
1379.47	-7.02115e-07
1388.03	-4.91649e-07
1396.59	-1.34237e-06
1405.14	-1.77294e-06
1413.7	-5.96824e-07
1422.26	-3.80247e-07
1430.82	6.91449e-07
1439.37	4.80144e-06
1447.93	6.85544e-06
1456.49	6.11951e-06
1465.05	4.71388e-06
1473.6	1.15427e-06
1482.16	-1.07174e-06
1490.72	-1.2474e-06
1499.28	-1.406e-06
1507.83	-1.23216e-06
1516.39	-1.60643e-06
1524.95	-1.67499e-06
1533.51	-1.35003e-06
1542.07	-2.75027e-06
1550.62	-1.29018e-06
1559.18	-1.51458e-06
1567.74	-1.84168e-06
1576.3	-3.27414e-06
1584.85	-1.17441e-06
1593.41	3.92529e-06
1601.97	6.64733e-06
1610.53	3.86738e-06
1619.08	9.03917e-06
1627.64	1.33057e-05
1636.2	1.13051e-05
1644.76	4.99822e-06
1653.31	-3.31422e-06
1661.87	-1.96852e-06
1670.43	-1.51e-06
1678.99	-1.28443e-06
1687.55	-1.42237e-06
1696.1	-2.00741e-06
1704.66	7.54469e-08
1713.22	2.34809e-06
1721.78	7.16794e-06
1730.33	1.03481e-05
1738.89	8.58385e-06
1747.45	3.55907e-06
1756.01	2.8939e-07
1764.56	-1.00366e-06
1773.12	-1.07958e-06
1781.68	-1.59607e-06
1790.24	-2.12481e-06
1798.79	-1.76144e-06
1807.35	-1.65032e-06
1815.91	-1.81576e-06
1824.47	-1.18509e-06
1833.03	-1.89867e-06
1841.58	-5.97682e-07
1850.14	1.15129e-06
1858.7	5.8768e-06
1867.26	1.08082e-05
1875.81	5.61642e-06
1884.37	9.49467e-07
1892.93	-2.17126e-06
1901.49	-2.11337e-06
1910.04	-1.55483e-06
1918.6	-2.46494e-08
1927.16	1.7311e-06
1935.72	1.86666e-06
1944.28	2.98295e-06
1952.83	2.30421e-06
1961.39	1.06023e-06
1969.95	-1.0603e-06
1978.51	-1.54177e-06
1987.06	-1.58543e-06
1995.62	-2.05245e-06
2004.18	-2.12999e-06
2012.74	-1.77834e-06
2021.29	-2.28538e-06
2029.85	-1.81273e-06
2038.41	-2.02142e-07
2046.97	1.25711e-05
2055.52	2.41375e-05
2064.08	2.77003e-06
2072.64	-1.46884e-06
2081.2	-2.00657e-06
2089.76	-2.64067e-06
2098.31	-2.49007e-06
2106.87	-2.11542e-06
2115.43	-1.32583e-06
2123.99	-4.51823e-07
2132.54	-1.04897e-06
2141.1	-1.77876e-06
2149.66	-1.43976e-06
2158.22	-9.90647e-07
2166.77	-2.24973e-06
2175.33	-1.53381e-06
2183.89	-2.01568e-06
2192.45	-2.10892e-06
2201	-3.94686e-06
2209.56	-5.35912e-06
2218.12	-7.45014e-06
2226.68	-8.87553e-06
2235.24	-5.82244e-06
2243.79	-8.36958e-06
2252.35	-6.59434e-06
2260.91	-3.08849e-06
2269.47	-2.63612e-06
2278.02	-3.04889e-06
2286.58	-2.64645e-06
2295.14	-2.48521e-06
2303.7	-3.51749e-06
2312.25	-1.61691e-06
2320.81	-2.76472e-06
2329.37	-5.43014e-07
2337.93	3.45484e-06
2346.49	1.65722e-05
2355.04	1.45576e-05
2363.6	3.19926e-06
2372.16	-1.10765e-06
2380.72	-1.87955e-06
2389.27	-1.61617e-06
2397.83	-2.51385e-06
2406.39	-2.06844e-06
2414.95	-1.65886e-06
2423.5	-1.77281e-06
2432.06	-8.40597e-07
2440.62	1.7288e-07
2449.18	2.07218e-06
2457.73	5.80557e-06
2466.29	7.18345e-06
2474.85	4.39359e-06
2483.41	-2.76357e-06
2491.97	-3.75948e-06
2500.52	-7.28654e-06
2509.08	-9.64161e-06
2517.64	-7.81873e-06
2526.2	-1.49804e-06
2534.75	3.93081e-07
2543.31	-9.59813e-07
2551.87	-1.32935e-06
2560.43	-1.00843e-06
2568.98	-5.54699e-07
2577.54	-1.4113e-06
2586.1	-1.37719e-06
2594.66	-1.62765e-06
2603.21	-2.20135e-06
2611.77	-2.6366e-06
2620.33	-2.8004e-06
2628.89	-1.97156e-06
2637.45	-2.07848e-06
2646	-4.47487e-07
2654.56	5.24386e-06
2663.12	1.33387e-05
2671.68	8.58666e-06
2680.23	-2.12183e-07
2688.79	-2.56851e-06
2697.35	-2.96066e-06
2705.91	-1.62606e-06
2714.46	-1.96922e-06
2723.02	-1.77477e-06
2731.58	-2.49142e-06
2740.14	-1.75987e-06
2748.69	-1.98393e-06
2757.25	-2.43542e-06
2765.81	-2.27287e-06
2774.37	-2.6934e-06
2782.93	-2.42452e-06
2791.48	-2.57556e-06
2800.04	-2.53487e-06
2808.6	-2.92154e-06
2817.16	-2.06083e-06
2825.71	-2.43143e-06
2834.27	-3.23719e-06
2842.83	-2.70099e-06
2851.39	-1.92139e-06
2859.94	-2.11871e-06
2868.5	-3.23901e-06
2877.06	-2.24905e-06
2885.62	-2.60594e-06
2894.18	-3.32681e-06
2902.73	-1.53296e-06
2911.29	-3.12443e-06
2919.85	-2.68229e-06
2928.41	-3.66374e-06
2936.96	-2.35681e-06
2945.52	-2.99863e-06
2954.08	-2.40876e-06
2962.64	-1.47921e-06
2971.19	-2.01258e-06
2979.75	-2.9785e-06
2988.31	-3.45611e-06
2996.87	-2.11116e-06
3005.42	-2.67573e-06
3013.98	-1.98531e-06
3022.54	-2.76367e-06
3031.1	-1.78413e-06
3039.66	-2.45023e-06
3048.21	-3.95792e-06
3056.77	-2.67027e-06
3065.33	-2.84299e-06
3073.89	-1.96264e-06
3082.44	-2.56783e-06
3091	-2.81974e-06
3099.56	-7.19576e-07
3108.12	-2.25552e-06
3116.67	-2.42447e-06
3125.23	-1.50289e-06
3133.79	-2.03273e-06
3142.35	-2.03871e-06
3150.9	-1.88088e-06
3159.46	-1.40152e-06
3168.02	-2.65789e-06
3176.58	-2.23409e-06
3185.14	-1.50763e-06
3193.69	-2.64165e-06
3202.25	-1.8158e-06
3210.81	-1.79306e-06
3219.37	-2.19556e-06
3227.92	-2.96816e-06
3236.48	-2.02548e-06
3245.04	-2.11611e-06
3253.6	-3.16065e-06
3262.15	-2.20584e-06
3270.71	-2.71084e-06
3279.27	-2.34161e-06
3287.83	-1.9517e-06
3296.38	-2.82388e-06
3304.94	-2.46491e-06
3313.5	-1.95253e-06
3322.06	-2.57962e-06
3330.62	-3.5088e-06
3339.17	-4.78118e-06
3347.73	-3.70441e-06
3356.29	-3.12062e-06
3364.85	-5.41152e-06
3373.4	-2.20491e-06
3381.96	-2.72339e-06
3390.52	-3.30621e-06
3399.08	-4.82932e-06
3407.63	-2.86083e-06
3416.19	-4.08946e-06
3424.75	-2.69081e-06
3433.31	-2.6843e-06
3441.87	-3.46045e-06
3450.42	-3.66532e-06
3458.98	-2.41733e-06
3467.54	-1.55167e-06
3476.1	-1.78186e-06
3484.65	-3.61966e-06
3493.21	-2.44017e-06
3501.77	-2.40566e-06
3510.33	-3.25446e-06
3518.88	-3.47008e-06
3527.44	-2.59521e-06
3536	-1.8647e-06
3544.56	-4.07704e-06
3553.11	-1.73157e-06
3561.67	-3.13021e-06
3570.23	-2.25276e-06
3578.79	-2.40754e-06
3587.35	-4.32438e-06
3595.9	-2.54971e-06
3604.46	-4.35322e-06
3613.02	-2.59092e-06
3621.58	-3.68951e-06
3630.13	-2.86301e-06
3638.69	-2.96947e-06
3647.25	-3.42289e-06
3655.81	-2.71104e-06
3664.36	-3.49271e-06
3672.92	-2.81285e-06
3681.48	-2.68693e-06
3690.04	-2.50101e-06
3698.59	-2.46276e-06
3707.15	-3.34904e-06
3715.71	-3.91602e-06
3724.27	-3.66253e-06
3732.83	-4.06747e-06
3741.38	-5.13206e-06
3749.94	-3.81956e-06
3758.5	-3.47952e-06
3767.06	-4.35414e-06
3775.61	-4.02211e-06
3784.17	-4.37342e-06
3792.73	-3.8468e-06
3801.29	-5.17306e-06
3809.84	-3.32127e-06
3818.4	-3.84405e-06
3826.96	-1.76515e-06
3835.52	-2.7733e-06
3844.08	-2.92672e-06
3852.63	-2.92196e-06
3861.19	-1.85166e-06
3869.75	-3.56843e-06
3878.31	-3.75897e-06
3886.86	-3.11413e-06
3895.42	-2.38022e-06
3903.98	-4.16418e-06
3912.54	-3.11145e-06
3921.09	-3.11485e-06
3929.65	-2.47606e-06
3938.21	-4.34426e-06
3946.77	-3.94457e-06
3955.32	-4.07715e-06
3963.88	-2.99727e-06
3972.44	-3.74653e-06
