Infrared Spectrum: Hexafluoroethane
Formula: C2 F6
CAS: 76-16-4
State: gas
Melting point: -94 C
Boiling point: -79 C
Class: IUPAC A
Instrument: IFS66V (Bruker)
Instrument parameters: KBr Beam Splitter; MCT Detector; Multipass cell
Sampling: 1 L/min Flow
Resolution: 0.2410
Temperature: 23 C
Pressure: 101.3 Pa
Origin: NIST, Analytical Chemistry Division, 301-975-3108
cm-1	(micromol/mol)-1m-1 (base 10)
575.05	6.06919e-06
583.608	-1.30266e-06
592.165	-4.79217e-06
600.723	4.24966e-06
609.281	4.04503e-07
617.838	2.01943e-06
626.396	-1.52655e-06
634.954	4.24234e-07
643.511	5.18991e-07
652.069	-2.65402e-06
660.627	-3.23977e-06
669.184	-3.17202e-06
677.742	-1.07191e-06
686.3	9.29911e-07
694.857	5.6706e-06
703.415	0.000154912
711.973	0.000130627
720.53	0.000278381
729.088	4.82326e-05
737.645	2.28532e-06
746.203	5.70094e-07
754.761	-1.02788e-06
763.318	5.87177e-07
771.876	-1.3922e-06
780.434	-1.67188e-06
788.991	-9.75499e-08
797.549	-2.03622e-06
806.107	-7.14367e-07
814.664	-1.08226e-06
823.222	-2.15001e-06
831.78	-3.25346e-07
840.337	-5.99167e-07
848.895	-6.44406e-07
857.453	-1.05432e-06
866.01	-5.56096e-07
874.568	-4.45653e-07
883.126	-1.01902e-06
891.683	6.68968e-07
900.241	2.11576e-06
908.799	-7.38769e-07
917.356	-9.1811e-07
925.914	-1.84609e-07
934.472	-1.18282e-06
943.029	-1.05295e-06
951.587	-1.44513e-06
960.145	-2.81897e-07
968.702	-1.04158e-06
977.26	-1.14301e-06
985.818	-1.28389e-06
994.375	-2.9281e-07
1002.93	-1.74306e-07
1011.49	1.27922e-06
1020.05	2.56896e-06
1028.61	3.08461e-06
1037.16	1.83169e-06
1045.72	-1.9574e-07
1054.28	7.8638e-07
1062.84	2.34801e-06
1071.39	8.04234e-07
1079.95	9.60599e-07
1088.51	1.35094e-05
1097.07	0.000120763
1105.62	0.00126144
1114.18	0.00272354
1122.74	0.00246527
1131.3	0.000151903
1139.86	0.00012391
1148.41	0.000101945
1156.97	6.30268e-06
1165.53	2.39933e-06
1174.09	3.91656e-06
1182.64	7.18224e-06
1191.2	1.96827e-05
1199.76	6.60152e-05
1208.32	7.28131e-05
1216.87	2.37592e-05
1225.43	4.6706e-05
1233.99	0.000555778
1242.55	0.00531827
1251.1	0.0124499
1259.66	0.00239097
1268.22	0.00011755
1276.78	1.46172e-05
1285.34	1.09807e-05
1293.89	1.29468e-05
1302.45	2.86862e-05
1311.01	6.3331e-05
1319.57	0.000113421
1328.12	0.000139814
1336.68	0.000105792
1345.24	5.62524e-05
1353.8	1.53133e-05
1362.35	1.19787e-06
1370.91	6.97429e-08
1379.47	-8.03477e-07
1388.03	-4.0315e-07
1396.59	-1.37172e-06
1405.14	-1.72437e-06
1413.7	-4.8807e-07
1422.26	-4.2828e-07
1430.82	5.64142e-07
1439.37	4.61242e-06
1447.93	6.85992e-06
1456.49	6.02515e-06
1465.05	4.65897e-06
1473.6	1.20104e-06
1482.16	-1.15861e-06
1490.72	-1.17227e-06
1499.28	-1.46751e-06
1507.83	-1.24373e-06
1516.39	-1.52055e-06
1524.95	-1.82826e-06
1533.51	-1.16022e-06
1542.07	-2.84692e-06
1550.62	-1.27439e-06
1559.18	-1.55528e-06
1567.74	-2.00043e-06
1576.3	-3.30236e-06
1584.85	-1.22624e-06
1593.41	4.0057e-06
1601.97	6.55456e-06
1610.53	3.82346e-06
1619.08	9.09414e-06
1627.64	1.33903e-05
1636.2	1.14199e-05
1644.76	5.06573e-06
1653.31	-3.52632e-06
1661.87	-1.97387e-06
1670.43	-1.49576e-06
1678.99	-1.19734e-06
1687.55	-1.48686e-06
1696.1	-1.76509e-06
1704.66	2.60317e-07
1713.22	2.38674e-06
1721.78	7.35387e-06
1730.33	1.02415e-05
1738.89	8.77347e-06
1747.45	3.63701e-06
1756.01	2.28684e-07
1764.56	-9.36721e-07
1773.12	-1.09741e-06
1781.68	-1.66023e-06
1790.24	-2.14506e-06
1798.79	-1.69847e-06
1807.35	-1.69588e-06
1815.91	-1.78823e-06
1824.47	-9.98257e-07
1833.03	-1.98815e-06
1841.58	-5.23094e-07
1850.14	1.18957e-06
1858.7	5.89423e-06
1867.26	1.08213e-05
1875.81	5.60985e-06
1884.37	1.01016e-06
1892.93	-2.25158e-06
1901.49	-2.09313e-06
1910.04	-1.48948e-06
1918.6	-3.62029e-08
1927.16	1.82021e-06
1935.72	1.91957e-06
1944.28	3.10123e-06
1952.83	2.17939e-06
1961.39	1.02624e-06
1969.95	-9.90385e-07
1978.51	-1.6565e-06
1987.06	-1.52087e-06
1995.62	-2.1674e-06
2004.18	-2.13468e-06
2012.74	-1.73381e-06
2021.29	-2.4163e-06
2029.85	-1.8038e-06
2038.41	-3.48831e-07
2046.97	1.2655e-05
2055.52	2.3971e-05
2064.08	2.76991e-06
2072.64	-1.3517e-06
2081.2	-2.12042e-06
2089.76	-2.67961e-06
2098.31	-2.68744e-06
2106.87	-2.04878e-06
2115.43	-1.47279e-06
2123.99	-4.41434e-07
2132.54	-9.48114e-07
2141.1	-1.92513e-06
2149.66	-1.32173e-06
2158.22	-9.99334e-07
2166.77	-2.13997e-06
2175.33	-1.42981e-06
2183.89	-2.04734e-06
2192.45	-1.98612e-06
2201	-3.93053e-06
2209.56	-5.09943e-06
2218.12	-7.51067e-06
2226.68	-8.84176e-06
2235.24	-5.84405e-06
2243.79	-8.3512e-06
2252.35	-6.51976e-06
2260.91	-3.13538e-06
2269.47	-2.50778e-06
2278.02	-3.0545e-06
2286.58	-2.66061e-06
2295.14	-2.38943e-06
2303.7	-3.71586e-06
2312.25	-1.33812e-06
2320.81	-2.65452e-06
2329.37	-5.43407e-07
2337.93	4.10901e-06
2346.49	1.68501e-05
2355.04	1.45459e-05
2363.6	3.14478e-06
2372.16	-1.02365e-06
2380.72	-2.20395e-06
2389.27	-1.41826e-06
2397.83	-2.69949e-06
2406.39	-1.97253e-06
2414.95	-1.6557e-06
2423.5	-1.80427e-06
2432.06	-7.34767e-07
2440.62	2.23634e-07
2449.18	2.07889e-06
2457.73	5.78082e-06
2466.29	7.18656e-06
2474.85	4.44881e-06
2483.41	-3.07626e-06
2491.97	-3.62187e-06
2500.52	-7.28147e-06
2509.08	-9.55996e-06
2517.64	-7.97341e-06
2526.2	-1.54431e-06
2534.75	4.40692e-07
2543.31	-1.08275e-06
2551.87	-1.23592e-06
2560.43	-1.14186e-06
2568.98	-3.07448e-07
2577.54	-1.37308e-06
2586.1	-1.25459e-06
2594.66	-1.59744e-06
2603.21	-2.23997e-06
2611.77	-2.67852e-06
2620.33	-2.88295e-06
2628.89	-1.68684e-06
2637.45	-2.22729e-06
2646	-4.6441e-07
2654.56	5.06902e-06
2663.12	1.34899e-05
2671.68	8.7476e-06
2680.23	-2.60812e-07
2688.79	-2.37731e-06
2697.35	-3.0788e-06
2705.91	-1.38878e-06
2714.46	-1.9858e-06
2723.02	-1.66522e-06
2731.58	-2.58196e-06
2740.14	-1.92633e-06
2748.69	-2.03084e-06
2757.25	-2.71449e-06
2765.81	-2.05892e-06
2774.37	-2.92271e-06
2782.93	-2.29257e-06
2791.48	-2.66456e-06
2800.04	-2.5749e-06
2808.6	-3.09382e-06
2817.16	-2.11628e-06
2825.71	-2.24296e-06
2834.27	-3.42616e-06
2842.83	-2.71526e-06
2851.39	-1.9879e-06
2859.94	-2.05949e-06
2868.5	-3.49669e-06
2877.06	-2.06581e-06
2885.62	-2.756e-06
2894.18	-3.56879e-06
2902.73	-1.3002e-06
2911.29	-3.38957e-06
2919.85	-2.60352e-06
2928.41	-3.82333e-06
2936.96	-2.32695e-06
2945.52	-3.04053e-06
2954.08	-2.35332e-06
2962.64	-1.43259e-06
2971.19	-2.00677e-06
2979.75	-2.80511e-06
2988.31	-3.67362e-06
2996.87	-1.83997e-06
3005.42	-2.9155e-06
3013.98	-1.94499e-06
3022.54	-2.93377e-06
3031.1	-1.57426e-06
3039.66	-2.48429e-06
3048.21	-4.09395e-06
3056.77	-2.68542e-06
3065.33	-2.93342e-06
3073.89	-1.85947e-06
3082.44	-2.72919e-06
3091	-2.93246e-06
3099.56	-4.67844e-07
3108.12	-1.81521e-06
3116.67	-2.45144e-06
3125.23	-1.43796e-06
3133.79	-1.85304e-06
3142.35	-1.94211e-06
3150.9	-1.76512e-06
3159.46	-1.34793e-06
3168.02	-2.47233e-06
3176.58	-2.38172e-06
3185.14	-1.33382e-06
3193.69	-2.75829e-06
3202.25	-1.76837e-06
3210.81	-1.85505e-06
3219.37	-2.24551e-06
3227.92	-2.86156e-06
3236.48	-1.99948e-06
3245.04	-1.95763e-06
3253.6	-3.28576e-06
3262.15	-2.10419e-06
3270.71	-2.73022e-06
3279.27	-2.12314e-06
3287.83	-2.06639e-06
3296.38	-2.71082e-06
3304.94	-2.39537e-06
3313.5	-1.83813e-06
3322.06	-2.56502e-06
3330.62	-3.69211e-06
3339.17	-4.94951e-06
3347.73	-3.76845e-06
3356.29	-3.06136e-06
3364.85	-5.82754e-06
3373.4	-1.75498e-06
3381.96	-2.87992e-06
3390.52	-3.23942e-06
3399.08	-5.07779e-06
3407.63	-2.5185e-06
3416.19	-4.25927e-06
3424.75	-2.42162e-06
3433.31	-2.41698e-06
3441.87	-3.33544e-06
3450.42	-3.65975e-06
3458.98	-2.35998e-06
3467.54	-1.36987e-06
3476.1	-1.69831e-06
3484.65	-3.80248e-06
3493.21	-2.77297e-06
3501.77	-2.27278e-06
3510.33	-3.34909e-06
3518.88	-3.47353e-06
3527.44	-2.74844e-06
3536	-1.84434e-06
3544.56	-4.17221e-06
3553.11	-1.29791e-06
3561.67	-3.2761e-06
3570.23	-1.98214e-06
3578.79	-2.2409e-06
3587.35	-4.46848e-06
3595.9	-2.41427e-06
3604.46	-4.46735e-06
3613.02	-2.61316e-06
3621.58	-4.03213e-06
3630.13	-3.09095e-06
3638.69	-2.9847e-06
3647.25	-3.67327e-06
3655.81	-3.12801e-06
3664.36	-3.6967e-06
3672.92	-2.72648e-06
3681.48	-2.57743e-06
3690.04	-2.76271e-06
3698.59	-2.53163e-06
3707.15	-3.30201e-06
3715.71	-3.81306e-06
3724.27	-3.55593e-06
3732.83	-3.85674e-06
3741.38	-5.29697e-06
3749.94	-3.65771e-06
3758.5	-3.24087e-06
3767.06	-4.35133e-06
3775.61	-4.44011e-06
3784.17	-4.62118e-06
3792.73	-3.7471e-06
3801.29	-5.22918e-06
3809.84	-3.23591e-06
3818.4	-3.98936e-06
3826.96	-1.56442e-06
3835.52	-2.61844e-06
3844.08	-2.69288e-06
3852.63	-3.14734e-06
3861.19	-1.7091e-06
3869.75	-3.45834e-06
3878.31	-3.8687e-06
3886.86	-3.26084e-06
3895.42	-2.29452e-06
3903.98	-4.18465e-06
3912.54	-2.87921e-06
3921.09	-3.08296e-06
3929.65	-2.64185e-06
3938.21	-4.50805e-06
3946.77	-4.11569e-06
3955.32	-4.14078e-06
3963.88	-2.88942e-06
3972.44	-3.89242e-06
