Infrared Spectrum: Hexafluoroethane
Formula: C2 F6
CAS: 76-16-4
State: gas
Melting point: -94 C
Boiling point: -79 C
Class: IUPAC A
Instrument: IFS66V (Bruker)
Instrument parameters: KBr Beam Splitter; MCT Detector; Multipass cell
Sampling: 1 L/min Flow
Resolution: 0.4820
Temperature: 23 C
Pressure: 101.3 Pa
Origin: NIST, Analytical Chemistry Division, 301-975-3108
cm-1	(micromol/mol)-1m-1 (base 10)
575.171	2.77448e-06
583.849	-1.88662e-06
592.527	6.61765e-07
601.206	-2.12037e-07
609.884	1.57267e-07
618.562	-2.72878e-06
627.24	-4.05478e-07
635.918	-3.42359e-06
644.596	-1.43026e-06
653.275	-1.0823e-07
661.953	-2.02672e-06
670.631	-9.16146e-07
679.309	-1.07669e-06
687.987	-1.70247e-07
696.666	1.42131e-05
705.344	0.000216016
714.022	0.000940875
722.7	0.000248955
731.378	2.12345e-05
740.057	5.95907e-07
748.735	-1.77452e-06
757.413	-8.28679e-07
766.091	-2.17271e-06
774.769	5.85809e-07
783.447	-8.12077e-07
792.126	-1.54409e-06
800.804	-1.50156e-06
809.482	-2.22252e-07
818.16	-1.49322e-07
826.838	-1.29201e-06
835.517	7.6029e-08
844.195	-1.55044e-06
852.873	-1.29936e-06
861.551	-1.85899e-06
870.229	1.17296e-07
878.907	-6.51812e-07
887.586	5.9339e-07
896.264	3.99469e-07
904.942	1.52094e-06
913.62	-7.06218e-07
922.298	-1.03309e-06
930.977	-1.344e-06
939.655	-8.64446e-07
948.333	-1.35432e-06
957.011	-9.96423e-07
965.689	-8.98233e-07
974.368	-1.66501e-06
983.046	-4.60612e-07
991.724	-4.48549e-07
1000.4	3.53793e-07
1009.08	9.71614e-07
1017.76	2.9611e-06
1026.44	5.05224e-06
1035.11	3.96721e-06
1043.79	-2.1809e-07
1052.47	9.45233e-08
1061.15	2.03404e-06
1069.83	2.07051e-06
1078.51	9.65182e-07
1087.18	1.14004e-05
1095.86	9.08299e-05
1104.54	0.00102979
1113.22	0.00192357
1121.9	0.00240877
1130.57	0.000213101
1139.25	0.000170408
1147.93	0.000110277
1156.61	8.6968e-06
1165.29	3.24173e-06
1173.97	5.08029e-06
1182.64	8.53953e-06
1191.32	2.17199e-05
1200	6.8623e-05
1208.68	7.094e-05
1217.36	2.81791e-05
1226.03	6.35464e-05
1234.71	0.000720838
1243.39	0.00630253
1252.07	0.0118627
1260.75	0.00176578
1269.43	8.96196e-05
1278.1	1.9599e-05
1286.78	1.40404e-05
1295.46	1.64116e-05
1304.14	3.65921e-05
1312.82	7.43339e-05
1321.49	0.000123067
1330.17	0.000136165
1338.85	9.34435e-05
1347.53	4.33045e-05
1356.21	1.13113e-05
1364.89	1.73135e-06
1373.56	1.0273e-07
1382.24	-6.78091e-07
1390.92	-9.17892e-07
1399.6	-1.57282e-07
1408.28	-1.01249e-06
1416.95	-8.43536e-07
1425.63	-8.81994e-07
1434.31	2.85153e-06
1442.99	6.24414e-06
1451.67	7.37074e-06
1460.35	6.50411e-06
1469.02	4.27728e-06
1477.7	4.33576e-07
1486.38	-7.66867e-07
1495.06	-1.24311e-06
1503.74	-1.0979e-06
1512.41	-9.84099e-07
1521.09	-2.13517e-06
1529.77	-1.14014e-06
1538.45	-1.764e-06
1547.13	-1.09082e-06
1555.81	-1.1361e-06
1564.48	-1.36871e-06
1573.16	-1.32816e-06
1581.84	-1.01682e-06
1590.52	1.77399e-06
1599.2	7.84095e-06
1607.88	3.93952e-06
1616.55	5.28543e-06
1625.23	1.2266e-05
1633.91	1.4663e-05
1642.59	7.87513e-06
1651.27	4.97295e-07
1659.94	-1.26115e-06
1668.62	-2.07756e-06
1677.3	-1.15772e-06
1685.98	-1.08387e-06
1694.66	-9.6249e-07
1703.34	1.74685e-07
1712.01	2.03555e-06
1720.69	5.631e-06
1729.37	9.85161e-06
1738.05	8.45339e-06
1746.73	4.30353e-06
1755.4	5.47801e-07
1764.08	-7.53669e-07
1772.76	-2.12223e-06
1781.44	-1.26908e-06
1790.12	-1.8205e-06
1798.8	-1.82208e-06
1807.47	-1.61424e-06
1816.15	-1.97274e-06
1824.83	-1.54446e-06
1833.51	-9.97573e-07
1842.19	-8.99339e-07
1850.86	1.3931e-06
1859.54	6.2953e-06
1868.22	1.00596e-05
1876.9	5.09723e-06
1885.58	-3.85369e-07
1894.26	-2.07695e-06
1902.93	-1.7315e-06
1911.61	-1.03344e-06
1920.29	7.94848e-07
1928.97	2.3727e-06
1937.65	2.75851e-06
1946.32	2.70969e-06
1955	2.65823e-06
1963.68	5.58715e-07
1972.36	-1.13892e-06
1981.04	-1.5663e-06
1989.72	-1.82465e-06
1998.39	-1.8344e-06
2007.07	-1.57587e-06
2015.75	-1.83321e-06
2024.43	-1.74557e-06
2033.11	-1.43386e-06
2041.78	2.71139e-06
2050.46	2.08184e-05
2059.14	1.54796e-05
2067.82	-1.11743e-06
2076.5	-1.85294e-06
2085.18	-1.99788e-06
2093.85	-2.41557e-06
2102.53	-1.8358e-06
2111.21	-1.76157e-06
2119.89	-1.25629e-06
2128.57	-1.25734e-06
2137.24	-7.69151e-07
2145.92	-1.38809e-06
2154.6	-1.30288e-06
2163.28	-2.06563e-06
2171.96	-1.75177e-06
2180.64	-2.0804e-06
2189.31	-2.34089e-06
2197.99	-2.6264e-06
2206.67	-5.30396e-06
2215.35	-7.18469e-06
2224.03	-6.97803e-06
2232.7	-9.5328e-06
2241.38	-8.79631e-06
2250.06	-7.49176e-06
2258.74	-3.54899e-06
2267.42	-2.61055e-06
2276.1	-2.7497e-06
2284.77	-2.60798e-06
2293.45	-3.19064e-06
2302.13	-2.04801e-06
2310.81	-2.84536e-06
2319.49	-3.14348e-06
2328.16	-9.42003e-07
2336.84	4.77501e-06
2345.52	1.37182e-05
2354.2	1.27298e-05
2362.88	-5.38252e-06
2371.56	-4.31369e-06
2380.23	-1.31903e-06
2388.91	-1.64103e-06
2397.59	-2.12055e-06
2406.27	-2.15109e-06
2414.95	-1.74427e-06
2423.62	-1.59207e-06
2432.3	-8.76465e-07
2440.98	4.07137e-08
2449.66	2.28247e-06
2458.34	5.98571e-06
2467.02	7.55677e-06
2475.69	3.52456e-06
2484.37	-2.23901e-06
2493.05	-4.29631e-06
2501.73	-7.9689e-06
2510.41	-1.03899e-05
2519.08	-6.3636e-06
2527.76	-1.19967e-06
2536.44	1.32792e-07
2545.12	-1.8972e-06
2553.8	-1.18874e-06
2562.48	-1.14279e-06
2571.15	-9.12697e-07
2579.83	-1.22514e-06
2588.51	-1.56132e-06
2597.19	-2.10285e-06
2605.87	-2.29308e-06
2614.54	-2.38136e-06
2623.22	-2.57657e-06
2631.9	-2.19292e-06
2640.58	-1.4357e-06
2649.26	1.76587e-06
2657.94	8.50502e-06
2666.61	1.20114e-05
2675.29	4.27407e-06
2683.97	-2.10364e-06
2692.65	-2.23743e-06
2701.33	-2.29642e-06
2710	-2.28116e-06
2718.68	-2.13628e-06
2727.36	-2.22194e-06
2736.04	-1.70167e-06
2744.72	-2.39773e-06
2753.4	-2.30396e-06
2762.07	-2.054e-06
2770.75	-2.23586e-06
2779.43	-2.40995e-06
2788.11	-2.13922e-06
2796.79	-2.31087e-06
2805.46	-2.36935e-06
2814.14	-2.56668e-06
2822.82	-1.87724e-06
2831.5	-3.07064e-06
2840.18	-2.62145e-06
2848.86	-1.78923e-06
2857.53	-1.51722e-06
2866.21	-2.81997e-06
2874.89	-3.06587e-06
2883.57	-2.04577e-06
2892.25	-2.63801e-06
2900.92	-2.44953e-06
2909.6	-3.02882e-06
2918.28	-2.69816e-06
2926.96	-2.58174e-06
2935.64	-2.51987e-06
2944.32	-2.71731e-06
2952.99	-2.26448e-06
2961.67	-2.0287e-06
2970.35	-2.82061e-06
2979.03	-2.01635e-06
2987.71	-2.94616e-06
2996.38	-2.49855e-06
3005.06	-2.06933e-06
3013.74	-2.07809e-06
3022.42	-2.48538e-06
3031.1	-2.13241e-06
3039.78	-2.44126e-06
3048.45	-3.693e-06
3057.13	-2.21134e-06
3065.81	-2.18763e-06
3074.49	-2.70409e-06
3083.17	-1.96417e-06
3091.84	-2.37295e-06
3100.52	-1.9253e-06
3109.2	-2.05163e-06
3117.88	-1.89835e-06
3126.56	-1.85295e-06
3135.24	-2.35787e-06
3143.91	-1.61107e-06
3152.59	-2.07116e-06
3161.27	-2.31103e-06
3169.95	-1.65932e-06
3178.63	-2.84868e-06
3187.3	-3.14625e-06
3195.98	-2.83098e-06
3204.66	-3.00314e-06
3213.34	-3.10508e-06
3222.02	-1.93927e-06
3230.7	-2.02703e-06
3239.37	-2.32531e-06
3248.05	-2.67328e-06
3256.73	-2.8642e-06
3265.41	-1.80649e-06
3274.09	-2.71907e-06
3282.76	-2.39953e-06
3291.44	-2.01457e-06
3300.12	-2.82582e-06
3308.8	-3.08972e-06
3317.48	-2.69343e-06
3326.16	-2.14067e-06
3334.83	-1.47626e-06
3343.51	-1.59638e-06
3352.19	-3.88055e-06
3360.87	-2.09502e-06
3369.55	-3.10852e-06
3378.22	-3.70994e-06
3386.9	-3.21858e-06
3395.58	-3.49627e-06
3404.26	-2.90597e-06
3412.94	-2.06323e-06
3421.62	-2.82092e-06
3430.29	-2.77239e-06
3438.97	-3.36023e-06
3447.65	-3.19221e-06
3456.33	-2.14261e-06
3465.01	-2.72555e-06
3473.68	-2.72792e-06
3482.36	-3.37542e-06
3491.04	-2.90217e-06
3499.72	-3.33292e-06
3508.4	-2.7709e-06
3517.08	-1.97994e-06
3525.75	-2.89189e-06
3534.43	-3.34043e-06
3543.11	-2.83938e-06
3551.79	-2.88002e-06
3560.47	-3.72162e-06
3569.14	-3.03768e-06
3577.82	-3.80036e-06
3586.5	-3.65357e-06
3595.18	-3.72094e-06
3603.86	-3.07556e-06
3612.54	-2.98971e-06
3621.21	-2.67759e-06
3629.89	-3.00937e-06
3638.57	-2.88424e-06
3647.25	-3.09807e-06
3655.93	-2.06409e-06
3664.6	-2.98796e-06
3673.28	-3.2074e-06
3681.96	-2.37205e-06
3690.64	-2.94917e-06
3699.32	-3.16467e-06
3708	-3.02291e-06
3716.67	-3.11969e-06
3725.35	-3.89529e-06
3734.03	-3.89306e-06
3742.71	-4.23366e-06
3751.39	-4.50113e-06
3760.06	-4.8517e-06
3768.74	-4.79642e-06
3777.42	-4.12272e-06
3786.1	-3.5705e-06
3794.78	-2.98309e-06
3803.46	-3.01751e-06
3812.13	-2.56429e-06
3820.81	-3.46116e-06
3829.49	-2.20881e-06
3838.17	-4.0911e-06
3846.85	-3.30906e-06
3855.52	-3.22353e-06
3864.2	-3.5543e-06
3872.88	-2.7028e-06
3881.56	-2.88644e-06
3890.24	-3.07173e-06
3898.92	-3.31734e-06
3907.59	-2.39642e-06
3916.27	-3.12004e-06
3924.95	-3.38197e-06
3933.63	-2.80863e-06
3942.31	-4.25874e-06
3950.98	-2.98709e-06
3959.66	-2.80743e-06
3968.34	-3.54033e-06
