Infrared Spectrum: 1,1,2-TRICHLORO-1,2,2-TRIFLUORO ETHANE
Formula: C2 Cl3 F3
CAS: 76-13-1
State: SOLUTION (10% CCl4 FOR 5000-1330, 10% CS2 FOR 1330-625 CM^-^1)
Boiling point: 47.6 C
Class: COBLENTZ
Instrument: Not specified, most likely a prism, grating, or hybrid spectrometer.
Sampling: TRANSMISSION
Path length: 0.0113 CM, 0.0109 CM
Resolution: 4
Origin: DOW CHEMICAL COMPANY
MICROMETERS	TRANSMITTANCE
2.034	0.839
2.07498	0.839
2.11595	0.839
2.15693	0.84
2.19791	0.844
2.23889	0.844
2.27986	0.842
2.32084	0.842
2.36182	0.844
2.4028	0.847
2.44377	0.852
2.48475	0.859
2.52573	0.861
2.56671	0.861
2.60768	0.861
2.64866	0.863
2.68964	0.859
2.73062	0.859
2.77159	0.849
2.81257	0.842
2.85355	0.839
2.89452	0.837
2.9355	0.833
2.97648	0.833
3.01746	0.832
3.05843	0.828
3.09941	0.83
3.14039	0.839
3.18137	0.837
3.22234	0.837
3.26332	0.839
3.3043	0.837
3.34528	0.84
3.38625	0.842
3.42723	0.849
3.46821	0.847
3.50919	0.849
3.55016	0.842
3.59114	0.844
3.63212	0.847
3.67309	0.854
3.71407	0.856
3.75505	0.859
3.79603	0.859
3.837	0.859
3.87798	0.861
3.91896	0.859
3.95994	0.861
4.00091	0.861
4.04189	0.857
4.08287	0.857
4.12385	0.857
4.16482	0.849
4.2058	0.847
4.24678	0.832
4.28776	0.825
4.32873	0.83
4.36971	0.84
4.41069	0.844
4.45167	0.847
4.49264	0.849
4.53362	0.839
4.5746	0.854
4.61557	0.859
4.65655	0.856
4.69753	0.861
4.73851	0.861
4.77948	0.861
4.82046	0.869
4.86144	0.869
4.90242	0.869
4.94339	0.869
4.98437	0.864
5.02535	0.866
5.06633	0.875
5.1073	0.878
5.14828	0.878
5.18926	0.878
5.23024	0.871
5.27121	0.876
5.31219	0.873
5.35317	0.869
5.39414	0.861
5.43512	0.861
5.4761	0.861
5.51708	0.869
5.55805	0.871
5.59903	0.873
5.64001	0.873
5.68099	0.875
5.72196	0.878
5.76294	0.871
5.80392	0.871
5.8449	0.868
5.88587	0.866
5.92685	0.863
5.96783	0.863
6.00881	0.859
6.04978	0.857
6.09076	0.847
6.13174	0.839
6.17271	0.82
6.21369	0.768
6.25467	0.696
6.29565	0.64
6.33662	0.614
6.3776	0.57
6.41858	0.501
6.45956	0.481
6.50053	0.561
6.54151	0.621
6.58249	0.672
6.62347	0.732
6.66444	0.782
6.70542	0.82
6.7464	0.837
6.78738	0.856
6.82835	0.859
6.86933	0.866
6.91031	0.871
6.95128	0.869
6.99226	0.868
7.03324	0.857
7.07422	0.854
7.11519	0.859
7.15617	0.859
7.19715	0.859
7.23813	0.849
7.2791	0.844
7.32008	0.847
7.36106	0.854
7.40204	0.854
7.44301	0.845
7.48399	0.851
7.52497	0.864
7.56595	0.871
7.60692	0.875
7.6479	0.871
7.68888	0.873
7.72985	0.88
7.77083	0.875
7.81181	0.869
7.85279	0.868
7.89376	0.859
7.93474	0.851
7.97572	0.84
8.0167	0.827
8.05767	0.82
8.09865	0.827
8.13963	0.782
8.18061	0.667
8.22158	0.344
8.26256	0.114
8.30354	0.148
8.34452	0.357
8.38549	0.428
8.42647	0.349
8.46745	0.265
8.50842	0.113
8.5494	0.029
8.59038	0.037
8.63136	0.095
8.67233	0.263
8.71331	0.527
8.75429	0.618
8.79527	0.636
8.83624	0.657
8.87722	0.657
8.9182	0.587
8.95918	0.417
9.00015	0.16
9.04113	0.03
9.08211	0.025
9.12309	0.118
9.16406	0.25
9.20504	0.419
9.24602	0.568
9.287	0.664
9.32797	0.698
9.36895	0.702
9.40993	0.684
9.4509	0.667
9.49188	0.601
9.53286	0.428
9.57384	0.167
9.61481	0.054
9.65579	0.08
9.69677	0.065
9.73775	0.085
9.77872	0.342
9.8197	0.554
9.86068	0.654
9.90166	0.702
9.94263	0.744
9.98361	0.784
10.0246	0.811
10.0656	0.83
10.1065	0.83
10.1475	0.83
10.1885	0.83
10.2295	0.82
10.2705	0.809
10.3114	0.799
10.3524	0.796
10.3934	0.808
10.4344	0.825
10.4753	0.828
10.5163	0.828
10.5573	0.823
10.5983	0.811
10.6392	0.797
10.6802	0.777
10.7212	0.726
10.7622	0.631
10.8032	0.474
10.8441	0.404
10.8851	0.404
10.9261	0.409
10.9671	0.339
11.008	0.202
11.049	0.099
11.09	0.032
11.131	0.011
11.172	0.01
11.2129	0.041
11.2539	0.119
11.2949	0.155
11.3359	0.15
11.3768	0.181
11.4178	0.246
11.4588	0.258
11.4998	0.25
11.5408	0.32
11.5817	0.434
11.6227	0.505
11.6637	0.539
11.7047	0.554
11.7456	0.556
11.7866	0.568
11.8276	0.599
11.8686	0.638
11.9095	0.648
11.9505	0.648
11.9915	0.628
12.0325	0.619
12.0735	0.613
12.1144	0.592
12.1554	0.52
12.1964	0.419
12.2374	0.323
12.2783	0.208
12.3193	0.097
12.3603	0.02
12.4013	0.003
12.4423	0
12.4832	0
12.5242	0.047
12.5652	0.19
12.6062	0.354
12.6471	0.445
12.6881	0.46
12.7291	0.474
12.7701	0.527
12.811	0.587
12.852	0.642
12.893	0.684
12.934	0.714
12.975	0.738
13.0159	0.753
13.0569	0.765
13.0979	0.768
13.1389	0.773
13.1798	0.775
13.2208	0.772
13.2618	0.761
13.3028	0.75
13.3438	0.746
13.3847	0.75
13.4257	0.756
13.4667	0.758
13.5077	0.758
13.5486	0.758
13.5896	0.758
13.6306	0.758
13.6716	0.756
13.7126	0.751
13.7535	0.746
13.7945	0.743
13.8355	0.739
13.8765	0.736
13.9174	0.731
13.9584	0.727
13.9994	0.72
14.0404	0.714
14.0813	0.707
14.1223	0.702
14.1633	0.695
14.2043	0.69
14.2453	0.683
14.2862	0.679
14.3272	0.672
14.3682	0.666
14.4092	0.66
14.4501	0.654
14.4911	0.647
14.5321	0.64
14.5731	0.633
14.6141	0.625
14.655	0.613
14.696	0.607
14.737	0.599
14.778	0.589
14.8189	0.578
14.8599	0.57
14.9009	0.563
14.9419	0.553
14.9828	0.544
15.0238	0.532
15.0648	0.515
15.1058	0.501
15.1468	0.484
15.1877	0.47
15.2287	0.452
15.2697	0.426
15.3107	0.397
15.3516	0.363
15.3926	0.351
15.4336	0.347
15.4746	0.356
15.5156	0.373
15.5565	0.385
15.5975	0.388
15.6385	0.39
15.6795	0.39
15.7204	0.39
15.7614	0.39
15.8024	0.392
15.8434	0.386
15.8844	0.383
