Infrared Spectrum: Hexafluoroethane
Formula: C2 F6
CAS: 76-16-4
State: gas
Melting point: -94 C
Boiling point: -79 C
Class: IUPAC A
Instrument: IFS66V (Bruker)
Instrument parameters: KBr Beam Splitter; MCT Detector; Multipass cell
Sampling: 1 L/min Flow
Resolution: 0.4820
Temperature: 23 C
Pressure: 101.3 Pa
Origin: NIST, Analytical Chemistry Division, 301-975-3108
cm-1	(micromol/mol)-1m-1 (base 10)
575.171	2.83026e-06
583.849	-2.16816e-06
592.527	9.50253e-07
601.206	-3.34688e-07
609.884	-6.54213e-08
618.562	-3.13784e-06
627.24	-3.1532e-07
635.918	-3.72575e-06
644.596	-1.62193e-06
653.275	-3.03025e-07
661.953	-2.256e-06
670.631	-8.64228e-07
679.309	-1.26415e-06
687.987	-5.14145e-07
696.666	1.3182e-05
705.344	0.000218246
714.022	0.00101209
722.7	0.000251087
731.378	2.01096e-05
740.057	1.28762e-07
748.735	-2.21863e-06
757.413	-1.0165e-06
766.091	-2.41983e-06
774.769	5.4476e-07
783.447	-9.85248e-07
792.126	-1.63852e-06
800.804	-1.63687e-06
809.482	-2.00047e-07
818.16	-8.41921e-08
826.838	-1.3266e-06
835.517	-2.9102e-10
844.195	-1.64239e-06
852.873	-1.33523e-06
861.551	-2.01208e-06
870.229	9.41304e-08
878.907	-7.74433e-07
887.586	6.1558e-07
896.264	2.62471e-07
904.942	1.50345e-06
913.62	-8.03084e-07
922.298	-1.09271e-06
930.977	-1.46988e-06
939.655	-9.36211e-07
948.333	-1.50376e-06
957.011	-1.05323e-06
965.689	-9.69242e-07
974.368	-1.8476e-06
983.046	-5.58075e-07
991.724	-6.15376e-07
1000.4	2.11935e-07
1009.08	7.60101e-07
1017.76	2.75573e-06
1026.44	4.80826e-06
1035.11	3.75358e-06
1043.79	-6.8218e-07
1052.47	-4.23987e-07
1061.15	1.42476e-06
1069.83	1.25598e-06
1078.51	-2.63999e-07
1087.18	9.12624e-06
1095.86	8.52319e-05
1104.54	0.00103107
1113.22	0.00190701
1121.9	0.00244112
1130.57	0.000199961
1139.25	0.000171333
1147.93	0.00010962
1156.61	6.85588e-06
1165.29	1.8994e-06
1173.97	3.82332e-06
1182.64	7.13564e-06
1191.32	1.99411e-05
1200	6.69051e-05
1208.68	6.82839e-05
1217.36	2.29658e-05
1226.03	5.29042e-05
1234.71	0.000694849
1243.39	0.0063124
1252.07	0.011981
1260.75	0.00173
1269.43	7.38648e-05
1278.1	1.33073e-05
1286.78	1.05374e-05
1295.46	1.40896e-05
1304.14	3.50152e-05
1312.82	7.32568e-05
1321.49	0.000122675
1330.17	0.000136059
1338.85	9.30699e-05
1347.53	4.27476e-05
1356.21	1.07846e-05
1364.89	1.28106e-06
1373.56	-2.90874e-07
1382.24	-9.79006e-07
1390.92	-1.19855e-06
1399.6	-3.50985e-07
1408.28	-1.24792e-06
1416.95	-1.00406e-06
1425.63	-1.03094e-06
1434.31	2.69013e-06
1442.99	6.12858e-06
1451.67	7.25328e-06
1460.35	6.44491e-06
1469.02	4.21136e-06
1477.7	3.42414e-07
1486.38	-8.83231e-07
1495.06	-1.33843e-06
1503.74	-1.15966e-06
1512.41	-1.07749e-06
1521.09	-2.31581e-06
1529.77	-1.19179e-06
1538.45	-1.7738e-06
1547.13	-1.13859e-06
1555.81	-1.12126e-06
1564.48	-1.42569e-06
1573.16	-1.35999e-06
1581.84	-1.08565e-06
1590.52	1.71987e-06
1599.2	7.88759e-06
1607.88	3.86934e-06
1616.55	5.12242e-06
1625.23	1.22915e-05
1633.91	1.47805e-05
1642.59	7.87727e-06
1651.27	4.71409e-07
1659.94	-1.30089e-06
1668.62	-2.14352e-06
1677.3	-1.20815e-06
1685.98	-1.10545e-06
1694.66	-9.66754e-07
1703.34	1.58591e-07
1712.01	2.00488e-06
1720.69	5.61076e-06
1729.37	9.86967e-06
1738.05	8.46737e-06
1746.73	4.29828e-06
1755.4	4.93279e-07
1764.08	-7.7292e-07
1772.76	-2.23543e-06
1781.44	-1.26447e-06
1790.12	-1.83124e-06
1798.8	-1.80975e-06
1807.47	-1.61317e-06
1816.15	-1.99031e-06
1824.83	-1.60733e-06
1833.51	-1.02193e-06
1842.19	-9.55972e-07
1850.86	1.33577e-06
1859.54	6.32792e-06
1868.22	1.01561e-05
1876.9	5.10676e-06
1885.58	-4.23478e-07
1894.26	-2.09971e-06
1902.93	-1.72985e-06
1911.61	-1.07215e-06
1920.29	8.11306e-07
1928.97	2.40791e-06
1937.65	2.80802e-06
1946.32	2.72747e-06
1955	2.66877e-06
1963.68	5.30122e-07
1972.36	-1.16593e-06
1981.04	-1.55135e-06
1989.72	-1.85217e-06
1998.39	-1.87069e-06
2007.07	-1.58606e-06
2015.75	-1.8302e-06
2024.43	-1.79152e-06
2033.11	-1.46083e-06
2041.78	2.63599e-06
2050.46	2.09908e-05
2059.14	1.55983e-05
2067.82	-1.24557e-06
2076.5	-1.87834e-06
2085.18	-2.00677e-06
2093.85	-2.47307e-06
2102.53	-1.86356e-06
2111.21	-1.74955e-06
2119.89	-1.2436e-06
2128.57	-1.31394e-06
2137.24	-7.51254e-07
2145.92	-1.38739e-06
2154.6	-1.29414e-06
2163.28	-2.08689e-06
2171.96	-1.74484e-06
2180.64	-2.11099e-06
2189.31	-2.38358e-06
2197.99	-2.59577e-06
2206.67	-5.32152e-06
2215.35	-7.19953e-06
2224.03	-6.96395e-06
2232.7	-9.73475e-06
2241.38	-8.86489e-06
2250.06	-7.48198e-06
2258.74	-3.55721e-06
2267.42	-2.60335e-06
2276.1	-2.74049e-06
2284.77	-2.58481e-06
2293.45	-3.22152e-06
2302.13	-2.03621e-06
2310.81	-2.9214e-06
2319.49	-3.31582e-06
2328.16	-7.28234e-07
2336.84	5.21952e-06
2345.52	1.38272e-05
2354.2	1.26842e-05
2362.88	-5.79496e-06
2371.56	-4.48804e-06
2380.23	-1.32011e-06
2388.91	-1.63042e-06
2397.59	-2.1635e-06
2406.27	-2.17309e-06
2414.95	-1.7435e-06
2423.62	-1.62485e-06
2432.3	-8.88906e-07
2440.98	3.8371e-08
2449.66	2.27642e-06
2458.34	6.02756e-06
2467.02	7.65207e-06
2475.69	3.56514e-06
2484.37	-2.24731e-06
2493.05	-4.25902e-06
2501.73	-7.99071e-06
2510.41	-1.04739e-05
2519.08	-6.3892e-06
2527.76	-1.20121e-06
2536.44	1.34335e-07
2545.12	-1.98557e-06
2553.8	-1.18623e-06
2562.48	-1.13314e-06
2571.15	-8.74413e-07
2579.83	-1.26444e-06
2588.51	-1.53536e-06
2597.19	-2.12966e-06
2605.87	-2.32374e-06
2614.54	-2.3851e-06
2623.22	-2.62077e-06
2631.9	-2.18878e-06
2640.58	-1.41059e-06
2649.26	1.78533e-06
2657.94	8.51396e-06
2666.61	1.21608e-05
2675.29	4.24208e-06
2683.97	-2.15561e-06
2692.65	-2.24049e-06
2701.33	-2.27391e-06
2710	-2.32641e-06
2718.68	-2.15004e-06
2727.36	-2.24264e-06
2736.04	-1.65727e-06
2744.72	-2.45535e-06
2753.4	-2.3203e-06
2762.07	-2.05047e-06
2770.75	-2.19663e-06
2779.43	-2.40841e-06
2788.11	-2.07342e-06
2796.79	-2.27639e-06
2805.46	-2.37171e-06
2814.14	-2.55938e-06
2822.82	-1.85322e-06
2831.5	-3.15515e-06
2840.18	-2.66988e-06
2848.86	-1.7378e-06
2857.53	-1.46683e-06
2866.21	-2.89053e-06
2874.89	-3.11888e-06
2883.57	-1.99226e-06
2892.25	-2.62916e-06
2900.92	-2.43399e-06
2909.6	-3.10763e-06
2918.28	-2.69764e-06
2926.96	-2.62381e-06
2935.64	-2.51467e-06
2944.32	-2.71881e-06
2952.99	-2.28608e-06
2961.67	-2.01798e-06
2970.35	-2.87812e-06
2979.03	-1.99891e-06
2987.71	-3.03292e-06
2996.38	-2.53845e-06
3005.06	-2.07269e-06
3013.74	-2.10119e-06
3022.42	-2.45401e-06
3031.1	-2.11967e-06
3039.78	-2.41833e-06
3048.45	-3.82378e-06
3057.13	-2.22751e-06
3065.81	-2.18166e-06
3074.49	-2.74208e-06
3083.17	-1.93827e-06
3091.84	-2.40823e-06
3100.52	-1.89092e-06
3109.2	-2.02601e-06
3117.88	-1.8917e-06
3126.56	-1.89083e-06
3135.24	-2.34268e-06
3143.91	-1.55918e-06
3152.59	-2.06e-06
3161.27	-2.33373e-06
3169.95	-1.58311e-06
3178.63	-2.88018e-06
3187.3	-3.25858e-06
3195.98	-2.86482e-06
3204.66	-3.04253e-06
3213.34	-3.1172e-06
3222.02	-1.89348e-06
3230.7	-1.97573e-06
3239.37	-2.29417e-06
3248.05	-2.63549e-06
3256.73	-2.93632e-06
3265.41	-1.79763e-06
3274.09	-2.81269e-06
3282.76	-2.42318e-06
3291.44	-2.02359e-06
3300.12	-2.92178e-06
3308.8	-3.11288e-06
3317.48	-2.72945e-06
3326.16	-2.09195e-06
3334.83	-1.39044e-06
3343.51	-1.53353e-06
3352.19	-3.9843e-06
3360.87	-2.06582e-06
3369.55	-3.10728e-06
3378.22	-3.80108e-06
3386.9	-3.15502e-06
3395.58	-3.51172e-06
3404.26	-2.91256e-06
3412.94	-2.02415e-06
3421.62	-2.7982e-06
3430.29	-2.77192e-06
3438.97	-3.34229e-06
3447.65	-3.16928e-06
3456.33	-2.12465e-06
3465.01	-2.70832e-06
3473.68	-2.67861e-06
3482.36	-3.45128e-06
3491.04	-2.86668e-06
3499.72	-3.34657e-06
3508.4	-2.81688e-06
3517.08	-1.9575e-06
3525.75	-2.91404e-06
3534.43	-3.43847e-06
3543.11	-2.78813e-06
3551.79	-2.86007e-06
3560.47	-3.72082e-06
3569.14	-3.05164e-06
3577.82	-3.87759e-06
3586.5	-3.68658e-06
3595.18	-3.76597e-06
3603.86	-3.10152e-06
3612.54	-2.98623e-06
3621.21	-2.6282e-06
3629.89	-3.03914e-06
3638.57	-2.84197e-06
3647.25	-3.06127e-06
3655.93	-1.97655e-06
3664.6	-3.05971e-06
3673.28	-3.27777e-06
3681.96	-2.38505e-06
3690.64	-2.98595e-06
3699.32	-3.21778e-06
3708	-2.9801e-06
3716.67	-3.08718e-06
3725.35	-3.88471e-06
3734.03	-3.9048e-06
3742.71	-4.27174e-06
3751.39	-4.4506e-06
3760.06	-4.89359e-06
3768.74	-4.8756e-06
3777.42	-4.22579e-06
3786.1	-3.56171e-06
3794.78	-2.94492e-06
3803.46	-3.02677e-06
3812.13	-2.56255e-06
3820.81	-3.4767e-06
3829.49	-2.11542e-06
3838.17	-4.19037e-06
3846.85	-3.34228e-06
3855.52	-3.24708e-06
3864.2	-3.61387e-06
3872.88	-2.7075e-06
3881.56	-2.83627e-06
3890.24	-3.06843e-06
3898.92	-3.33001e-06
3907.59	-2.30427e-06
3916.27	-3.13322e-06
3924.95	-3.38592e-06
3933.63	-2.79784e-06
3942.31	-4.38911e-06
3950.98	-2.90643e-06
3959.66	-2.71286e-06
3968.34	-3.61378e-06
