Infrared Spectrum: Hexafluoroethane
Formula: C2 F6
CAS: 76-16-4
State: gas
Melting point: -94 C
Boiling point: -79 C
Class: IUPAC A
Instrument: IFS66V (Bruker)
Instrument parameters: KBr Beam Splitter; MCT Detector; Multipass cell
Sampling: 1 L/min Flow
Resolution: 1.9290
Temperature: 23 C
Pressure: 101.3 Pa
Origin: NIST, Analytical Chemistry Division, 301-975-3108
cm-1	(micromol/mol)-1m-1 (base 10)
575.653	5.40526e-07
584.331	-8.57068e-07
593.009	-2.60814e-06
601.688	4.0363e-07
610.366	7.21308e-07
619.044	-1.20744e-07
627.722	-1.77071e-07
636.4	-1.03541e-06
645.078	-7.14512e-07
653.757	-8.08192e-07
662.435	-1.66762e-06
671.113	2.77342e-08
679.791	-1.22528e-06
688.469	-6.80943e-07
697.148	1.78767e-05
705.826	0.000224538
714.504	0.000546715
723.182	0.000234568
731.86	1.75835e-05
740.539	5.84412e-07
749.217	-7.2058e-07
757.895	-1.22698e-06
766.573	-6.65519e-07
775.251	-2.25206e-07
783.929	-5.67809e-07
792.608	-1.20247e-06
801.286	-1.23733e-06
809.964	-9.63451e-07
818.642	-1.29156e-06
827.32	-6.72765e-07
835.999	-8.71954e-07
844.677	-1.19296e-06
853.355	-1.35543e-06
862.033	-1.13272e-06
870.711	-6.582e-07
879.389	-6.89892e-07
888.068	6.58869e-08
896.746	8.23732e-07
905.424	9.35076e-07
914.102	-4.82438e-07
922.78	-1.16489e-06
931.459	-1.05624e-06
940.137	-1.01386e-06
948.815	-1.19861e-06
957.493	-1.34757e-06
966.171	-1.49746e-06
974.85	-1.58137e-06
983.528	-9.7806e-07
992.206	-5.66791e-07
1000.88	1.50865e-07
1009.56	8.93213e-07
1018.24	2.49676e-06
1026.92	4.67659e-06
1035.6	2.75174e-06
1044.28	-4.08359e-07
1052.95	4.24162e-08
1061.63	2.01237e-06
1070.31	1.29059e-06
1078.99	-2.12285e-07
1087.67	1.14942e-05
1096.34	0.00010198
1105.02	0.0011325
1113.7	0.00242837
1122.38	0.00239312
1131.06	0.000182608
1139.74	0.000137124
1148.41	0.000101083
1157.09	6.16427e-06
1165.77	1.5672e-06
1174.45	3.33833e-06
1183.13	7.28638e-06
1191.8	2.18954e-05
1200.48	6.98393e-05
1209.16	6.17306e-05
1217.84	2.30545e-05
1226.52	6.12996e-05
1235.2	0.000828086
1243.87	0.00696085
1252.55	0.0113685
1261.23	0.00153466
1269.91	6.54971e-05
1278.59	1.29933e-05
1287.26	1.04055e-05
1295.94	1.4568e-05
1304.62	3.65796e-05
1313.3	7.62511e-05
1321.98	0.000124243
1330.66	0.000134789
1339.33	9.06745e-05
1348.01	4.08988e-05
1356.69	9.94996e-06
1365.37	8.99907e-07
1374.05	-1.57791e-07
1382.72	-8.94843e-07
1391.4	-7.3631e-07
1400.08	-1.12398e-06
1408.76	-1.12261e-06
1417.44	-1.41287e-06
1426.12	-1.41735e-06
1434.79	3.05484e-06
1443.47	6.15184e-06
1452.15	7.79906e-06
1460.83	6.0415e-06
1469.51	3.85286e-06
1478.18	2.63984e-07
1486.86	-8.79506e-07
1495.54	-1.16916e-06
1504.22	-1.64643e-06
1512.9	-9.21035e-07
1521.58	-1.55732e-06
1530.25	-1.35772e-06
1538.93	-2.35329e-06
1547.61	-1.38751e-06
1556.29	-1.40043e-06
1564.97	-1.40174e-06
1573.64	-1.27815e-06
1582.32	-1.20047e-06
1591	1.85537e-06
1599.68	7.42268e-06
1608.36	3.77905e-06
1617.04	6.56877e-06
1625.71	1.25117e-05
1634.39	1.38554e-05
1643.07	7.24168e-06
1651.75	-4.38072e-07
1660.43	-1.40147e-06
1669.1	-1.88233e-06
1677.78	-1.28688e-06
1686.46	-1.01172e-06
1695.14	-1.16575e-06
1703.82	-4.40895e-09
1712.5	2.26098e-06
1721.17	6.25339e-06
1729.85	1.01326e-05
1738.53	8.22558e-06
1747.21	3.75003e-06
1755.89	3.79592e-07
1764.56	-7.97904e-07
1773.24	-1.33338e-06
1781.92	-1.56383e-06
1790.6	-1.91383e-06
1799.28	-2.14472e-06
1807.96	-1.73646e-06
1816.63	-1.86635e-06
1825.31	-1.54261e-06
1833.99	-1.18828e-06
1842.67	-8.63093e-07
1851.35	1.81954e-06
1860.02	6.51182e-06
1868.7	9.64931e-06
1877.38	4.92949e-06
1886.06	-5.32829e-07
1894.74	-1.9297e-06
1903.42	-1.90673e-06
1912.09	-7.51734e-07
1920.77	8.71518e-07
1929.45	2.15509e-06
1938.13	2.65185e-06
1946.81	2.78553e-06
1955.48	2.54698e-06
1964.16	5.5093e-07
1972.84	-1.11453e-06
1981.52	-1.79652e-06
1990.2	-1.70413e-06
1998.88	-1.77615e-06
2007.55	-1.62226e-06
2016.23	-1.75081e-06
2024.91	-1.879e-06
2033.59	-1.4857e-06
2042.27	3.28492e-06
2050.94	2.19467e-05
2059.62	1.36054e-05
2068.3	-8.69189e-07
2076.98	-1.9197e-06
2085.66	-2.01656e-06
2094.34	-1.86557e-06
2103.01	-1.66571e-06
2111.69	-1.60557e-06
2120.37	-1.25655e-06
2129.05	-9.67234e-07
2137.73	-9.35178e-07
2146.4	-1.42545e-06
2155.08	-1.72084e-06
2163.76	-1.91667e-06
2172.44	-1.6086e-06
2181.12	-1.96408e-06
2189.8	-2.07967e-06
2198.47	-3.00787e-06
2207.15	-5.43318e-06
2215.83	-7.35779e-06
2224.51	-7.16669e-06
2233.19	-6.86822e-06
2241.86	-8.76055e-06
2250.54	-7.74742e-06
2259.22	-3.47625e-06
2267.9	-2.52543e-06
2276.58	-3.03701e-06
2285.26	-2.67165e-06
2293.93	-3.00728e-06
2302.61	-2.26552e-06
2311.29	-2.62525e-06
2319.97	-2.92919e-06
2328.65	-2.68809e-06
2337.32	2.72433e-06
2346	1.38207e-05
2354.68	1.29125e-05
2363.36	-6.13994e-07
2372.04	-2.54835e-06
2380.72	-1.32538e-06
2389.39	-1.88793e-06
2398.07	-1.88824e-06
2406.75	-2.13804e-06
2415.43	-1.95954e-06
2424.11	-1.52989e-06
2432.78	-8.95148e-07
2441.46	-3.60719e-08
2450.14	2.3907e-06
2458.82	6.12681e-06
2467.5	7.08686e-06
2476.18	2.69768e-06
2484.85	-2.50543e-06
2493.53	-4.76145e-06
2502.21	-8.11237e-06
2510.89	-1.02406e-05
2519.57	-6.09731e-06
2528.24	-7.70475e-07
2536.92	2.33776e-07
2545.6	-1.4475e-06
2554.28	-1.25501e-06
2562.96	-1.09188e-06
2571.64	-9.87169e-07
2580.31	-1.2899e-06
2588.99	-1.78219e-06
2597.67	-1.82857e-06
2606.35	-2.473e-06
2615.03	-2.55057e-06
2623.7	-2.36478e-06
2632.38	-2.46468e-06
2641.06	-1.2484e-06
2649.74	1.99056e-06
2658.42	9.41841e-06
2667.1	1.17826e-05
2675.77	4.35258e-06
2684.45	-1.9215e-06
2693.13	-2.46615e-06
2701.81	-2.46594e-06
2710.49	-2.13502e-06
2719.16	-1.93781e-06
2727.84	-2.03314e-06
2736.52	-1.92933e-06
2745.2	-2.08872e-06
2753.88	-2.26409e-06
2762.56	-2.17066e-06
2771.23	-2.33664e-06
2779.91	-2.42954e-06
2788.59	-2.45698e-06
2797.27	-2.46335e-06
2805.95	-2.39384e-06
2814.62	-2.58196e-06
2823.3	-2.1421e-06
2831.98	-2.58381e-06
2840.66	-2.67922e-06
2849.34	-2.31656e-06
2858.02	-1.98451e-06
2866.69	-2.71788e-06
2875.37	-2.43673e-06
2884.05	-2.48103e-06
2892.73	-2.42407e-06
2901.41	-2.44278e-06
2910.08	-2.5739e-06
2918.76	-2.81995e-06
2927.44	-2.6852e-06
2936.12	-2.54303e-06
2944.8	-2.76313e-06
2953.48	-2.43766e-06
2962.15	-2.07748e-06
2970.83	-2.42161e-06
2979.51	-2.3555e-06
2988.19	-2.78407e-06
2996.87	-2.48234e-06
3005.54	-2.09635e-06
3014.22	-2.06265e-06
3022.9	-2.37542e-06
3031.58	-2.44874e-06
3040.26	-2.77034e-06
3048.94	-2.8826e-06
3057.61	-2.59495e-06
3066.29	-2.52912e-06
3074.97	-2.27476e-06
3083.65	-2.25823e-06
3092.33	-2.32093e-06
3101	-2.11128e-06
3109.68	-2.2263e-06
3118.36	-2.01083e-06
3127.04	-1.97451e-06
3135.72	-1.94349e-06
3144.4	-1.99849e-06
3153.07	-2.26374e-06
3161.75	-2.07375e-06
3170.43	-2.25814e-06
3179.11	-2.84097e-06
3187.79	-2.71689e-06
3196.47	-2.44917e-06
3205.14	-2.88628e-06
3213.82	-2.57087e-06
3222.5	-2.33977e-06
3231.18	-2.05256e-06
3239.86	-2.20602e-06
3248.53	-2.13335e-06
3257.21	-2.57429e-06
3265.89	-2.14546e-06
3274.57	-1.97066e-06
3283.25	-2.63178e-06
3291.93	-2.15057e-06
3300.6	-2.40944e-06
3309.28	-2.54279e-06
3317.96	-2.52565e-06
3326.64	-2.71574e-06
3335.32	-2.49867e-06
3343.99	-2.23815e-06
3352.67	-3.58576e-06
3361.35	-2.43095e-06
3370.03	-3.12433e-06
3378.71	-3.16502e-06
3387.39	-3.24057e-06
3396.06	-2.8837e-06
3404.74	-2.91318e-06
3413.42	-2.92308e-06
3422.1	-2.73387e-06
3430.78	-3.16467e-06
3439.45	-3.02686e-06
3448.13	-2.90461e-06
3456.81	-2.89571e-06
3465.49	-2.89386e-06
3474.17	-2.80734e-06
3482.85	-2.95321e-06
3491.52	-2.74574e-06
3500.2	-2.93924e-06
3508.88	-3.03659e-06
3517.56	-2.41548e-06
3526.24	-2.76241e-06
3534.91	-2.7158e-06
3543.59	-3.16717e-06
3552.27	-3.02389e-06
3560.95	-3.12069e-06
3569.63	-2.95378e-06
3578.31	-3.08704e-06
3586.98	-3.46394e-06
3595.66	-3.28998e-06
3604.34	-3.21779e-06
3613.02	-2.75781e-06
3621.7	-3.17513e-06
3630.37	-2.95225e-06
3639.05	-3.11077e-06
3647.73	-2.85718e-06
3656.41	-2.87359e-06
3665.09	-2.58817e-06
3673.77	-2.69304e-06
3682.44	-2.27436e-06
3691.12	-2.81202e-06
3699.8	-2.71411e-06
3708.48	-3.49349e-06
3717.16	-3.468e-06
3725.83	-4.0724e-06
3734.51	-4.3834e-06
3743.19	-4.82968e-06
3751.87	-4.92569e-06
3760.55	-4.18843e-06
3769.23	-4.08078e-06
3777.9	-3.97782e-06
3786.58	-3.66461e-06
3795.26	-3.27675e-06
3803.94	-3.20845e-06
3812.62	-2.78505e-06
3821.29	-3.48614e-06
3829.97	-2.82109e-06
3838.65	-3.71982e-06
3847.33	-3.20167e-06
3856.01	-3.48964e-06
3864.69	-3.40675e-06
3873.36	-2.81105e-06
3882.04	-3.2982e-06
3890.72	-3.72055e-06
3899.4	-3.05986e-06
3908.08	-2.78228e-06
3916.75	-3.25739e-06
3925.43	-3.10083e-06
3934.11	-3.06352e-06
3942.79	-3.53704e-06
3951.47	-3.31983e-06
3960.15	-3.24994e-06
3968.82	-3.45624e-06
