Infrared Spectrum: Hexafluoroethane
Formula: C2 F6
CAS: 76-16-4
State: gas
Melting point: -94 C
Boiling point: -79 C
Class: IUPAC A
Instrument: IFS66V (Bruker)
Instrument parameters: KBr Beam Splitter; MCT Detector; Multipass cell
Sampling: 1 L/min Flow
Resolution: 1.9290
Temperature: 23 C
Pressure: 101.3 Pa
Origin: NIST, Analytical Chemistry Division, 301-975-3108
cm-1	(micromol/mol)-1m-1 (base 10)
575.653	9.76227e-07
584.331	-1.0279e-06
593.009	-2.62387e-06
601.688	1.88086e-07
610.366	6.13703e-07
619.044	-2.70212e-08
627.722	-2.36439e-07
636.4	-9.65968e-07
645.078	-1.04165e-06
653.757	-5.85372e-07
662.435	-2.00158e-06
671.113	3.79097e-07
679.791	-1.39134e-06
688.469	-3.89676e-07
697.148	1.69047e-05
705.826	0.000227398
714.504	0.000589453
723.182	0.000234841
731.86	1.77218e-05
740.539	1.95653e-07
749.217	-4.82991e-07
757.895	-1.61002e-06
766.573	-4.86149e-07
775.251	-4.87648e-07
783.929	-3.06386e-07
792.608	-1.26429e-06
801.286	-1.18952e-06
809.964	-1.08048e-06
818.642	-1.15513e-06
827.32	-7.16724e-07
835.999	-7.70097e-07
844.677	-1.42053e-06
853.355	-1.28203e-06
862.033	-1.37542e-06
870.711	-5.99472e-07
879.389	-9.24949e-07
888.068	3.16324e-07
896.746	7.41432e-07
905.424	1.12545e-06
914.102	-4.95665e-07
922.78	-1.0477e-06
931.459	-1.1823e-06
940.137	-8.91802e-07
948.815	-1.26444e-06
957.493	-1.2531e-06
966.171	-1.62335e-06
974.85	-1.48457e-06
983.528	-1.10512e-06
992.206	-4.48535e-07
1000.88	1.04258e-07
1009.56	9.88057e-07
1018.24	2.40186e-06
1026.92	4.83096e-06
1035.6	2.54459e-06
1044.28	-2.67709e-07
1052.95	-1.84507e-07
1061.63	2.43313e-06
1070.31	1.06556e-06
1078.99	1.01872e-07
1087.67	1.10092e-05
1096.34	0.000100794
1105.02	0.00113252
1113.7	0.00237693
1122.38	0.0024264
1131.06	0.000175114
1139.74	0.000136454
1148.41	0.000101174
1157.09	6.33778e-06
1165.77	1.22637e-06
1174.45	3.66359e-06
1183.13	7.01245e-06
1191.8	2.20973e-05
1200.48	6.96525e-05
1209.16	6.15965e-05
1217.84	2.26633e-05
1226.52	6.09283e-05
1235.2	0.000818042
1243.87	0.0069473
1252.55	0.0113737
1261.23	0.00151566
1269.91	6.42992e-05
1278.59	1.27473e-05
1287.26	1.05107e-05
1295.94	1.44417e-05
1304.62	3.6702e-05
1313.3	7.61293e-05
1321.98	0.000124357
1330.66	0.000134773
1339.33	9.0725e-05
1348.01	4.07822e-05
1356.69	9.98472e-06
1365.37	8.36552e-07
1374.05	-1.59304e-07
1382.72	-9.83706e-07
1391.4	-7.05156e-07
1400.08	-1.2318e-06
1408.76	-1.12037e-06
1417.44	-1.38977e-06
1426.12	-1.46575e-06
1434.79	3.04285e-06
1443.47	6.16465e-06
1452.15	7.82727e-06
1460.83	6.07418e-06
1469.51	3.82051e-06
1478.18	2.99329e-07
1486.86	-8.97098e-07
1495.54	-1.15541e-06
1504.22	-1.61e-06
1512.9	-8.97433e-07
1521.58	-1.7709e-06
1530.25	-1.31804e-06
1538.93	-2.44895e-06
1547.61	-1.38336e-06
1556.29	-1.34795e-06
1564.97	-1.43153e-06
1573.64	-1.25449e-06
1582.32	-1.24194e-06
1591	1.79795e-06
1599.68	7.45876e-06
1608.36	3.74444e-06
1617.04	6.43129e-06
1625.71	1.25257e-05
1634.39	1.40183e-05
1643.07	7.28457e-06
1651.75	-4.19229e-07
1660.43	-1.3903e-06
1669.1	-1.95366e-06
1677.78	-1.2821e-06
1686.46	-8.90798e-07
1695.14	-1.22719e-06
1703.82	1.63262e-08
1712.5	2.22138e-06
1721.17	6.23813e-06
1729.85	1.01393e-05
1738.53	8.27083e-06
1747.21	3.73192e-06
1755.89	3.8694e-07
1764.56	-8.36697e-07
1773.24	-1.33936e-06
1781.92	-1.55298e-06
1790.6	-1.89191e-06
1799.28	-2.2025e-06
1807.96	-1.67027e-06
1816.63	-1.88499e-06
1825.31	-1.60086e-06
1833.99	-1.18652e-06
1842.67	-8.20007e-07
1851.35	1.80748e-06
1860.02	6.54756e-06
1868.7	9.70608e-06
1877.38	4.98159e-06
1886.06	-5.48849e-07
1894.74	-1.91845e-06
1903.42	-1.92456e-06
1912.09	-7.42843e-07
1920.77	8.68331e-07
1929.45	2.21696e-06
1938.13	2.81643e-06
1946.81	2.81463e-06
1955.48	2.55204e-06
1964.16	5.92895e-07
1972.84	-1.13761e-06
1981.52	-1.8201e-06
1990.2	-1.71338e-06
1998.88	-1.76042e-06
2007.55	-1.65122e-06
2016.23	-1.72255e-06
2024.91	-1.89844e-06
2033.59	-1.48553e-06
2042.27	3.24089e-06
2050.94	2.20368e-05
2059.62	1.36934e-05
2068.3	-9.15462e-07
2076.98	-1.90232e-06
2085.66	-2.00447e-06
2094.34	-1.87818e-06
2103.01	-1.59595e-06
2111.69	-1.55588e-06
2120.37	-1.24843e-06
2129.05	-1.04334e-06
2137.73	-9.20947e-07
2146.4	-1.44183e-06
2155.08	-1.67997e-06
2163.76	-1.94796e-06
2172.44	-1.52064e-06
2181.12	-1.9933e-06
2189.8	-2.05702e-06
2198.47	-3.00529e-06
2207.15	-5.40814e-06
2215.83	-7.38537e-06
2224.51	-7.13858e-06
2233.19	-6.90109e-06
2241.86	-8.7408e-06
2250.54	-7.75242e-06
2259.22	-3.44201e-06
2267.9	-2.51716e-06
2276.58	-3.05033e-06
2285.26	-2.68459e-06
2293.93	-3.03477e-06
2302.61	-2.26402e-06
2311.29	-2.66759e-06
2319.97	-2.78349e-06
2328.65	-2.73697e-06
2337.32	2.75367e-06
2346	1.39249e-05
2354.68	1.28293e-05
2363.36	-5.9275e-07
2372.04	-2.57398e-06
2380.72	-1.27126e-06
2389.39	-1.904e-06
2398.07	-1.91608e-06
2406.75	-2.17267e-06
2415.43	-1.95017e-06
2424.11	-1.54815e-06
2432.78	-8.91569e-07
2441.46	-1.03487e-07
2450.14	2.39395e-06
2458.82	6.13427e-06
2467.5	7.08349e-06
2476.18	2.723e-06
2484.85	-2.44896e-06
2493.53	-4.72839e-06
2502.21	-8.09346e-06
2510.89	-1.0232e-05
2519.57	-6.02481e-06
2528.24	-7.83309e-07
2536.92	2.32801e-07
2545.6	-1.4843e-06
2554.28	-1.28605e-06
2562.96	-1.0821e-06
2571.64	-9.44025e-07
2580.31	-1.37009e-06
2588.99	-1.75126e-06
2597.67	-1.81668e-06
2606.35	-2.47636e-06
2615.03	-2.60429e-06
2623.7	-2.36639e-06
2632.38	-2.49599e-06
2641.06	-1.13525e-06
2649.74	1.99825e-06
2658.42	9.41429e-06
2667.1	1.17895e-05
2675.77	4.3466e-06
2684.45	-1.87842e-06
2693.13	-2.40935e-06
2701.81	-2.50216e-06
2710.49	-2.14061e-06
2719.16	-1.97929e-06
2727.84	-2.00797e-06
2736.52	-1.87858e-06
2745.2	-2.10349e-06
2753.88	-2.27291e-06
2762.56	-2.17904e-06
2771.23	-2.29168e-06
2779.91	-2.40742e-06
2788.59	-2.41903e-06
2797.27	-2.46315e-06
2805.95	-2.33193e-06
2814.62	-2.62453e-06
2823.3	-2.1284e-06
2831.98	-2.61825e-06
2840.66	-2.7313e-06
2849.34	-2.33017e-06
2858.02	-1.91602e-06
2866.69	-2.73928e-06
2875.37	-2.46022e-06
2884.05	-2.45467e-06
2892.73	-2.38631e-06
2901.41	-2.39229e-06
2910.08	-2.58178e-06
2918.76	-2.80209e-06
2927.44	-2.75159e-06
2936.12	-2.46281e-06
2944.8	-2.79918e-06
2953.48	-2.38954e-06
2962.15	-2.02474e-06
2970.83	-2.43082e-06
2979.51	-2.44132e-06
2988.19	-2.86614e-06
2996.87	-2.54135e-06
3005.54	-2.12132e-06
3014.22	-2.06303e-06
3022.9	-2.36948e-06
3031.58	-2.4596e-06
3040.26	-2.86161e-06
3048.94	-2.93904e-06
3057.61	-2.56496e-06
3066.29	-2.56125e-06
3074.97	-2.28726e-06
3083.65	-2.244e-06
3092.33	-2.31668e-06
3101	-2.12424e-06
3109.68	-2.21457e-06
3118.36	-1.98797e-06
3127.04	-1.99497e-06
3135.72	-1.87079e-06
3144.4	-1.93955e-06
3153.07	-2.30137e-06
3161.75	-2.07967e-06
3170.43	-2.26181e-06
3179.11	-2.88408e-06
3187.79	-2.7873e-06
3196.47	-2.39156e-06
3205.14	-2.87599e-06
3213.82	-2.58272e-06
3222.5	-2.37782e-06
3231.18	-2.00017e-06
3239.86	-2.19368e-06
3248.53	-2.10713e-06
3257.21	-2.65311e-06
3265.89	-2.14976e-06
3274.57	-1.98605e-06
3283.25	-2.7269e-06
3291.93	-2.11569e-06
3300.6	-2.45974e-06
3309.28	-2.54947e-06
3317.96	-2.54586e-06
3326.64	-2.65297e-06
3335.32	-2.50091e-06
3343.99	-2.16656e-06
3352.67	-3.75451e-06
3361.35	-2.31806e-06
3370.03	-3.21807e-06
3378.71	-3.18651e-06
3387.39	-3.26861e-06
3396.06	-2.88152e-06
3404.74	-2.87608e-06
3413.42	-2.92065e-06
3422.1	-2.60645e-06
3430.78	-3.09491e-06
3439.45	-3.01682e-06
3448.13	-2.90601e-06
3456.81	-2.9492e-06
3465.49	-2.99914e-06
3474.17	-2.75509e-06
3482.85	-3.03752e-06
3491.52	-2.75156e-06
3500.2	-2.97339e-06
3508.88	-3.07038e-06
3517.56	-2.36829e-06
3526.24	-2.78345e-06
3534.91	-2.70675e-06
3543.59	-3.12167e-06
3552.27	-3.02566e-06
3560.95	-3.14306e-06
3569.63	-3.001e-06
3578.31	-3.1084e-06
3586.98	-3.53397e-06
3595.66	-3.23277e-06
3604.34	-3.29352e-06
3613.02	-2.71248e-06
3621.7	-3.15825e-06
3630.37	-2.93248e-06
3639.05	-3.16717e-06
3647.73	-2.81413e-06
3656.41	-2.98345e-06
3665.09	-2.58033e-06
3673.77	-2.63887e-06
3682.44	-2.28518e-06
3691.12	-3.03217e-06
3699.8	-2.75026e-06
3708.48	-3.51677e-06
3717.16	-3.39472e-06
3725.83	-4.12484e-06
3734.51	-4.35995e-06
3743.19	-4.80537e-06
3751.87	-5.03453e-06
3760.55	-4.19326e-06
3769.23	-4.0629e-06
3777.9	-4.01319e-06
3786.58	-3.67616e-06
3795.26	-3.2259e-06
3803.94	-3.17576e-06
3812.62	-2.66308e-06
3821.29	-3.526e-06
3829.97	-2.73629e-06
3838.65	-3.72807e-06
3847.33	-3.22584e-06
3856.01	-3.41678e-06
3864.69	-3.42813e-06
3873.36	-2.74298e-06
3882.04	-3.22012e-06
3890.72	-3.83221e-06
3899.4	-3.08066e-06
3908.08	-2.73304e-06
3916.75	-3.23979e-06
3925.43	-3.00675e-06
3934.11	-2.91766e-06
3942.79	-3.59913e-06
3951.47	-3.27028e-06
3960.15	-3.19904e-06
3968.82	-3.46564e-06
