Infrared Spectrum: Hexafluoroethane
Formula: C2 F6
CAS: 76-16-4
State: gas
Melting point: -94 C
Boiling point: -79 C
Class: IUPAC A
Instrument: IFS66V (Bruker)
Instrument parameters: KBr Beam Splitter; MCT Detector; Multipass cell
Sampling: 1 L/min Flow
Resolution: 0.9640
Temperature: 23 C
Pressure: 101.3 Pa
Origin: NIST, Analytical Chemistry Division, 301-975-3108
cm-1	(micromol/mol)-1m-1 (base 10)
575.171	7.68089e-07
583.849	-2.33779e-06
592.527	-2.24715e-06
601.206	1.30272e-06
609.884	-1.93077e-07
618.562	-1.90621e-06
627.24	3.42996e-07
635.918	-2.50391e-06
644.596	-1.16248e-06
653.275	-1.23862e-06
661.953	-1.95229e-06
670.631	6.04419e-07
679.309	-1.07637e-06
687.987	3.70468e-08
696.666	1.51536e-05
705.344	0.000213411
714.022	0.000883919
722.7	0.000246336
731.378	2.21564e-05
740.057	1.2132e-06
748.735	-1.12993e-06
757.413	-1.0079e-06
766.091	-1.16091e-06
774.769	4.85945e-07
783.447	-7.81563e-07
792.126	-1.01998e-06
800.804	-1.4724e-06
809.482	-5.65146e-07
818.16	-6.26522e-07
826.838	-6.77102e-07
835.517	-5.00365e-07
844.195	-1.2043e-06
852.873	-1.10256e-06
861.551	-1.33366e-06
870.229	-4.00924e-07
878.907	-8.06766e-07
887.586	5.02926e-07
896.264	8.76479e-07
904.942	1.33876e-06
913.62	-3.31675e-07
922.298	-9.31992e-07
930.977	-1.04236e-06
939.655	-7.86423e-07
948.333	-1.03254e-06
957.011	-8.48745e-07
965.689	-9.24134e-07
974.368	-1.41462e-06
983.046	-3.03403e-07
991.724	-1.57776e-07
1000.4	6.64908e-07
1009.08	1.26425e-06
1017.76	3.08828e-06
1026.44	5.19773e-06
1035.11	3.8424e-06
1043.79	1.10762e-07
1052.47	7.59184e-07
1061.15	2.89498e-06
1069.83	2.73777e-06
1078.51	2.1266e-06
1087.18	1.391e-05
1095.86	9.65351e-05
1104.54	0.00102898
1113.22	0.0019473
1121.9	0.00237349
1130.57	0.000226992
1139.25	0.000167261
1147.93	0.000110564
1156.61	1.04943e-05
1165.29	4.29917e-06
1173.97	5.99896e-06
1182.64	9.82632e-06
1191.32	2.35082e-05
1200	7.04094e-05
1208.68	7.29932e-05
1217.36	3.34149e-05
1226.03	7.43791e-05
1234.71	0.000747585
1243.39	0.00629607
1252.07	0.0116798
1260.75	0.00180414
1269.43	0.000105797
1278.1	2.59331e-05
1286.78	1.75397e-05
1295.46	1.89067e-05
1304.14	3.82081e-05
1312.82	7.5551e-05
1321.49	0.000123456
1330.17	0.000136214
1338.85	9.3959e-05
1347.53	4.42409e-05
1356.21	1.19096e-05
1364.89	2.12916e-06
1373.56	4.39455e-07
1382.24	-2.41023e-07
1390.92	-2.68029e-07
1399.6	-2.6557e-07
1408.28	-6.79255e-07
1416.95	-7.73007e-07
1425.63	-5.42476e-07
1434.31	3.1162e-06
1442.99	6.35067e-06
1451.67	7.75913e-06
1460.35	6.38054e-06
1469.02	4.37987e-06
1477.7	5.62818e-07
1486.38	-6.6661e-07
1495.06	-8.7549e-07
1503.74	-1.23935e-06
1512.42	-8.81645e-07
1521.09	-1.64585e-06
1529.77	-1.0508e-06
1538.45	-1.81087e-06
1547.13	-1.1886e-06
1555.81	-1.04294e-06
1564.48	-1.28967e-06
1573.16	-1.16249e-06
1581.84	-1.02179e-06
1590.52	1.828e-06
1599.2	7.6462e-06
1607.88	4.01219e-06
1616.55	5.753e-06
1625.23	1.23008e-05
1633.91	1.462e-05
1642.59	7.84487e-06
1651.27	5.28056e-07
1659.94	-1.14818e-06
1668.62	-1.99027e-06
1677.3	-1.21408e-06
1685.98	-9.98621e-07
1694.66	-8.56137e-07
1703.34	1.53251e-07
1712.01	2.2135e-06
1720.69	5.86602e-06
1729.37	9.7929e-06
1738.05	8.46648e-06
1746.73	4.22839e-06
1755.4	5.11759e-07
1764.08	-7.20216e-07
1772.76	-1.62306e-06
1781.44	-1.32579e-06
1790.12	-1.74603e-06
1798.8	-1.86486e-06
1807.47	-1.59111e-06
1816.15	-1.85166e-06
1824.83	-1.64402e-06
1833.51	-1.17136e-06
1842.19	-8.62845e-07
1850.86	1.44203e-06
1859.54	6.35732e-06
1868.22	1.00296e-05
1876.9	5.09662e-06
1885.58	-2.76454e-07
1894.26	-1.84582e-06
1902.93	-1.72311e-06
1911.61	-8.63718e-07
1920.29	7.76718e-07
1928.97	2.21482e-06
1937.65	2.83293e-06
1946.32	2.86532e-06
1955	2.66593e-06
1963.68	5.59719e-07
1972.36	-9.82978e-07
1981.04	-1.56452e-06
1989.72	-1.85041e-06
1998.39	-1.78096e-06
2007.07	-1.5242e-06
2015.75	-1.68291e-06
2024.43	-1.75708e-06
2033.11	-1.36066e-06
2041.78	2.73495e-06
2050.46	2.06258e-05
2059.14	1.5329e-05
2067.82	-7.72018e-07
2076.5	-1.84981e-06
2085.18	-1.95728e-06
2093.85	-2.14812e-06
2102.53	-1.76572e-06
2111.21	-1.60113e-06
2119.89	-1.12849e-06
2128.57	-1.13557e-06
2137.24	-8.20065e-07
2145.92	-1.25779e-06
2154.6	-1.50815e-06
2163.28	-2.03379e-06
2171.96	-1.67725e-06
2180.64	-1.97208e-06
2189.31	-2.25427e-06
2197.99	-2.79432e-06
2206.67	-5.25815e-06
2215.35	-7.20795e-06
2224.03	-6.98081e-06
2232.7	-9.16618e-06
2241.38	-8.84714e-06
2250.06	-7.60533e-06
2258.74	-3.70479e-06
2267.42	-2.56658e-06
2276.1	-2.83052e-06
2284.77	-2.5034e-06
2293.45	-3.02163e-06
2302.13	-2.1104e-06
2310.81	-2.84295e-06
2319.49	-3.47831e-06
2328.16	-2.10163e-06
2336.84	4.48904e-06
2345.52	1.30741e-05
2354.2	1.26609e-05
2362.88	-2.09238e-06
2371.56	-3.06031e-06
2380.23	-1.44966e-06
2388.91	-1.71207e-06
2397.59	-1.99273e-06
2406.27	-2.18955e-06
2414.95	-1.82961e-06
2423.62	-1.74382e-06
2432.3	-9.41944e-07
2440.98	-4.4366e-08
2449.66	2.25412e-06
2458.34	5.94453e-06
2467.02	7.32986e-06
2475.69	3.36719e-06
2484.37	-2.18106e-06
2493.05	-4.44999e-06
2501.73	-7.82893e-06
2510.41	-1.0192e-05
2519.08	-6.39576e-06
2527.76	-1.11992e-06
2536.44	1.59348e-07
2545.12	-1.80993e-06
2553.8	-1.16065e-06
2562.48	-1.1282e-06
2571.15	-9.28412e-07
2579.83	-1.30953e-06
2588.51	-1.51632e-06
2597.19	-1.92706e-06
2605.87	-2.37344e-06
2614.54	-2.39041e-06
2623.22	-2.51389e-06
2631.9	-2.24892e-06
2640.58	-1.38013e-06
2649.26	1.85515e-06
2657.94	8.7329e-06
2666.61	1.20585e-05
2675.29	4.43533e-06
2683.97	-1.65592e-06
2692.65	-2.39668e-06
2701.33	-2.3854e-06
2710	-2.26171e-06
2718.68	-2.05233e-06
2727.36	-2.0231e-06
2736.04	-1.57328e-06
2744.72	-2.31802e-06
2753.4	-2.28097e-06
2762.07	-2.1225e-06
2770.75	-2.23968e-06
2779.43	-2.46073e-06
2788.11	-2.18626e-06
2796.79	-2.32203e-06
2805.46	-2.37117e-06
2814.14	-2.49614e-06
2822.82	-2.16398e-06
2831.5	-3.00618e-06
2840.18	-2.74803e-06
2848.86	-1.92919e-06
2857.53	-1.82919e-06
2866.21	-2.8927e-06
2874.89	-2.72479e-06
2883.57	-2.21794e-06
2892.25	-2.35681e-06
2900.92	-2.43955e-06
2909.6	-2.85128e-06
2918.28	-2.85757e-06
2926.96	-2.7741e-06
2935.64	-2.45075e-06
2944.32	-2.60773e-06
2952.99	-2.30478e-06
2961.67	-2.18722e-06
2970.35	-2.58832e-06
2979.03	-2.24363e-06
2987.71	-2.93326e-06
2996.38	-2.56092e-06
3005.06	-2.25554e-06
3013.74	-2.07966e-06
3022.42	-2.28299e-06
3031.1	-2.28346e-06
3039.78	-2.50657e-06
3048.45	-3.46851e-06
3057.13	-2.55517e-06
3065.81	-2.42638e-06
3074.49	-2.33322e-06
3083.17	-2.14351e-06
3091.84	-2.34408e-06
3100.52	-2.17008e-06
3109.2	-2.12877e-06
3117.88	-2.03779e-06
3126.56	-2.00137e-06
3135.24	-2.03551e-06
3143.91	-2.00946e-06
3152.59	-2.12676e-06
3161.27	-2.25808e-06
3169.95	-1.89661e-06
3178.63	-2.8818e-06
3187.3	-2.96659e-06
3195.98	-2.60335e-06
3204.66	-2.86487e-06
3213.34	-2.56681e-06
3222.02	-2.05571e-06
3230.7	-1.94864e-06
3239.37	-2.2708e-06
3248.05	-2.04744e-06
3256.73	-2.83791e-06
3265.41	-2.06498e-06
3274.09	-2.34079e-06
3282.76	-2.61807e-06
3291.44	-2.04178e-06
3300.12	-2.69041e-06
3308.8	-2.84667e-06
3317.48	-2.89123e-06
3326.16	-2.38818e-06
3334.83	-2.18344e-06
3343.51	-2.08916e-06
3352.19	-3.802e-06
3360.87	-2.24259e-06
3369.55	-3.10734e-06
3378.22	-3.51024e-06
3386.9	-3.11685e-06
3395.58	-3.06086e-06
3404.26	-2.94461e-06
3412.94	-2.73013e-06
3421.62	-2.93588e-06
3430.29	-3.09197e-06
3438.97	-3.10457e-06
3447.65	-3.027e-06
3456.33	-2.56527e-06
3465.01	-2.75856e-06
3473.68	-2.71225e-06
3482.36	-3.24083e-06
3491.04	-2.61723e-06
3499.72	-3.05847e-06
3508.4	-3.13132e-06
3517.08	-2.38078e-06
3525.75	-2.74703e-06
3534.43	-3.14114e-06
3543.11	-2.79123e-06
3551.79	-2.89018e-06
3560.47	-3.46154e-06
3569.14	-3.08935e-06
3577.82	-3.42017e-06
3586.5	-3.50331e-06
3595.18	-3.54222e-06
3603.86	-3.23117e-06
3612.54	-2.85466e-06
3621.21	-2.83969e-06
3629.89	-3.15613e-06
3638.57	-2.8335e-06
3647.25	-2.75756e-06
3655.93	-2.5951e-06
3664.6	-2.96648e-06
3673.28	-2.92303e-06
3681.96	-2.34347e-06
3690.64	-2.92996e-06
3699.32	-2.9156e-06
3708	-3.31284e-06
3716.67	-3.31662e-06
3725.35	-4.2393e-06
3734.03	-4.20114e-06
3742.71	-4.54764e-06
3751.39	-4.58132e-06
3760.06	-4.43303e-06
3768.74	-4.4603e-06
3777.42	-4.32501e-06
3786.1	-3.66292e-06
3794.78	-3.19939e-06
3803.46	-3.2393e-06
3812.13	-2.80201e-06
3820.81	-3.36573e-06
3829.49	-2.37046e-06
3838.17	-4.13823e-06
3846.85	-3.13628e-06
3855.53	-3.49458e-06
3864.2	-3.38142e-06
3872.88	-2.74742e-06
3881.56	-3.3136e-06
3890.24	-3.24135e-06
3898.92	-3.11863e-06
3907.59	-2.45937e-06
3916.27	-3.16067e-06
3924.95	-3.36092e-06
3933.63	-2.83967e-06
3942.31	-3.86393e-06
3950.99	-2.85285e-06
3959.66	-2.74764e-06
3968.34	-3.47341e-06
