Infrared Spectrum: Hexafluoroethane
Formula: C2 F6
CAS: 76-16-4
State: gas
Melting point: -94 C
Boiling point: -79 C
Class: IUPAC A
Instrument: IFS66V (Bruker)
Instrument parameters: KBr Beam Splitter; MCT Detector; Multipass cell
Sampling: 1 L/min Flow
Resolution: 0.2410
Temperature: 23 C
Pressure: 101.3 Pa
Origin: NIST, Analytical Chemistry Division, 301-975-3108
cm-1	(micromol/mol)-1m-1 (base 10)
575.05	5.94957e-06
583.608	-1.46041e-06
592.165	-4.81797e-06
600.723	4.29211e-06
609.281	3.68926e-07
617.838	1.99721e-06
626.396	-1.48359e-06
634.954	4.13729e-07
643.511	5.64608e-07
652.069	-2.62868e-06
660.627	-3.19117e-06
669.184	-3.17573e-06
677.742	-1.02996e-06
686.3	8.839e-07
694.857	5.68307e-06
703.415	0.000154891
711.973	0.000130629
720.53	0.000278381
729.088	4.82124e-05
737.645	2.28996e-06
746.203	5.69919e-07
754.761	-1.03097e-06
763.318	5.90305e-07
771.876	-1.36935e-06
780.434	-1.65147e-06
788.991	-9.59056e-08
797.549	-2.01047e-06
806.107	-7.1233e-07
814.664	-1.07494e-06
823.222	-2.13649e-06
831.78	-3.36754e-07
840.337	-6.27439e-07
848.895	-6.34409e-07
857.453	-1.08086e-06
866.01	-5.69381e-07
874.568	-4.4884e-07
883.126	-1.02948e-06
891.683	6.75821e-07
900.241	2.09214e-06
908.799	-7.19169e-07
917.356	-9.41348e-07
925.914	-1.96278e-07
934.472	-1.19938e-06
943.029	-1.05591e-06
951.587	-1.43646e-06
960.145	-2.98485e-07
968.702	-1.03462e-06
977.26	-1.14455e-06
985.818	-1.26907e-06
994.375	-2.90423e-07
1002.93	-1.73273e-07
1011.49	1.27691e-06
1020.05	2.57107e-06
1028.61	3.10706e-06
1037.16	1.83311e-06
1045.72	-1.96497e-07
1054.28	7.84532e-07
1062.84	2.34543e-06
1071.39	8.13343e-07
1079.95	9.42832e-07
1088.51	1.35324e-05
1097.07	0.000120759
1105.62	0.00126144
1114.18	0.00272393
1122.74	0.00246521
1131.3	0.000151923
1139.86	0.000123883
1148.41	0.000101964
1156.97	6.29037e-06
1165.53	2.38181e-06
1174.09	3.91687e-06
1182.64	7.17635e-06
1191.2	1.96855e-05
1199.76	6.60107e-05
1208.32	7.28117e-05
1216.87	2.37665e-05
1225.43	4.66967e-05
1233.99	0.00055581
1242.55	0.00531828
1251.1	0.0124505
1259.66	0.00239102
1268.22	0.00011756
1276.78	1.46197e-05
1285.34	1.09789e-05
1293.89	1.29388e-05
1302.45	2.86861e-05
1311.01	6.33256e-05
1319.57	0.000113422
1328.12	0.000139812
1336.68	0.000105808
1345.24	5.62479e-05
1353.8	1.53227e-05
1362.35	1.19893e-06
1370.91	7.05287e-08
1379.47	-7.93815e-07
1388.03	-4.01797e-07
1396.59	-1.35892e-06
1405.14	-1.72153e-06
1413.7	-4.98008e-07
1422.26	-4.27712e-07
1430.82	5.71141e-07
1439.37	4.62768e-06
1447.93	6.8711e-06
1456.49	6.02502e-06
1465.05	4.66438e-06
1473.6	1.19142e-06
1482.16	-1.14314e-06
1490.72	-1.1806e-06
1499.28	-1.46232e-06
1507.83	-1.24447e-06
1516.39	-1.52477e-06
1524.95	-1.82429e-06
1533.51	-1.17204e-06
1542.07	-2.82928e-06
1550.62	-1.27473e-06
1559.18	-1.55255e-06
1567.74	-1.98186e-06
1576.3	-3.29535e-06
1584.85	-1.21169e-06
1593.41	4.00598e-06
1601.97	6.55683e-06
1610.53	3.82642e-06
1619.08	9.08156e-06
1627.64	1.33802e-05
1636.2	1.14104e-05
1644.76	5.06714e-06
1653.31	-3.50619e-06
1661.87	-1.97041e-06
1670.43	-1.49046e-06
1678.99	-1.19723e-06
1687.55	-1.47284e-06
1696.1	-1.77722e-06
1704.66	2.48182e-07
1713.22	2.38703e-06
1721.78	7.34312e-06
1730.33	1.02518e-05
1738.89	8.76046e-06
1747.45	3.63417e-06
1756.01	2.32598e-07
1764.56	-9.41464e-07
1773.12	-1.08929e-06
1781.68	-1.66024e-06
1790.24	-2.13824e-06
1798.79	-1.70239e-06
1807.35	-1.69775e-06
1815.91	-1.78833e-06
1824.47	-1.00626e-06
1833.03	-1.98516e-06
1841.58	-5.24913e-07
1850.14	1.19231e-06
1858.7	5.89441e-06
1867.26	1.08136e-05
1875.81	5.60704e-06
1884.37	1.00603e-06
1892.93	-2.24558e-06
1901.49	-2.09284e-06
1910.04	-1.48905e-06
1918.6	-2.9684e-08
1927.16	1.80659e-06
1935.72	1.9182e-06
1944.28	3.10015e-06
1952.83	2.18776e-06
1961.39	1.02611e-06
1969.95	-9.96089e-07
1978.51	-1.65049e-06
1987.06	-1.53282e-06
1995.62	-2.15876e-06
2004.18	-2.13015e-06
2012.74	-1.73998e-06
2021.29	-2.39889e-06
2029.85	-1.80521e-06
2038.41	-3.46357e-07
2046.97	1.26432e-05
2055.52	2.39742e-05
2064.08	2.77408e-06
2072.64	-1.35777e-06
2081.2	-2.11286e-06
2089.76	-2.67738e-06
2098.31	-2.67341e-06
2106.87	-2.04629e-06
2115.43	-1.46772e-06
2123.99	-4.31233e-07
2132.54	-9.56859e-07
2141.1	-1.91477e-06
2149.66	-1.32676e-06
2158.22	-9.99188e-07
2166.77	-2.13987e-06
2175.33	-1.43738e-06
2183.89	-2.04498e-06
2192.45	-2.00341e-06
2201	-3.9303e-06
2209.56	-5.11594e-06
2218.12	-7.50836e-06
2226.68	-8.83803e-06
2235.24	-5.84434e-06
2243.79	-8.36132e-06
2252.35	-6.53608e-06
2260.91	-3.12443e-06
2269.47	-2.51978e-06
2278.02	-3.04865e-06
2286.58	-2.65026e-06
2295.14	-2.39719e-06
2303.7	-3.69291e-06
2312.25	-1.34495e-06
2320.81	-2.68642e-06
2329.37	-5.45357e-07
2337.93	4.02485e-06
2346.49	1.68505e-05
2355.04	1.454e-05
2363.6	3.14085e-06
2372.16	-1.02503e-06
2380.72	-2.18069e-06
2389.27	-1.42578e-06
2397.83	-2.68993e-06
2406.39	-1.97774e-06
2414.95	-1.66298e-06
2423.5	-1.80066e-06
2432.06	-7.45986e-07
2440.62	2.28378e-07
2449.18	2.07286e-06
2457.73	5.79139e-06
2466.29	7.17466e-06
2474.85	4.45266e-06
2483.41	-3.06191e-06
2491.97	-3.62506e-06
2500.52	-7.27294e-06
2509.08	-9.56753e-06
2517.64	-7.96087e-06
2526.2	-1.54388e-06
2534.75	4.35395e-07
2543.31	-1.0752e-06
2551.87	-1.23634e-06
2560.43	-1.12457e-06
2568.98	-3.30802e-07
2577.54	-1.37011e-06
2586.1	-1.25563e-06
2594.66	-1.60141e-06
2603.21	-2.23444e-06
2611.77	-2.67286e-06
2620.33	-2.86982e-06
2628.89	-1.7146e-06
2637.45	-2.21763e-06
2646	-4.82715e-07
2654.56	5.08301e-06
2663.12	1.34806e-05
2671.68	8.74342e-06
2680.23	-2.50656e-07
2688.79	-2.38459e-06
2697.35	-3.06098e-06
2705.91	-1.40691e-06
2714.46	-1.98579e-06
2723.02	-1.66933e-06
2731.58	-2.57687e-06
2740.14	-1.91405e-06
2748.69	-2.0396e-06
2757.25	-2.69598e-06
2765.81	-2.07666e-06
2774.37	-2.90652e-06
2782.93	-2.2929e-06
2791.48	-2.65103e-06
2800.04	-2.5778e-06
2808.6	-3.075e-06
2817.16	-2.12155e-06
2825.71	-2.24131e-06
2834.27	-3.41369e-06
2842.83	-2.71542e-06
2851.39	-1.9827e-06
2859.94	-2.06397e-06
2868.5	-3.49151e-06
2877.06	-2.0821e-06
2885.62	-2.73992e-06
2894.18	-3.54586e-06
2902.73	-1.33277e-06
2911.29	-3.364e-06
2919.85	-2.6186e-06
2928.41	-3.78646e-06
2936.96	-2.34063e-06
2945.52	-3.03548e-06
2954.08	-2.35163e-06
2962.64	-1.42732e-06
2971.19	-1.99666e-06
2979.75	-2.80226e-06
2988.31	-3.66135e-06
2996.87	-1.85505e-06
3005.42	-2.90023e-06
3013.98	-1.95899e-06
3022.54	-2.92103e-06
3031.1	-1.5901e-06
3039.66	-2.47994e-06
3048.21	-4.07661e-06
3056.77	-2.67533e-06
3065.33	-2.92763e-06
3073.89	-1.86052e-06
3082.44	-2.73821e-06
3091	-2.92835e-06
3099.56	-4.87153e-07
3108.12	-1.82155e-06
3116.67	-2.43789e-06
3125.23	-1.43943e-06
3133.79	-1.85703e-06
3142.35	-1.93639e-06
3150.9	-1.78408e-06
3159.46	-1.34848e-06
3168.02	-2.49842e-06
3176.58	-2.35885e-06
3185.14	-1.34787e-06
3193.69	-2.73914e-06
3202.25	-1.76881e-06
3210.81	-1.84205e-06
3219.37	-2.24423e-06
3227.92	-2.86615e-06
3236.48	-2.00296e-06
3245.04	-1.966e-06
3253.6	-3.25414e-06
3262.15	-2.10528e-06
3270.71	-2.72395e-06
3279.27	-2.11686e-06
3287.83	-2.04775e-06
3296.38	-2.71558e-06
3304.94	-2.38865e-06
3313.5	-1.84032e-06
3322.06	-2.55278e-06
3330.62	-3.67905e-06
3339.17	-4.92566e-06
3347.73	-3.76949e-06
3356.29	-3.07511e-06
3364.85	-5.7923e-06
3373.4	-1.76016e-06
3381.96	-2.89367e-06
3390.52	-3.24626e-06
3399.08	-5.05299e-06
3407.63	-2.52458e-06
3416.19	-4.26529e-06
3424.75	-2.43106e-06
3433.31	-2.42481e-06
3441.87	-3.34484e-06
3450.42	-3.65281e-06
3458.98	-2.39323e-06
3467.54	-1.37471e-06
3476.1	-1.68413e-06
3484.65	-3.79375e-06
3493.21	-2.76667e-06
3501.77	-2.28315e-06
3510.33	-3.34236e-06
3518.88	-3.46752e-06
3527.44	-2.74529e-06
3536	-1.86515e-06
3544.56	-4.15283e-06
3553.11	-1.32571e-06
3561.67	-3.27578e-06
3570.23	-1.99843e-06
3578.79	-2.24309e-06
3587.35	-4.45808e-06
3595.9	-2.41989e-06
3604.46	-4.44585e-06
3613.02	-2.60505e-06
3621.58	-4.00359e-06
3630.13	-3.08918e-06
3638.69	-2.98034e-06
3647.25	-3.66713e-06
3655.81	-3.11199e-06
3664.36	-3.68492e-06
3672.92	-2.72153e-06
3681.48	-2.57876e-06
3690.04	-2.74318e-06
3698.59	-2.53115e-06
3707.15	-3.30574e-06
3715.71	-3.8292e-06
3724.27	-3.55442e-06
3732.83	-3.86248e-06
3741.38	-5.2898e-06
3749.94	-3.66679e-06
3758.5	-3.248e-06
3767.06	-4.33554e-06
3775.61	-4.42391e-06
3784.17	-4.59398e-06
3792.73	-3.75168e-06
3801.29	-5.23276e-06
3809.84	-3.23998e-06
3818.4	-3.97624e-06
3826.96	-1.58779e-06
3835.52	-2.62747e-06
3844.08	-2.69298e-06
3852.63	-3.14043e-06
3861.19	-1.72712e-06
3869.75	-3.4671e-06
3878.31	-3.85021e-06
3886.86	-3.24793e-06
3895.42	-2.3038e-06
3903.98	-4.17224e-06
3912.54	-2.8773e-06
3921.09	-3.06296e-06
3929.65	-2.64203e-06
3938.21	-4.49571e-06
3946.77	-4.10699e-06
3955.32	-4.11112e-06
3963.88	-2.89716e-06
3972.44	-3.87457e-06
