Infrared Spectrum: Hexafluoroethane
Formula: C2 F6
CAS: 76-16-4
State: gas
Melting point: -94 C
Boiling point: -79 C
Class: IUPAC A
Instrument: IFS66V (Bruker)
Instrument parameters: KBr Beam Splitter; MCT Detector; Multipass cell
Sampling: 1 L/min Flow
Resolution: 0.1250
Temperature: 23 C
Pressure: 101.3 Pa
Origin: NIST, Analytical Chemistry Division, 301-975-3108
cm-1	(micromol/mol)-1m-1 (base 10)
575.05	-6.54081e-06
583.608	-2.27054e-05
592.165	-5.01084e-06
600.723	-1.47192e-06
609.281	-1.87752e-07
617.838	6.53477e-06
626.396	-1.83481e-06
634.954	-2.04858e-06
643.511	-3.71289e-06
652.069	-5.86235e-06
660.627	-4.47788e-06
669.184	-2.55101e-06
677.742	-4.08909e-06
686.3	-1.21176e-06
694.857	5.26056e-06
703.415	0.000157264
711.973	0.000128943
720.53	0.000280831
729.088	5.03116e-05
737.645	2.90889e-06
746.203	1.11963e-06
754.761	-2.6565e-06
763.318	7.19358e-07
771.876	-1.10419e-06
780.434	3.98537e-07
788.991	-1.55149e-06
797.549	-1.02304e-06
806.107	1.44721e-06
814.664	4.83442e-07
823.222	-2.41308e-06
831.78	7.1687e-07
840.337	1.20897e-06
848.895	-2.76111e-06
857.453	-1.89933e-06
866.01	1.04335e-06
874.568	-9.05509e-08
883.126	-5.61916e-07
891.683	1.73448e-08
900.241	2.85157e-06
908.799	-3.41145e-06
917.356	-2.05304e-06
925.914	5.77689e-07
934.472	1.09351e-07
943.029	-5.75419e-07
951.587	-3.70418e-06
960.145	-9.95288e-08
968.702	-9.1715e-07
977.26	-1.09055e-06
985.818	-1.59755e-06
994.375	1.57017e-06
1002.93	1.95778e-06
1011.49	-2.92781e-07
1020.05	2.90469e-06
1028.61	1.84376e-06
1037.16	1.46603e-06
1045.72	2.98834e-07
1054.28	1.1073e-06
1062.84	2.11413e-06
1071.39	2.80441e-06
1079.95	1.22349e-06
1088.51	1.33128e-05
1097.07	0.000121698
1105.62	0.00125897
1114.18	0.00271891
1122.74	0.00246889
1131.3	0.000149601
1139.86	0.000121797
1148.41	0.000102306
1156.97	7.20891e-06
1165.53	2.97468e-06
1174.09	3.62036e-06
1182.64	6.43231e-06
1191.2	2.04209e-05
1199.76	6.68828e-05
1208.32	7.06968e-05
1216.87	2.47527e-05
1225.43	4.63022e-05
1233.99	0.000555907
1242.55	0.00531581
1251.1	0.012419
1259.66	0.00238869
1268.22	0.000117953
1276.78	1.5776e-05
1285.34	1.20498e-05
1293.89	1.35665e-05
1302.45	2.7783e-05
1311.01	6.31217e-05
1319.57	0.000113895
1328.12	0.000139191
1336.68	0.000105292
1345.24	5.72161e-05
1353.8	1.58924e-05
1362.35	1.12617e-06
1370.91	-9.67263e-07
1379.47	-7.79308e-07
1388.03	-3.68591e-07
1396.59	-1.78769e-06
1405.14	-1.59498e-06
1413.7	-7.55372e-07
1422.26	-2.62238e-07
1430.82	1.67336e-07
1439.37	3.58109e-06
1447.93	7.13137e-06
1456.49	4.98213e-06
1465.05	4.59889e-06
1473.6	1.50574e-06
1482.16	-2.11297e-06
1490.72	-9.47314e-07
1499.28	-1.5439e-06
1507.83	-8.91191e-07
1516.39	-1.18039e-06
1524.95	-2.07296e-06
1533.51	-1.04427e-06
1542.07	-2.16679e-06
1550.62	-8.25478e-07
1559.18	-2.73866e-06
1567.74	-1.94432e-06
1576.3	-2.65918e-06
1584.85	-9.08841e-07
1593.41	4.35052e-06
1601.97	6.40647e-06
1610.53	3.39793e-06
1619.08	9.87457e-06
1627.64	1.38786e-05
1636.2	1.14133e-05
1644.76	4.99751e-06
1653.31	-3.30459e-06
1661.87	-2.01665e-06
1670.43	-1.56595e-06
1678.99	-2.54526e-07
1687.55	-1.30664e-06
1696.1	-3.38602e-08
1704.66	6.65621e-07
1713.22	2.58823e-06
1721.78	8.7643e-06
1730.33	1.05262e-05
1738.89	9.34877e-06
1747.45	3.80254e-06
1756.01	-4.23303e-07
1764.56	-5.06215e-07
1773.12	-3.65201e-07
1781.68	-1.85432e-06
1790.24	-1.96425e-06
1798.79	-9.30245e-07
1807.35	-1.79728e-06
1815.91	-1.65186e-06
1824.47	-6.78077e-07
1833.03	-2.11134e-06
1841.58	-8.78895e-07
1850.14	1.84482e-06
1858.7	6.07545e-06
1867.26	1.05982e-05
1875.81	5.91145e-06
1884.37	3.62786e-07
1892.93	-2.71177e-06
1901.49	-1.47135e-06
1910.04	-1.19373e-06
1918.6	1.89439e-07
1927.16	1.41143e-06
1935.72	2.66631e-06
1944.28	3.61038e-06
1952.83	2.09069e-06
1961.39	2.12548e-06
1969.95	-5.26892e-07
1978.51	-1.47968e-06
1987.06	-1.5998e-06
1995.62	-2.51248e-06
2004.18	-2.65813e-06
2012.74	-1.53113e-06
2021.29	-2.77771e-06
2029.85	-2.14846e-06
2038.41	-8.16733e-07
2046.97	1.34392e-05
2055.52	2.37621e-05
2064.08	2.92299e-06
2072.64	-1.19922e-06
2081.2	-2.10995e-06
2089.76	-2.63596e-06
2098.31	-2.61481e-06
2106.87	-1.96421e-06
2115.43	-2.01795e-06
2123.99	7.41839e-07
2132.54	-1.14676e-07
2141.1	-2.02553e-06
2149.66	-8.29654e-07
2158.22	-9.63291e-07
2166.77	-1.13748e-06
2175.33	-1.30867e-06
2183.89	-2.9492e-06
2192.45	-2.04107e-06
2201	-3.5481e-06
2209.56	-4.73097e-06
2218.12	-7.31786e-06
2226.68	-7.51002e-06
2235.24	-5.81129e-06
2243.79	-8.92908e-06
2252.35	-7.02934e-06
2260.91	-3.20448e-06
2269.47	-2.05328e-06
2278.02	-3.74809e-06
2286.58	-2.9609e-06
2295.14	-2.3173e-06
2303.7	-3.38459e-06
2312.25	3.4221e-07
2320.81	-2.56125e-06
2329.37	-8.83275e-07
2337.93	5.16646e-06
2346.49	1.81838e-05
2355.04	1.45554e-05
2363.6	3.34458e-06
2372.16	-1.44711e-06
2380.72	-3.2784e-06
2389.27	-9.36881e-07
2397.83	-3.57044e-06
2406.39	-1.92243e-06
2414.95	-2.62148e-06
2423.5	-1.12072e-06
2432.06	-1.116e-06
2440.62	4.83501e-07
2449.18	1.25261e-06
2457.73	5.71096e-06
2466.29	6.14978e-06
2474.85	4.76718e-06
2483.41	-4.20899e-06
2491.97	-3.607e-06
2500.52	-7.30772e-06
2509.08	-1.04532e-05
2517.64	-8.49679e-06
2526.2	-1.13408e-06
2534.75	1.07984e-06
2543.31	-2.28477e-06
2551.87	-9.7224e-07
2560.43	-3.52469e-07
2568.98	8.77207e-07
2577.54	-5.2209e-07
2586.1	-1.82644e-06
2594.66	-1.8516e-06
2603.21	-3.24512e-06
2611.77	-1.95154e-06
2620.33	-3.91687e-06
2628.89	-2.21699e-07
2637.45	-2.07234e-06
2646	-1.43448e-06
2654.56	4.19545e-06
2663.12	1.49439e-05
2671.68	8.55267e-06
2680.23	3.74295e-07
2688.79	-2.96794e-06
2697.35	-2.48122e-06
2705.91	-1.63773e-06
2714.46	-1.36619e-06
2723.02	-8.02822e-07
2731.58	-3.29685e-06
2740.14	-2.22656e-06
2748.69	-1.87191e-06
2757.25	-3.45745e-06
2765.81	-1.53795e-06
2774.37	-3.85404e-06
2782.93	-2.31477e-06
2791.48	-2.41907e-06
2800.04	-2.49489e-06
2808.6	-2.63802e-06
2817.16	-3.05852e-06
2825.71	-1.4606e-06
2834.27	-4.45575e-06
2842.83	-2.1923e-06
2851.39	-2.72686e-06
2859.94	-7.29965e-07
2868.5	-4.9599e-06
2877.06	-5.62876e-07
2885.62	-2.7901e-06
2894.18	-3.89408e-06
2902.73	-6.80434e-07
2911.29	-4.0777e-06
2919.85	-3.27201e-06
2928.41	-3.22409e-06
2936.96	-2.81121e-06
2945.52	-3.25826e-06
2954.08	-2.38885e-06
2962.64	-1.87202e-06
2971.19	-1.29527e-06
2979.75	-1.93226e-06
2988.31	-5.25616e-06
2996.87	6.44609e-08
3005.42	-4.64867e-06
3013.98	-2.08138e-06
3022.54	-2.06233e-06
3031.1	-9.31526e-07
3039.66	-1.9252e-06
3048.21	-3.76584e-06
3056.77	-2.61316e-06
3065.33	-4.86428e-06
3073.89	-1.93562e-06
3082.44	-4.13695e-06
3091	-3.44269e-06
3099.56	1.42002e-06
3108.12	-1.89163e-08
3116.67	-2.0389e-06
3125.23	-5.86711e-07
3133.79	-2.91413e-07
3142.35	-1.29741e-06
3150.9	-3.89705e-07
3159.46	-1.51074e-06
3168.02	-1.94398e-06
3176.58	-4.05117e-06
3185.14	-2.08351e-06
3193.69	-2.44825e-06
3202.25	-1.17029e-06
3210.81	-1.92015e-06
3219.37	-5.41152e-08
3227.92	-3.5862e-06
3236.48	-2.46343e-06
3245.04	-1.76977e-06
3253.6	-3.87755e-06
3262.15	-2.47997e-06
3270.71	-3.02403e-06
3279.27	-1.81017e-06
3287.83	-1.83814e-06
3296.38	-1.05733e-06
3304.94	-2.75848e-06
3313.5	-1.07433e-06
3322.06	-8.87786e-07
3330.62	-6.56864e-06
3339.17	-5.2335e-06
3347.73	-5.23641e-06
3356.29	-3.24486e-06
3364.85	-6.75187e-06
3373.4	-1.35921e-07
3381.96	-2.43122e-06
3390.52	-2.42597e-06
3399.08	-5.36268e-06
3407.63	-1.14439e-06
3416.19	-4.5762e-06
3424.75	-1.75641e-06
3433.31	-1.42347e-06
3441.87	-2.54506e-06
3450.42	-2.2173e-06
3458.98	-5.99929e-06
3467.54	-3.12555e-07
3476.1	-1.73822e-06
3484.65	-5.20224e-06
3493.21	-5.47874e-06
3501.77	-1.24746e-06
3510.33	-3.61697e-06
3518.88	-4.41338e-06
3527.44	-2.46945e-06
3536	-3.17253e-06
3544.56	-3.61466e-06
3553.11	-5.79188e-07
3561.67	-3.63995e-06
3570.23	-1.13926e-06
3578.79	-3.03497e-06
3587.35	-3.13087e-06
3595.9	-1.21432e-06
3604.46	-4.27613e-06
3613.02	-1.70785e-06
3621.58	-3.70045e-06
3630.13	-6.45933e-06
3638.69	-3.54842e-06
3647.25	-3.58656e-06
3655.81	-5.89748e-06
3664.36	-2.84049e-06
3672.92	-1.30387e-06
3681.48	-4.2676e-06
3690.04	-3.51015e-06
3698.59	-4.49798e-06
3707.15	-2.52584e-06
3715.71	-2.39713e-06
3724.27	-3.63488e-06
3732.83	-2.70555e-06
3741.38	-6.33714e-06
3749.94	-9.54909e-07
3758.5	-2.75448e-06
3767.06	-3.53664e-06
3775.61	-6.4627e-06
3784.17	-4.82361e-06
3792.73	-2.11042e-06
3801.29	-4.58292e-06
3809.84	-1.60394e-06
3818.4	-5.52453e-06
3826.96	-9.03544e-07
3835.52	-3.10793e-06
3844.08	-6.67207e-07
3852.63	-3.58104e-06
3861.19	-6.98928e-07
3869.75	-3.57218e-06
3878.31	-2.1392e-06
3886.86	-5.02919e-06
3895.42	-1.79113e-06
3903.98	-4.28057e-06
3912.54	-1.09911e-06
3921.09	-3.01305e-06
3929.65	-4.23353e-06
3938.21	-4.64903e-06
3946.77	-4.88243e-06
3955.32	-2.48863e-06
3963.88	-1.33175e-06
3972.44	-5.20284e-06
