Infrared Spectrum: Hexafluoroethane
Formula: C2 F6
CAS: 76-16-4
State: gas
Melting point: -94 C
Boiling point: -79 C
Class: IUPAC A
Instrument: IFS66V (Bruker)
Instrument parameters: KBr Beam Splitter; MCT Detector; Multipass cell
Sampling: 1 L/min Flow
Resolution: 0.4820
Temperature: 23 C
Pressure: 101.3 Pa
Origin: NIST, Analytical Chemistry Division, 301-975-3108
cm-1	(micromol/mol)-1m-1 (base 10)
575.171	2.58321e-06
583.849	-4.38851e-06
592.527	-1.54735e-07
601.206	-3.37519e-06
609.884	-8.47159e-08
618.562	-1.64038e-06
627.24	-2.76804e-07
635.918	-3.47325e-06
644.596	-1.91517e-06
653.275	1.6207e-06
661.953	5.55121e-08
670.631	-4.02649e-06
679.309	-1.51793e-06
687.987	1.0947e-06
696.666	1.40019e-05
705.344	0.000221458
714.022	0.000947206
722.7	0.000249988
731.378	1.90501e-05
740.057	-1.23628e-06
748.735	-3.21548e-06
757.413	-2.47207e-07
766.091	-4.19169e-06
774.769	-3.58246e-08
783.447	-1.06775e-06
792.126	-3.18484e-06
800.804	-1.29986e-06
809.482	-9.36953e-07
818.16	8.7178e-07
826.838	-1.97482e-06
835.517	7.89872e-07
844.195	-2.80491e-06
852.873	-1.74654e-06
861.551	-2.3787e-06
870.229	1.23165e-06
878.907	-1.99989e-07
887.586	3.92819e-07
896.264	-4.46163e-07
904.942	1.00077e-06
913.62	-1.74926e-06
922.298	-1.13085e-06
930.977	-1.66904e-06
939.655	-7.71014e-07
948.333	-1.98257e-06
957.011	-1.56404e-06
965.689	-1.09445e-06
974.368	-2.48959e-06
983.046	-9.62476e-07
991.724	-9.54575e-07
1000.4	-6.08188e-07
1009.08	5.30864e-07
1017.76	2.80431e-06
1026.44	4.96822e-06
1035.11	3.99464e-06
1043.79	-8.11655e-07
1052.47	-6.4944e-07
1061.15	6.57662e-07
1069.83	1.18684e-06
1078.51	-1.9654e-07
1087.18	8.06728e-06
1095.86	8.54372e-05
1104.54	0.00103022
1113.22	0.00189956
1121.9	0.00244496
1130.57	0.000199056
1139.25	0.000173534
1147.93	0.000109763
1156.61	6.85943e-06
1165.29	1.85358e-06
1173.97	4.24102e-06
1182.64	7.06562e-06
1191.32	1.94522e-05
1200	6.59698e-05
1208.68	6.86519e-05
1217.36	2.17939e-05
1226.03	5.14099e-05
1234.71	0.00069234
1243.39	0.0063058
1252.07	0.0120561
1260.75	0.0017301
1269.43	7.41785e-05
1278.1	1.41962e-05
1286.78	1.10326e-05
1295.46	1.45122e-05
1304.14	3.54844e-05
1312.82	7.32415e-05
1321.49	0.000122862
1330.17	0.000136054
1338.85	9.2893e-05
1347.53	4.22741e-05
1356.21	1.14859e-05
1364.89	1.467e-06
1373.56	1.36692e-07
1382.24	-9.89614e-07
1390.92	-1.49146e-06
1399.6	7.40646e-08
1408.28	-1.30214e-06
1416.95	-8.69888e-07
1425.63	-1.0477e-06
1434.31	2.48923e-06
1442.99	6.23449e-06
1451.67	6.74615e-06
1460.35	6.7263e-06
1469.02	4.09225e-06
1477.7	2.90685e-07
1486.38	-7.00063e-07
1495.06	-1.16839e-06
1503.74	-6.7393e-07
1512.41	-1.1571e-06
1521.09	-2.72994e-06
1529.77	-1.54834e-06
1538.45	-2.01408e-06
1547.13	-8.4032e-07
1555.81	-1.39484e-06
1564.48	-1.3642e-06
1573.16	-1.62631e-06
1581.84	-7.12606e-07
1590.52	1.68007e-06
1599.2	8.11704e-06
1607.88	4.06383e-06
1616.55	4.88807e-06
1625.23	1.24607e-05
1633.91	1.46947e-05
1642.59	8.02767e-06
1651.27	7.84837e-07
1659.94	-1.57691e-06
1668.62	-1.9565e-06
1677.3	-1.27762e-06
1685.98	-9.58824e-07
1694.66	-1.13202e-06
1703.34	2.52038e-07
1712.01	1.70274e-06
1720.69	5.11161e-06
1729.37	9.88246e-06
1738.05	8.41649e-06
1746.73	4.34128e-06
1755.4	4.89088e-07
1764.08	-7.76005e-07
1772.76	-2.89251e-06
1781.44	-1.03366e-06
1790.12	-1.59473e-06
1798.8	-1.88785e-06
1807.47	-1.6453e-06
1816.15	-2.01239e-06
1824.83	-1.0389e-06
1833.51	-7.8961e-07
1842.19	-9.11868e-07
1850.86	1.35777e-06
1859.54	5.98852e-06
1868.22	1.0057e-05
1876.9	4.89119e-06
1885.58	-4.7493e-07
1894.26	-2.25503e-06
1902.93	-1.30546e-06
1911.61	-1.05448e-06
1920.29	6.78178e-07
1928.97	2.86586e-06
1937.65	3.1345e-06
1946.32	2.54583e-06
1955	2.70312e-06
1963.68	5.63648e-07
1972.36	-1.41885e-06
1981.04	-1.60083e-06
1989.72	-1.82186e-06
1998.39	-2.06792e-06
2007.07	-1.57958e-06
2015.75	-2.10582e-06
2024.43	-1.49484e-06
2033.11	-1.53963e-06
2041.78	2.86797e-06
2050.46	2.10194e-05
2059.14	1.5644e-05
2067.82	-1.3132e-06
2076.5	-1.85295e-06
2085.18	-2.04292e-06
2093.85	-2.81779e-06
2102.53	-2.12226e-06
2111.21	-2.13661e-06
2119.89	-1.34223e-06
2128.57	-1.42952e-06
2137.24	-7.88839e-07
2145.92	-1.54054e-06
2154.6	-1.18028e-06
2163.28	-2.02068e-06
2171.96	-2.14536e-06
2180.64	-2.03277e-06
2189.31	-2.37183e-06
2197.99	-2.48918e-06
2206.67	-5.39088e-06
2215.35	-7.32816e-06
2224.03	-6.8987e-06
2232.7	-1.01564e-05
2241.38	-8.64577e-06
2250.06	-7.49244e-06
2258.74	-3.30468e-06
2267.42	-2.54466e-06
2276.1	-2.57049e-06
2284.77	-2.46853e-06
2293.45	-3.67237e-06
2302.13	-2.21652e-06
2310.81	-2.96308e-06
2319.49	-1.96786e-06
2328.16	-5.14567e-07
2336.84	6.37338e-06
2345.52	1.40741e-05
2354.2	1.41059e-05
2362.88	-1.01614e-05
2371.56	-5.84598e-06
2380.23	-1.33631e-06
2388.91	-1.49207e-06
2397.59	-2.12596e-06
2406.27	-2.12033e-06
2414.95	-1.34034e-06
2423.62	-1.40669e-06
2432.3	-6.96673e-07
2440.98	8.27079e-08
2449.66	2.52377e-06
2458.34	6.15675e-06
2467.02	7.54961e-06
2475.69	3.69166e-06
2484.37	-2.25993e-06
2493.05	-4.12377e-06
2501.73	-8.28562e-06
2510.41	-1.06807e-05
2519.08	-6.45232e-06
2527.76	-1.28366e-06
2536.44	2.22325e-07
2545.12	-2.25161e-06
2553.8	-1.28584e-06
2562.48	-1.21863e-06
2571.15	-6.89106e-07
2579.83	-9.99639e-07
2588.51	-1.44228e-06
2597.19	-2.66362e-06
2605.87	-2.37274e-06
2614.54	-2.37552e-06
2623.22	-2.84054e-06
2631.9	-2.15403e-06
2640.58	-1.6447e-06
2649.26	1.58797e-06
2657.94	8.23784e-06
2666.61	1.15593e-05
2675.29	3.98485e-06
2683.97	-2.51326e-06
2692.65	-2.00402e-06
2701.33	-1.93834e-06
2710	-2.00088e-06
2718.68	-2.25574e-06
2727.36	-2.59641e-06
2736.04	-2.03247e-06
2744.72	-2.53666e-06
2753.4	-2.56885e-06
2762.07	-1.92805e-06
2770.75	-2.38859e-06
2779.43	-2.56747e-06
2788.11	-1.86093e-06
2796.79	-2.44853e-06
2805.46	-2.39389e-06
2814.14	-2.39424e-06
2822.82	-8.7907e-07
2831.5	-2.85665e-06
2840.18	-2.48589e-06
2848.86	-1.20709e-06
2857.53	-9.05902e-07
2866.21	-2.33624e-06
2874.89	-3.6133e-06
2883.57	-1.78074e-06
2892.25	-2.74176e-06
2900.92	-2.79391e-06
2909.6	-2.8015e-06
2918.28	-2.52074e-06
2926.96	-2.03228e-06
2935.64	-2.34534e-06
2944.32	-2.57819e-06
2952.99	-2.03189e-06
2961.67	-1.56134e-06
2970.35	-3.0197e-06
2979.03	-1.51716e-06
2987.71	-3.23061e-06
2996.38	-2.57396e-06
3005.06	-1.34774e-06
3013.74	-1.80654e-06
3022.42	-2.47994e-06
3031.1	-1.43691e-06
3039.78	-2.2228e-06
3048.45	-3.55186e-06
3057.13	-7.0437e-07
3065.81	-1.70868e-06
3074.49	-3.3131e-06
3083.17	-2.09667e-06
3091.84	-2.38936e-06
3100.52	-1.44084e-06
3109.2	-1.40072e-06
3117.88	-1.39541e-06
3126.56	-1.42923e-06
3135.24	-2.3758e-06
3143.91	-9.18066e-07
3152.59	-1.89509e-06
3161.27	-2.35211e-06
3169.95	-9.25618e-07
3178.63	-3.24676e-06
3187.3	-3.43326e-06
3195.98	-2.99122e-06
3204.66	-3.20727e-06
3213.34	-4.4301e-06
3222.02	-2.20261e-06
3230.7	-2.211e-06
3239.37	-2.83097e-06
3248.05	-3.83262e-06
3256.73	-3.30238e-06
3265.41	-1.24837e-06
3274.09	-3.50855e-06
3282.76	-2.34545e-06
3291.44	-2.01917e-06
3300.12	-3.49172e-06
3308.8	-3.30276e-06
3317.48	-2.10598e-06
3326.16	-1.67162e-06
3334.83	-4.14427e-07
3343.51	-4.74013e-07
3352.19	-3.79254e-06
3360.87	-1.84125e-06
3369.55	-2.7948e-06
3378.22	-5.30563e-06
3386.9	-3.92698e-06
3395.58	-3.9333e-06
3404.26	-3.08547e-06
3412.94	-1.27371e-06
3421.62	-3.07626e-06
3430.29	-2.20791e-06
3438.97	-3.69916e-06
3447.65	-3.67253e-06
3456.33	-1.75913e-06
3465.01	-3.05874e-06
3473.68	-2.70147e-06
3482.36	-3.29644e-06
3491.04	-3.26866e-06
3499.72	-3.82907e-06
3508.4	-2.34181e-06
3517.08	-1.29798e-06
3525.75	-2.80162e-06
3534.43	-3.7338e-06
3543.11	-2.98434e-06
3551.79	-2.72908e-06
3560.47	-3.43767e-06
3569.14	-2.33525e-06
3577.82	-4.67623e-06
3586.5	-3.36885e-06
3595.18	-4.24848e-06
3603.86	-3.10545e-06
3612.54	-3.00481e-06
3621.21	-2.47168e-06
3629.89	-2.4487e-06
3638.57	-2.72814e-06
3647.25	-4.31967e-06
3655.93	-1.21111e-06
3664.6	-2.17773e-06
3673.28	-3.44592e-06
3681.96	-2.94592e-06
3690.64	-2.47918e-06
3699.32	-3.72773e-06
3708	-2.48658e-06
3716.67	-3.11502e-06
3725.35	-3.15716e-06
3734.03	-3.26228e-06
3742.71	-3.62316e-06
3751.39	-4.09074e-06
3760.06	-5.78247e-06
3768.74	-5.03401e-06
3777.42	-3.32861e-06
3786.1	-3.05831e-06
3794.78	-3.11274e-06
3803.46	-2.69519e-06
3812.13	-2.31598e-06
3820.81	-4.00915e-06
3829.49	-1.96102e-06
3838.17	-3.36949e-06
3846.85	-3.52709e-06
3855.52	-2.81395e-06
3864.2	-3.90751e-06
3872.88	-2.4995e-06
3881.56	-1.82873e-06
3890.24	-2.69634e-06
3898.92	-3.80528e-06
3907.59	-2.00898e-06
3916.27	-3.27572e-06
3924.95	-3.46394e-06
3933.63	-2.97099e-06
3942.31	-4.75221e-06
3950.98	-3.25244e-06
3959.66	-2.96477e-06
3968.34	-3.45669e-06
