Infrared Spectrum: Hexafluoroethane
Formula: C2 F6
CAS: 76-16-4
State: gas
Melting point: -94 C
Boiling point: -79 C
Class: IUPAC A
Instrument: IFS66V (Bruker)
Instrument parameters: KBr Beam Splitter; MCT Detector; Multipass cell
Sampling: 1 L/min Flow
Resolution: 0.9640
Temperature: 23 C
Pressure: 101.3 Pa
Origin: NIST, Analytical Chemistry Division, 301-975-3108
cm-1	(micromol/mol)-1m-1 (base 10)
575.171	2.64173e-06
583.849	-2.93089e-06
592.527	3.30875e-06
601.206	-4.83602e-07
609.884	-1.33747e-06
618.562	-4.57399e-06
627.24	-9.70013e-07
635.918	-3.78127e-06
644.596	-2.09491e-06
653.275	-2.16344e-06
661.953	-4.29352e-06
670.631	-1.61171e-06
679.309	-3.03247e-06
687.987	-3.35179e-06
696.666	9.49379e-06
705.344	0.000211527
714.022	0.00111208
722.7	0.00025792
731.378	2.39638e-05
740.057	2.74615e-06
748.735	-1.15496e-06
757.413	6.15114e-07
766.091	-9.08841e-07
774.769	1.49747e-06
783.447	-5.8495e-07
792.126	-4.05158e-07
800.804	-1.159e-06
809.482	1.16679e-06
818.16	4.93846e-07
826.838	-3.18492e-07
835.517	4.01622e-07
844.195	-5.27328e-07
852.873	-7.79744e-07
861.551	-1.53644e-06
870.229	4.50557e-07
878.907	-4.31204e-07
887.586	1.09534e-06
896.264	5.36073e-07
904.942	2.08188e-06
913.62	-3.73961e-07
922.298	-7.66183e-07
930.977	-9.95783e-07
939.655	-3.25055e-07
948.333	-1.31064e-06
957.011	-5.65132e-07
965.689	-5.03566e-07
974.368	-1.57135e-06
983.046	-2.80703e-07
991.724	-4.9843e-07
1000.4	6.66188e-07
1009.08	6.93748e-07
1017.76	2.88101e-06
1026.44	4.60986e-06
1035.11	4.00925e-06
1043.79	-9.09976e-07
1052.47	-9.46164e-07
1061.15	7.88024e-07
1069.83	5.91047e-07
1078.51	-1.24308e-06
1087.18	7.65611e-06
1095.86	8.23203e-05
1104.54	0.00102688
1113.22	0.00188426
1121.9	0.00246129
1130.57	0.000206276
1139.25	0.000177514
1147.93	0.000113801
1156.61	1.048e-05
1165.29	5.37662e-06
1173.97	7.10834e-06
1182.64	1.04948e-05
1191.32	2.36352e-05
1200	7.08862e-05
1208.68	7.23086e-05
1217.36	2.83792e-05
1226.03	6.00703e-05
1234.71	0.000704498
1243.39	0.006335
1252.07	0.0118988
1260.75	0.00171178
1269.43	6.6023e-05
1278.1	8.32767e-06
1286.78	6.82519e-06
1295.46	1.10771e-05
1304.14	3.26356e-05
1312.82	7.15342e-05
1321.49	0.000120886
1330.17	0.000134727
1338.85	9.17736e-05
1347.53	4.16359e-05
1356.21	9.92362e-06
1364.89	3.51057e-07
1373.56	-1.16813e-06
1382.24	-1.55537e-06
1390.92	-1.62813e-06
1399.6	-1.04655e-06
1408.28	-1.98864e-06
1416.95	-1.42751e-06
1425.63	-1.54011e-06
1434.31	2.06323e-06
1442.99	5.65431e-06
1451.67	6.99098e-06
1460.35	6.14099e-06
1469.02	3.89508e-06
1477.7	7.10671e-08
1486.38	-1.40379e-06
1495.06	-1.99443e-06
1503.74	-1.45187e-06
1512.42	-1.50425e-06
1521.09	-2.61918e-06
1529.77	-1.52151e-06
1538.45	-1.69522e-06
1547.13	-1.44392e-06
1555.81	-1.05802e-06
1564.48	-1.76141e-06
1573.16	-1.60016e-06
1581.84	-1.32528e-06
1590.52	1.5012e-06
1599.2	7.741e-06
1607.88	3.64974e-06
1616.55	4.8415e-06
1625.23	1.2245e-05
1633.91	1.47683e-05
1642.59	7.45145e-06
1651.27	-2.34708e-08
1659.94	-1.44756e-06
1668.62	-2.21159e-06
1677.3	-1.42945e-06
1685.98	-1.46184e-06
1694.66	-1.38741e-06
1703.34	2.33689e-08
1712.01	1.87575e-06
1720.69	5.4396e-06
1729.37	9.6679e-06
1738.05	8.38308e-06
1746.73	4.26954e-06
1755.4	3.84379e-07
1764.08	-8.59891e-07
1772.76	-2.30418e-06
1781.44	-1.32277e-06
1790.12	-1.99728e-06
1798.8	-1.80878e-06
1807.47	-1.60215e-06
1816.15	-2.04107e-06
1824.83	-1.81052e-06
1833.51	-1.1955e-06
1842.19	-1.23275e-06
1850.86	1.13213e-06
1859.54	6.31473e-06
1868.22	1.0041e-05
1876.9	4.95265e-06
1885.58	-4.40633e-07
1894.26	-2.19566e-06
1902.93	-1.93057e-06
1911.61	-1.30603e-06
1920.29	8.67938e-07
1928.97	2.34278e-06
1937.65	2.56128e-06
1946.32	2.68927e-06
1955	2.63546e-06
1963.68	5.0166e-07
1972.36	-1.21981e-06
1981.04	-1.54354e-06
1989.72	-1.89861e-06
1998.39	-1.92566e-06
2007.07	-1.52556e-06
2015.75	-1.79136e-06
2024.43	-2.14272e-06
2033.11	-1.46158e-06
2041.78	2.59188e-06
2050.46	2.09026e-05
2059.14	1.54039e-05
2067.82	-1.39832e-06
2076.5	-1.92955e-06
2085.18	-2.04846e-06
2093.85	-2.52664e-06
2102.53	-2.06525e-06
2111.21	-1.62935e-06
2119.89	-1.16711e-06
2128.57	-1.41536e-06
2137.24	-7.79657e-07
2145.92	-1.33102e-06
2154.6	-1.49366e-06
2163.28	-2.023e-06
2171.96	-1.71545e-06
2180.64	-2.33603e-06
2189.31	-2.53052e-06
2197.99	-2.50811e-06
2206.67	-5.18436e-06
2215.35	-7.17382e-06
2224.03	-6.95315e-06
2232.7	-9.91335e-06
2241.38	-8.90006e-06
2250.06	-7.33044e-06
2258.74	-3.68613e-06
2267.42	-2.59699e-06
2276.1	-2.77349e-06
2284.77	-2.44192e-06
2293.45	-3.0811e-06
2302.13	-1.68877e-06
2310.81	-2.79682e-06
2319.49	-3.50617e-06
2328.16	-1.66231e-06
2336.84	7.3314e-06
2345.52	1.34036e-05
2354.2	1.16103e-05
2362.88	-6.94657e-06
2371.56	-5.38636e-06
2380.23	-1.51969e-06
2388.91	-1.72169e-06
2397.59	-2.42187e-06
2406.27	-2.21359e-06
2414.95	-1.92016e-06
2423.62	-1.77052e-06
2432.3	-9.99945e-07
2440.98	-1.01435e-07
2449.66	2.22789e-06
2458.34	5.89666e-06
2467.02	7.78334e-06
2475.69	3.49841e-06
2484.37	-2.16129e-06
2493.05	-4.29928e-06
2501.73	-7.89363e-06
2510.41	-1.05508e-05
2519.08	-6.50916e-06
2527.76	-1.22227e-06
2536.44	-3.58682e-08
2545.12	-2.13243e-06
2553.8	-1.04712e-06
2562.48	-9.96205e-07
2571.15	-8.73133e-07
2579.83	-1.36673e-06
2588.51	-1.72749e-06
2597.19	-2.11045e-06
2605.87	-2.41762e-06
2614.54	-2.4918e-06
2623.22	-2.53567e-06
2631.9	-2.1549e-06
2640.58	-1.22522e-06
2649.26	2.02812e-06
2657.94	8.40863e-06
2666.61	1.24823e-05
2675.29	4.21823e-06
2683.97	-2.22432e-06
2692.65	-2.33117e-06
2701.33	-2.24874e-06
2710	-2.45107e-06
2718.68	-2.10214e-06
2727.36	-2.39624e-06
2736.04	-1.66113e-06
2744.72	-2.67311e-06
2753.4	-2.21079e-06
2762.07	-2.19508e-06
2770.75	-2.05309e-06
2779.43	-2.31121e-06
2788.11	-1.86016e-06
2796.79	-2.00229e-06
2805.46	-2.61045e-06
2814.14	-2.52698e-06
2822.82	-2.07093e-06
2831.5	-3.20116e-06
2840.18	-2.89716e-06
2848.86	-1.92076e-06
2857.53	-1.57031e-06
2866.21	-3.06444e-06
2874.89	-2.98511e-06
2883.57	-1.95277e-06
2892.25	-2.46708e-06
2900.92	-2.25738e-06
2909.6	-3.30564e-06
2918.28	-2.8289e-06
2926.96	-2.83788e-06
2935.64	-2.3117e-06
2944.32	-2.90275e-06
2952.99	-2.5879e-06
2961.67	-1.95111e-06
2970.35	-2.89651e-06
2979.03	-2.02049e-06
2987.71	-2.92737e-06
2996.38	-2.66699e-06
3005.06	-2.34347e-06
3013.74	-2.26093e-06
3022.42	-2.23022e-06
3031.1	-2.33005e-06
3039.78	-2.27682e-06
3048.45	-4.25521e-06
3057.13	-2.64725e-06
3065.81	-2.26671e-06
3074.49	-2.83809e-06
3083.17	-1.94048e-06
3091.84	-2.41963e-06
3100.52	-1.66992e-06
3109.2	-1.89594e-06
3117.88	-2.16928e-06
3126.56	-2.03747e-06
3135.24	-2.48834e-06
3143.91	-1.4426e-06
3152.59	-2.18373e-06
3161.27	-2.40867e-06
3169.95	-1.5826e-06
3178.63	-2.53897e-06
3187.3	-3.71774e-06
3195.98	-2.81467e-06
3204.66	-3.26177e-06
3213.34	-2.87454e-06
3222.02	-1.69083e-06
3230.7	-1.77532e-06
3239.37	-2.09185e-06
3248.05	-2.35498e-06
3256.73	-2.85926e-06
3265.41	-1.87417e-06
3274.09	-2.88549e-06
3282.76	-2.4888e-06
3291.44	-2.36275e-06
3300.12	-2.80441e-06
3308.8	-3.22939e-06
3317.48	-2.93123e-06
3326.16	-1.94646e-06
3334.83	-1.21364e-06
3343.51	-1.53822e-06
3352.19	-3.96189e-06
3360.87	-2.4424e-06
3369.55	-3.00708e-06
3378.22	-3.51041e-06
3386.9	-2.79932e-06
3395.58	-3.37218e-06
3404.26	-2.79391e-06
3412.94	-2.30568e-06
3421.62	-2.75682e-06
3430.29	-3.26132e-06
3438.97	-3.25037e-06
3447.65	-2.66308e-06
3456.33	-2.39335e-06
3465.01	-2.36454e-06
3473.68	-2.8067e-06
3482.36	-3.86173e-06
3491.04	-2.72515e-06
3499.72	-3.18048e-06
3508.4	-3.22847e-06
3517.08	-1.90157e-06
3525.75	-3.23674e-06
3534.43	-3.55891e-06
3543.11	-2.70008e-06
3551.79	-2.71392e-06
3560.47	-3.83014e-06
3569.14	-3.11776e-06
3577.82	-4.03656e-06
3586.5	-4.10216e-06
3595.18	-3.8089e-06
3603.86	-3.22081e-06
3612.54	-3.01409e-06
3621.21	-2.61694e-06
3629.89	-3.28444e-06
3638.57	-2.60403e-06
3647.25	-2.54771e-06
3655.93	-1.97354e-06
3664.6	-3.5347e-06
3673.28	-3.3521e-06
3681.96	-2.39739e-06
3690.64	-3.05264e-06
3699.32	-3.34738e-06
3708	-3.08928e-06
3716.67	-3.0267e-06
3725.35	-3.75538e-06
3734.03	-4.0706e-06
3742.71	-4.51158e-06
3751.39	-4.07556e-06
3760.06	-5.14285e-06
3768.74	-5.17905e-06
3777.42	-4.74195e-06
3786.1	-3.54209e-06
3794.78	-2.7128e-06
3803.46	-2.92666e-06
3812.13	-2.59888e-06
3820.81	-3.60706e-06
3829.49	-2.27211e-06
3838.17	-4.44795e-06
3846.85	-3.48563e-06
3855.53	-3.50506e-06
3864.2	-3.64174e-06
3872.88	-2.85457e-06
3881.56	-2.60181e-06
3890.24	-3.34606e-06
3898.92	-3.41225e-06
3907.59	-2.22285e-06
3916.27	-3.17007e-06
3924.95	-3.5569e-06
3933.63	-3.1296e-06
3942.31	-4.82181e-06
3950.99	-2.75043e-06
3959.66	-2.49336e-06
3968.34	-4.01714e-06
