Infrared Spectrum: Hexafluoroethane
Formula: C2 F6
CAS: 76-16-4
State: gas
Melting point: -94 C
Boiling point: -79 C
Class: IUPAC A
Instrument: IFS66V (Bruker)
Instrument parameters: KBr Beam Splitter; MCT Detector; Multipass cell
Sampling: 1 L/min Flow
Resolution: 0.9640
Temperature: 23 C
Pressure: 101.3 Pa
Origin: NIST, Analytical Chemistry Division, 301-975-3108
cm-1	(micromol/mol)-1m-1 (base 10)
575.171	1.05875e-06
583.849	-2.87701e-06
592.527	-2.98242e-06
601.206	1.13345e-06
609.884	-2.90962e-07
618.562	-2.07097e-06
627.24	2.90467e-07
635.918	-2.85089e-06
644.596	-1.39931e-06
653.275	-1.52994e-06
661.953	-2.27889e-06
670.631	4.56101e-07
679.309	-1.69781e-06
687.987	-8.44467e-07
696.666	1.29297e-05
705.344	0.000216303
714.022	0.000946604
722.7	0.000251343
731.378	2.02872e-05
740.057	5.89621e-07
748.735	-1.40046e-06
757.413	-1.19841e-06
766.091	-1.28311e-06
774.769	4.36457e-07
783.447	-8.41892e-07
792.126	-1.06518e-06
800.804	-1.54852e-06
809.482	-5.70108e-07
818.16	-6.68327e-07
826.838	-6.77989e-07
835.517	-5.79799e-07
844.195	-1.32068e-06
852.873	-1.19045e-06
861.551	-1.4582e-06
870.229	-4.8142e-07
878.907	-9.77653e-07
887.586	4.72937e-07
896.264	8.29116e-07
904.942	1.30023e-06
913.62	-4.19214e-07
922.298	-1.07963e-06
930.977	-1.17341e-06
939.655	-9.35164e-07
948.333	-1.19299e-06
957.011	-1.03794e-06
965.689	-1.11168e-06
974.368	-1.68083e-06
983.046	-5.41574e-07
991.724	-4.52871e-07
1000.4	3.47041e-07
1009.08	8.79623e-07
1017.76	2.71184e-06
1026.44	4.74088e-06
1035.11	3.29733e-06
1043.79	-6.77102e-07
1052.47	-1.91928e-07
1061.15	1.79111e-06
1069.83	1.11999e-06
1078.51	-4.55141e-07
1087.18	9.34333e-06
1095.86	8.5587e-05
1104.54	0.00103134
1113.22	0.00192618
1121.9	0.00243263
1130.57	0.000202934
1139.25	0.000166115
1147.93	0.000109418
1156.61	7.23307e-06
1165.29	1.95059e-06
1173.97	3.80675e-06
1182.64	7.31186e-06
1191.32	2.0444e-05
1200	6.73726e-05
1208.68	6.81996e-05
1217.36	2.36579e-05
1226.03	5.39856e-05
1234.71	0.000698465
1243.39	0.00632188
1252.07	0.0119061
1260.75	0.00173461
1269.43	7.36871e-05
1278.1	1.27806e-05
1286.78	1.00828e-05
1295.46	1.39048e-05
1304.14	3.46923e-05
1312.82	7.31912e-05
1321.49	0.000122457
1330.17	0.000135796
1338.85	9.30906e-05
1347.53	4.30152e-05
1356.21	1.06158e-05
1364.89	1.07378e-06
1373.56	-4.16595e-07
1382.24	-9.92276e-07
1390.92	-8.67632e-07
1399.6	-8.10011e-07
1408.28	-1.17512e-06
1416.95	-1.20146e-06
1425.63	-9.45946e-07
1434.31	2.77329e-06
1442.99	6.08951e-06
1451.67	7.54426e-06
1460.35	6.14483e-06
1469.02	4.14821e-06
1477.7	2.87237e-07
1486.38	-9.16291e-07
1495.06	-1.06343e-06
1503.74	-1.42269e-06
1512.42	-1.04623e-06
1521.09	-1.89276e-06
1529.77	-1.21008e-06
1538.45	-1.9936e-06
1547.13	-1.33559e-06
1555.81	-1.14674e-06
1564.48	-1.45971e-06
1573.16	-1.30492e-06
1581.84	-1.18348e-06
1590.52	1.6831e-06
1599.2	7.66874e-06
1607.88	3.84004e-06
1616.55	5.54045e-06
1625.23	1.23096e-05
1633.91	1.47873e-05
1642.59	7.86765e-06
1651.27	4.12012e-07
1659.94	-1.25479e-06
1668.62	-2.15529e-06
1677.3	-1.29965e-06
1685.98	-1.04559e-06
1694.66	-9.33287e-07
1703.34	7.86773e-08
1712.01	2.14603e-06
1720.69	5.82701e-06
1729.37	9.83755e-06
1738.05	8.49605e-06
1746.73	4.18656e-06
1755.4	4.09742e-07
1764.08	-8.08643e-07
1772.76	-1.72207e-06
1781.44	-1.36715e-06
1790.12	-1.78843e-06
1798.8	-1.93016e-06
1807.47	-1.62559e-06
1816.15	-1.93549e-06
1824.83	-1.7229e-06
1833.51	-1.23539e-06
1842.19	-9.38496e-07
1850.86	1.36551e-06
1859.54	6.3947e-06
1868.22	1.02057e-05
1876.9	5.11813e-06
1885.58	-3.63382e-07
1894.26	-1.92401e-06
1902.93	-1.7695e-06
1911.61	-8.92529e-07
1920.29	7.6272e-07
1928.97	2.22331e-06
1937.65	2.88992e-06
1946.32	2.86938e-06
1955	2.68616e-06
1963.68	5.05269e-07
1972.36	-1.03255e-06
1981.04	-1.62133e-06
1989.72	-1.90606e-06
1998.39	-1.8233e-06
2007.07	-1.56858e-06
2015.75	-1.71954e-06
2024.43	-1.7992e-06
2033.11	-1.46099e-06
2041.78	2.59345e-06
2050.46	2.09471e-05
2059.14	1.55617e-05
2067.82	-9.34131e-07
2076.5	-1.93084e-06
2085.18	-2.01329e-06
2093.85	-2.19415e-06
2102.53	-1.77202e-06
2111.21	-1.64131e-06
2119.89	-1.11955e-06
2128.57	-1.15944e-06
2137.24	-8.45806e-07
2145.92	-1.25984e-06
2154.6	-1.51835e-06
2163.28	-2.09197e-06
2171.96	-1.67054e-06
2180.64	-1.95574e-06
2189.31	-2.25872e-06
2197.99	-2.76351e-06
2206.67	-5.27779e-06
2215.35	-7.25258e-06
2224.03	-6.96567e-06
2232.7	-9.39202e-06
2241.38	-8.95632e-06
2250.06	-7.66002e-06
2258.74	-3.67772e-06
2267.42	-2.55127e-06
2276.1	-2.85811e-06
2284.77	-2.50129e-06
2293.45	-3.07809e-06
2302.13	-2.09364e-06
2310.81	-2.87819e-06
2319.49	-3.46471e-06
2328.16	-2.16695e-06
2336.84	4.39833e-06
2345.52	1.3202e-05
2354.2	1.2884e-05
2362.88	-2.02033e-06
2371.56	-3.10726e-06
2380.23	-1.41561e-06
2388.91	-1.73867e-06
2397.59	-2.02604e-06
2406.27	-2.24574e-06
2414.95	-1.82528e-06
2423.62	-1.78746e-06
2432.3	-9.46848e-07
2440.98	-9.98053e-08
2449.66	2.25303e-06
2458.34	6.00051e-06
2467.02	7.41353e-06
2475.69	3.44021e-06
2484.37	-2.21466e-06
2493.05	-4.45354e-06
2501.73	-7.8552e-06
2510.41	-1.02948e-05
2519.08	-6.45123e-06
2527.76	-1.10224e-06
2536.44	1.57413e-07
2545.12	-1.89777e-06
2553.8	-1.20402e-06
2562.48	-1.15082e-06
2571.15	-9.22155e-07
2579.83	-1.3323e-06
2588.51	-1.53298e-06
2597.19	-1.92922e-06
2605.87	-2.4187e-06
2614.54	-2.44029e-06
2623.22	-2.55478e-06
2631.9	-2.26946e-06
2640.58	-1.43886e-06
2649.26	1.8179e-06
2657.94	8.79697e-06
2666.61	1.22341e-05
2675.29	4.41016e-06
2683.97	-1.74148e-06
2692.65	-2.42591e-06
2701.33	-2.42273e-06
2710	-2.30481e-06
2718.68	-2.09102e-06
2727.36	-2.03309e-06
2736.04	-1.55648e-06
2744.72	-2.36174e-06
2753.4	-2.30022e-06
2762.07	-2.1139e-06
2770.75	-2.25191e-06
2779.43	-2.47326e-06
2788.11	-2.17147e-06
2796.79	-2.3207e-06
2805.46	-2.37861e-06
2814.14	-2.53567e-06
2822.82	-2.15564e-06
2831.5	-3.06917e-06
2840.18	-2.77211e-06
2848.86	-1.91417e-06
2857.53	-1.80363e-06
2866.21	-2.9375e-06
2874.89	-2.73399e-06
2883.57	-2.20698e-06
2892.25	-2.32516e-06
2900.92	-2.45593e-06
2909.6	-2.89147e-06
2918.28	-2.8899e-06
2926.96	-2.77806e-06
2935.64	-2.43515e-06
2944.32	-2.64673e-06
2952.99	-2.25357e-06
2961.67	-2.14687e-06
2970.35	-2.56026e-06
2979.03	-2.25657e-06
2987.71	-2.9946e-06
2996.38	-2.60186e-06
3005.06	-2.27687e-06
3013.74	-2.0584e-06
3022.42	-2.29795e-06
3031.1	-2.28286e-06
3039.78	-2.50763e-06
3048.45	-3.58017e-06
3057.13	-2.58132e-06
3065.81	-2.47198e-06
3074.49	-2.35614e-06
3083.17	-2.15992e-06
3091.84	-2.37258e-06
3100.52	-2.1789e-06
3109.2	-2.13623e-06
3117.88	-2.06128e-06
3126.56	-2.00114e-06
3135.24	-2.0363e-06
3143.91	-2.00904e-06
3152.59	-2.10825e-06
3161.27	-2.28372e-06
3169.95	-1.88248e-06
3178.63	-2.96645e-06
3187.3	-3.01741e-06
3195.98	-2.6218e-06
3204.66	-2.93908e-06
3213.34	-2.5789e-06
3222.02	-2.08645e-06
3230.7	-1.92894e-06
3239.37	-2.28196e-06
3248.05	-2.00887e-06
3256.73	-2.89936e-06
3265.41	-2.03771e-06
3274.09	-2.33599e-06
3282.76	-2.65803e-06
3291.44	-2.02255e-06
3300.12	-2.70547e-06
3308.8	-2.89408e-06
3317.48	-2.9316e-06
3326.16	-2.36611e-06
3334.83	-2.15992e-06
3343.51	-2.01494e-06
3352.19	-3.94016e-06
3360.87	-2.14498e-06
3369.55	-3.15246e-06
3378.22	-3.5651e-06
3386.9	-3.1368e-06
3395.58	-3.08018e-06
3404.26	-2.94664e-06
3412.94	-2.77282e-06
3421.62	-2.98106e-06
3430.29	-3.10642e-06
3438.97	-3.1086e-06
3447.65	-3.05465e-06
3456.33	-2.51305e-06
3465.01	-2.77227e-06
3473.68	-2.69953e-06
3482.36	-3.28477e-06
3491.04	-2.61511e-06
3499.72	-3.12489e-06
3508.4	-3.21734e-06
3517.08	-2.34731e-06
3525.75	-2.7574e-06
3534.43	-3.17078e-06
3543.11	-2.74852e-06
3551.79	-2.90989e-06
3560.47	-3.53422e-06
3569.14	-3.14021e-06
3577.82	-3.48764e-06
3586.5	-3.58441e-06
3595.18	-3.58173e-06
3603.86	-3.23827e-06
3612.54	-2.86207e-06
3621.21	-2.85569e-06
3629.89	-3.16534e-06
3638.57	-2.84052e-06
3647.25	-2.79372e-06
3655.93	-2.63526e-06
3664.6	-2.97064e-06
3673.28	-2.90796e-06
3681.96	-2.39403e-06
3690.64	-3.00947e-06
3699.32	-2.93875e-06
3708	-3.32909e-06
3716.67	-3.33184e-06
3725.35	-4.29319e-06
3734.03	-4.22058e-06
3742.71	-4.55961e-06
3751.39	-4.68126e-06
3760.06	-4.49218e-06
3768.74	-4.49655e-06
3777.42	-4.37506e-06
3786.1	-3.70016e-06
3794.78	-3.18596e-06
3803.46	-3.24618e-06
3812.13	-2.78695e-06
3820.81	-3.41387e-06
3829.49	-2.32574e-06
3838.17	-4.23759e-06
3846.85	-3.18262e-06
3855.53	-3.4963e-06
3864.2	-3.38546e-06
3872.88	-2.73132e-06
3881.56	-3.30623e-06
3890.24	-3.25939e-06
3898.92	-3.14195e-06
3907.59	-2.42268e-06
3916.27	-3.15028e-06
3924.95	-3.41305e-06
3933.63	-2.81393e-06
3942.31	-3.92905e-06
3950.99	-2.79913e-06
3959.66	-2.64972e-06
3968.34	-3.47804e-06
