Infrared Spectrum: Hexafluoroethane
Formula: C2 F6
CAS: 76-16-4
State: gas
Melting point: -94 C
Boiling point: -79 C
Class: IUPAC A
Instrument: IFS66V (Bruker)
Instrument parameters: KBr Beam Splitter; MCT Detector; Multipass cell
Sampling: 1 L/min Flow
Resolution: 0.1250
Temperature: 23 C
Pressure: 101.3 Pa
Origin: NIST, Analytical Chemistry Division, 301-975-3108
cm-1	(micromol/mol)-1m-1 (base 10)
575.05	3.88291e-06
583.608	-9.78891e-06
592.165	-3.2016e-06
600.723	2.17056e-06
609.281	1.96366e-07
617.838	3.46686e-06
626.396	-1.56125e-06
634.954	1.75398e-07
643.511	-4.8302e-07
652.069	-3.87592e-06
660.627	-3.51811e-06
669.184	-2.99842e-06
677.742	-2.24202e-06
686.3	4.45144e-07
694.857	5.87952e-06
703.415	0.000155276
711.973	0.000132594
720.53	0.000278606
729.088	4.91746e-05
737.645	2.91448e-06
746.203	6.53107e-07
754.761	-1.6183e-06
763.318	5.90189e-07
771.876	-1.10164e-06
780.434	-1.0499e-06
788.991	-6.96542e-07
797.549	-1.47728e-06
806.107	4.90165e-07
814.664	-7.83804e-07
823.222	-1.99171e-06
831.78	-4.21746e-07
840.337	-1.38336e-07
848.895	-1.5243e-06
857.453	-1.38592e-06
866.01	-5.92226e-08
874.568	-3.6149e-07
883.126	-1.02871e-06
891.683	4.29444e-07
900.241	2.34043e-06
908.799	-1.41273e-06
917.356	-1.27298e-06
925.914	2.28174e-07
934.472	-6.51026e-07
943.029	-9.27277e-07
951.587	-2.1627e-06
960.145	1.23945e-07
968.702	-1.08117e-06
977.26	-1.14951e-06
985.818	-1.42526e-06
994.375	4.44082e-07
1002.93	4.71074e-07
1011.49	1.07869e-06
1020.05	2.91168e-06
1028.61	2.71161e-06
1037.16	1.89517e-06
1045.72	2.9978e-07
1054.28	1.06515e-06
1062.84	2.32206e-06
1071.39	1.65676e-06
1079.95	1.61848e-06
1088.51	1.41048e-05
1097.07	0.000122946
1105.62	0.00125909
1114.18	0.00271888
1122.74	0.00245775
1131.3	0.000154333
1139.86	0.000123819
1148.41	0.000102267
1156.97	6.98617e-06
1165.53	2.88792e-06
1174.09	4.15328e-06
1182.64	7.14885e-06
1191.2	2.02453e-05
1199.76	6.69304e-05
1208.32	7.27533e-05
1216.87	2.54729e-05
1225.43	4.90764e-05
1233.99	0.000562042
1242.55	0.00531873
1251.1	0.0124057
1259.66	0.00239982
1268.22	0.000122465
1276.78	1.67029e-05
1285.34	1.23417e-05
1293.89	1.37392e-05
1302.45	2.88662e-05
1311.01	6.35677e-05
1319.57	0.000113446
1328.12	0.000139494
1336.68	0.000105584
1345.24	5.64355e-05
1353.8	1.57677e-05
1362.35	1.08772e-06
1370.91	-1.15768e-07
1379.47	-7.67449e-07
1388.03	-1.59857e-07
1396.59	-1.33011e-06
1405.14	-1.55718e-06
1413.7	-6.11637e-07
1422.26	-4.8788e-07
1430.82	4.17657e-07
1439.37	4.37454e-06
1447.93	7.09693e-06
1456.49	5.71345e-06
1465.05	4.6531e-06
1473.6	1.38207e-06
1482.16	-1.45842e-06
1490.72	-1.09841e-06
1499.28	-1.41689e-06
1507.83	-1.0931e-06
1516.39	-1.297e-06
1524.95	-1.97079e-06
1533.51	-9.54022e-07
1542.07	-2.54245e-06
1550.62	-1.05928e-06
1559.18	-1.88744e-06
1567.74	-1.9379e-06
1576.3	-2.94146e-06
1584.85	-1.06883e-06
1593.41	4.16281e-06
1601.97	6.49097e-06
1610.53	3.65313e-06
1619.08	9.32822e-06
1627.64	1.34189e-05
1636.2	1.14286e-05
1644.76	5.17623e-06
1653.31	-3.43345e-06
1661.87	-1.99734e-06
1670.43	-1.50078e-06
1678.99	-8.3191e-07
1687.55	-1.32365e-06
1696.1	-1.02667e-06
1704.66	4.03412e-07
1713.22	2.44147e-06
1721.78	7.80297e-06
1730.33	1.03757e-05
1738.89	9.08311e-06
1747.45	3.84826e-06
1756.01	4.2358e-08
1764.56	-7.92797e-07
1773.12	-9.2006e-07
1781.68	-1.7178e-06
1790.24	-2.03174e-06
1798.79	-1.54935e-06
1807.35	-1.79926e-06
1815.91	-1.69787e-06
1824.47	-8.28767e-07
1833.03	-2.04038e-06
1841.58	-6.15245e-07
1850.14	1.3785e-06
1858.7	5.92383e-06
1867.26	1.06291e-05
1875.81	5.59698e-06
1884.37	8.98262e-07
1892.93	-2.44895e-06
1901.49	-1.9309e-06
1910.04	-1.26403e-06
1918.6	7.77169e-08
1927.16	1.56297e-06
1935.72	2.23854e-06
1944.28	3.40067e-06
1952.83	2.1542e-06
1961.39	1.28578e-06
1969.95	-7.95503e-07
1978.51	-1.71424e-06
1987.06	-1.55125e-06
1995.62	-2.28911e-06
2004.18	-2.29674e-06
2012.74	-1.65292e-06
2021.29	-2.47939e-06
2029.85	-1.8908e-06
2038.41	-6.13703e-07
2046.97	1.28541e-05
2055.52	2.37359e-05
2064.08	2.9033e-06
2072.64	-1.24884e-06
2081.2	-2.23714e-06
2089.76	-2.62753e-06
2098.31	-2.65479e-06
2106.87	-1.95714e-06
2115.43	-1.69884e-06
2123.99	-2.12154e-08
2132.54	-7.22166e-07
2141.1	-2.14732e-06
2149.66	-1.12047e-06
2158.22	-1.02622e-06
2166.77	-1.54364e-06
2175.33	-1.34003e-06
2183.89	-2.27518e-06
2192.45	-1.916e-06
2201	-3.78789e-06
2209.56	-4.75211e-06
2218.12	-7.49295e-06
2226.68	-8.4119e-06
2235.24	-5.8786e-06
2243.79	-8.60124e-06
2252.35	-6.88729e-06
2260.91	-3.1176e-06
2269.47	-2.31665e-06
2278.02	-3.2292e-06
2286.58	-2.64697e-06
2295.14	-2.31969e-06
2303.7	-3.59085e-06
2312.25	-6.23845e-07
2320.81	-2.69535e-06
2329.37	-7.69981e-07
2337.93	4.50473e-06
2346.49	1.73749e-05
2355.04	1.44176e-05
2363.6	2.95601e-06
2372.16	-1.33655e-06
2380.72	-2.66681e-06
2389.27	-1.2176e-06
2397.83	-3.0763e-06
2406.39	-1.96066e-06
2414.95	-1.99433e-06
2423.5	-1.41532e-06
2432.06	-7.81505e-07
2440.62	3.77628e-07
2449.18	1.81358e-06
2457.73	5.86187e-06
2466.29	6.791e-06
2474.85	4.53693e-06
2483.41	-3.56561e-06
2491.97	-3.51094e-06
2500.52	-7.24048e-06
2509.08	-9.80378e-06
2517.64	-8.23843e-06
2526.2	-1.52122e-06
2534.75	5.74415e-07
2543.31	-1.59732e-06
2551.87	-1.00494e-06
2560.43	-9.83939e-07
2568.98	1.19973e-07
2577.54	-1.00104e-06
2586.1	-1.35394e-06
2594.66	-1.67163e-06
2603.21	-2.5176e-06
2611.77	-2.44223e-06
2620.33	-3.21859e-06
2628.89	-1.13943e-06
2637.45	-2.21878e-06
2646	-9.42061e-07
2654.56	4.76715e-06
2663.12	1.3967e-05
2671.68	8.81491e-06
2680.23	-2.73559e-09
2688.79	-2.36521e-06
2697.35	-2.86205e-06
2705.91	-1.41471e-06
2714.46	-1.72125e-06
2723.02	-1.32951e-06
2731.58	-2.73536e-06
2740.14	-2.18275e-06
2748.69	-2.04519e-06
2757.25	-2.99919e-06
2765.81	-1.80872e-06
2774.37	-3.27384e-06
2782.93	-2.2385e-06
2791.48	-2.5743e-06
2800.04	-2.61988e-06
2808.6	-3.10776e-06
2817.16	-2.42696e-06
2825.71	-1.78344e-06
2834.27	-3.71074e-06
2842.83	-2.49523e-06
2851.39	-2.21382e-06
2859.94	-1.59974e-06
2868.5	-4.10762e-06
2877.06	-1.5647e-06
2885.62	-2.8052e-06
2894.18	-3.70234e-06
2902.73	-1.1455e-06
2911.29	-3.55881e-06
2919.85	-2.86106e-06
2928.41	-3.52056e-06
2936.96	-2.58622e-06
2945.52	-3.10773e-06
2954.08	-2.36247e-06
2962.64	-1.64495e-06
2971.19	-1.6845e-06
2979.75	-2.38946e-06
2988.31	-4.27897e-06
2996.87	-1.12085e-06
3005.42	-3.33697e-06
3013.98	-2.03985e-06
3022.54	-2.71618e-06
3031.1	-1.25291e-06
3039.66	-2.27658e-06
3048.21	-3.91503e-06
3056.77	-2.55745e-06
3065.33	-3.68062e-06
3073.89	-1.61747e-06
3082.44	-3.21213e-06
3091	-3.12967e-06
3099.56	1.88552e-07
3108.12	-8.63747e-07
3116.67	-2.10389e-06
3125.23	-1.22143e-06
3133.79	-1.17277e-06
3142.35	-1.74439e-06
3150.9	-1.4886e-06
3159.46	-1.28923e-06
3168.02	-2.43902e-06
3176.58	-2.79858e-06
3185.14	-1.47435e-06
3193.69	-2.67187e-06
3202.25	-1.4039e-06
3210.81	-1.75776e-06
3219.37	-1.79719e-06
3227.92	-2.9196e-06
3236.48	-2.01706e-06
3245.04	-1.91762e-06
3253.6	-3.29135e-06
3262.15	-2.02221e-06
3270.71	-2.95521e-06
3279.27	-1.70424e-06
3287.83	-2.01993e-06
3296.38	-2.18333e-06
3304.94	-2.42251e-06
3313.5	-1.67105e-06
3322.06	-1.90637e-06
3330.62	-4.78581e-06
3339.17	-4.9273e-06
3347.73	-4.2942e-06
3356.29	-3.15843e-06
3364.85	-6.11314e-06
3373.4	-8.25464e-07
3381.96	-2.95329e-06
3390.52	-3.13704e-06
3399.08	-5.03958e-06
3407.63	-1.68483e-06
3416.19	-4.55181e-06
3424.75	-1.98033e-06
3433.31	-1.94995e-06
3441.87	-3.16567e-06
3450.42	-3.12398e-06
3458.98	-3.65106e-06
3467.54	-1.04478e-06
3476.1	-1.51747e-06
3484.65	-4.44009e-06
3493.21	-3.6031e-06
3501.77	-2.17324e-06
3510.33	-3.35047e-06
3518.88	-3.71023e-06
3527.44	-2.85108e-06
3536	-2.54203e-06
3544.56	-3.95985e-06
3553.11	-7.80065e-07
3561.67	-3.6434e-06
3570.23	-1.42808e-06
3578.79	-2.23326e-06
3587.35	-4.11875e-06
3595.9	-2.0301e-06
3604.46	-4.26058e-06
3613.02	-2.19224e-06
3621.58	-3.98779e-06
3630.13	-4.23395e-06
3638.69	-3.15489e-06
3647.25	-3.66385e-06
3655.81	-4.35424e-06
3664.36	-3.52745e-06
3672.92	-2.04623e-06
3681.48	-2.98003e-06
3690.04	-3.24385e-06
3698.59	-3.03979e-06
3707.15	-3.08775e-06
3715.71	-3.61892e-06
3724.27	-3.56597e-06
3732.83	-3.24799e-06
3741.38	-5.78062e-06
3749.94	-2.84909e-06
3758.5	-3.00752e-06
3767.06	-3.98553e-06
3775.61	-5.2829e-06
3784.17	-4.55838e-06
3792.73	-3.00747e-06
3801.29	-5.23869e-06
3809.84	-2.81424e-06
3818.4	-4.38986e-06
3826.96	-1.28193e-06
3835.52	-2.76501e-06
3844.08	-1.91391e-06
3852.63	-3.54393e-06
3861.19	-1.47972e-06
3869.75	-3.38737e-06
3878.31	-3.26089e-06
3886.86	-4.00144e-06
3895.42	-2.22201e-06
3903.98	-4.02543e-06
3912.54	-2.13668e-06
3921.09	-2.79184e-06
3929.65	-3.15019e-06
3938.21	-4.31603e-06
3946.77	-4.43896e-06
3955.32	-3.55999e-06
3963.88	-2.52402e-06
3972.44	-4.30779e-06
