Infrared Spectrum: FREON 114
Formula: C2 Cl2 F4
CAS: 76-14-2
State: GAS (6.5 mmHg, N2 ADDED, TOTAL PRESSURE 600 mmHg)
Class: COBLENTZ
Instrument: PERKIN-ELMER 180
Instrument parameters: I0 MODE
Sampling: TRANSMISSION
Path length: 5 CM CELL
Resolution: 2
Origin: DOW CHEMICAL COMPANY
1/CM	TRANSMITTANCE
242.495	0.004
253.411	0.006
264.327	0.006
275.244	0.006
286.16	0.01
297.076	0.021
307.992	0.042
318.909	0.0719
329.825	0.118
340.741	0.183
351.657	0.265
362.574	0.344
373.49	0.448
384.406	0.528
395.322	0.6099
406.238	0.6859
417.155	0.755
428.071	0.799
438.987	0.841
449.903	0.878
460.82	0.899
471.736	0.911
482.652	0.925
493.568	0.927
504.485	0.934
515.401	0.942
526.317	0.948
537.233	0.952
548.149	0.949
559.066	0.955
569.982	0.954
580.898	0.946
591.814	0.919
602.731	0.851
613.647	0.835
624.563	0.919
635.479	0.952
646.396	0.949
657.312	0.931
668.228	0.901
679.144	0.924
690.06	0.952
700.977	0.957
711.893	0.949
722.809	0.928
733.725	0.914
744.642	0.946
755.558	0.949
766.474	0.955
777.39	0.957
788.307	0.951
799.223	0.949
810.139	0.939
821.055	0.857
831.971	0.5632
842.888	0.1471
853.804	0.203
864.72	0.7591
875.636	0.65
886.553	0.635
897.469	0.749
908.385	0.5743
919.301	0.232
930.218	0.2941
941.134	0.747
952.05	0.828
962.966	0.91
973.883	0.925
984.799	0.922
995.715	0.92
1006.63	0.914
1017.55	0.901
1028.46	0.803
1039.38	0.4368
1050.3	0.1131
1061.21	0.2619
1072.13	0.89
1083.04	0.875
1093.96	0.808
1104.88	0.676
1115.79	0.5129
1126.71	0.2721
1137.63	0.118
1148.54	0.2321
1159.46	0.673
1170.37	0.4461
1181.29	0.103
1192.21	0.059
1203.12	0.2699
1214.04	0.778
1224.96	0.6389
1235.87	0.6909
1246.79	0.759
1257.7	0.6789
1268.62	0.534
1279.54	0.7289
1290.45	0.81
1301.37	0.8859
1312.29	0.922
1323.2	0.928
1334.12	0.93
1345.03	0.924
1355.95	0.922
1366.87	0.92
1377.78	0.924
1388.7	0.93
1399.62	0.927
1410.53	0.925
1421.45	0.92
1432.36	0.922
1443.28	0.925
1454.2	0.924
1465.11	0.925
1476.03	0.931
1486.95	0.93
1497.86	0.934
1508.78	0.94
1519.69	0.939
1530.61	0.939
1541.53	0.933
1552.44	0.94
1563.36	0.94
1574.28	0.94
1585.19	0.934
1596.11	0.931
1607.02	0.931
1617.94	0.934
1628.86	0.936
1639.77	0.94
1650.69	0.939
1661.61	0.934
1672.52	0.936
1683.44	0.934
1694.35	0.933
1705.27	0.939
1716.19	0.934
1727.1	0.933
1738.02	0.937
1748.93	0.937
1759.85	0.94
1770.77	0.94
1781.68	0.933
1792.6	0.939
1803.52	0.934
1814.43	0.934
1825.35	0.934
1836.26	0.931
1847.18	0.93
1858.1	0.934
1869.01	0.931
1879.93	0.931
1890.85	0.934
1901.76	0.934
1912.68	0.931
1923.59	0.933
1934.51	0.931
1945.43	0.933
1956.34	0.931
1967.26	0.931
1978.18	0.934
1989.09	0.93
2000.01	0.928
2010.92	0.9274
2021.84	0.93
2032.76	0.931
2043.67	0.931
2054.59	0.931
2065.51	0.928
2076.42	0.9274
2087.34	0.924
2098.25	0.924
2109.17	0.924
2120.09	0.927
2131	0.924
2141.92	0.924
2152.84	0.924
2163.75	0.922
2174.67	0.922
2185.58	0.9213
2196.5	0.9176
2207.42	0.911
2218.33	0.911
2229.25	0.9127
2240.17	0.911
2251.08	0.911
2262	0.911
2272.91	0.9103
2283.83	0.9086
2294.75	0.9041
2305.66	0.9083
2316.58	0.911
2327.5	0.9094
2338.41	0.9044
2349.33	0.905
2360.24	0.911
2371.16	0.911
2382.08	0.913
2392.99	0.914
2403.91	0.911
2414.83	0.911
2425.74	0.91
2436.66	0.908
2447.57	0.911
2458.49	0.911
2469.41	0.913
2480.32	0.914
2491.24	0.9138
2502.15	0.9145
2513.07	0.9119
2523.99	0.911
2534.9	0.911
2545.82	0.913
2556.74	0.913
2567.65	0.911
2578.57	0.911
2589.48	0.911
2600.4	0.912
2611.32	0.911
2622.23	0.911
2633.15	0.913
2644.07	0.913
2654.98	0.913
2665.9	0.913
2676.81	0.913
2687.73	0.912
2698.65	0.911
2709.56	0.911
2720.48	0.9118
2731.4	0.91
2742.31	0.911
2753.23	0.911
2764.14	0.908
2775.06	0.908
2785.98	0.907
2796.89	0.907
2807.81	0.907
2818.73	0.907
2829.64	0.905
2840.56	0.8983
2851.47	0.8993
2862.39	0.902
2873.31	0.902
2884.22	0.9006
2895.14	0.8968
2906.06	0.892
2916.97	0.889
2927.89	0.8914
2938.8	0.8983
2949.72	0.902
2960.64	0.902
2971.55	0.902
2982.47	0.902
2993.39	0.902
3004.3	0.901
3015.22	0.901
3026.13	0.901
3037.05	0.901
3047.97	0.899
3058.88	0.8996
3069.8	0.8993
3080.72	0.898
3091.63	0.8966
3102.55	0.896
3113.46	0.901
3124.38	0.8972
3135.3	0.895
3146.21	0.893
3157.13	0.895
3168.05	0.8932
3178.96	0.895
3189.88	0.892
3200.79	0.89
3211.71	0.892
3222.63	0.89
3233.54	0.8917
3244.46	0.89
3255.37	0.887
3266.29	0.8854
3277.21	0.884
3288.12	0.884
3299.04	0.884
3309.96	0.8855
3320.87	0.886
3331.79	0.883
3342.7	0.882
3353.62	0.886
3364.54	0.884
3375.45	0.886
3386.37	0.8816
3397.29	0.8833
3408.2	0.884
3419.12	0.884
3430.03	0.8822
3440.95	0.879
3451.87	0.881
3462.78	0.884
3473.7	0.884
3484.62	0.8835
3495.53	0.882
3506.45	0.884
3517.36	0.8857
3528.28	0.884
3539.2	0.887
3550.11	0.884
3561.03	0.8864
3571.95	0.8897
3582.86	0.8869
3593.78	0.8849
3604.69	0.8895
3615.61	0.8868
3626.53	0.8848
3637.44	0.884
3648.36	0.886
3659.28	0.886
3670.19	0.886
3681.11	0.886
3692.02	0.886
3702.94	0.886
3713.86	0.886
3724.77	0.8841
3735.69	0.884
3746.61	0.884
3757.52	0.884
3768.44	0.8851
3779.35	0.884
3790.27	0.8812
3801.19	0.882
3812.1	0.884
3823.02	0.884
3833.94	0.882
3844.85	0.882
3855.77	0.886
3866.68	0.8844
3877.6	0.8824
3888.52	0.886
3899.43	0.886
3910.35	0.884
3921.26	0.887
3932.18	0.8859
3943.1	0.8832
3954.01	0.8836
3964.93	0.8837
3975.85	0.882
3986.76	0.8811
3997.68	0.881
4008.59	0.881
4019.51	0.881
