Infrared Spectrum: Hexafluoroethane
Formula: C2 F6
CAS: 76-16-4
State: gas
Melting point: -94 C
Boiling point: -79 C
Class: IUPAC A
Instrument: IFS66V (Bruker)
Instrument parameters: KBr Beam Splitter; MCT Detector; Multipass cell
Sampling: 1 L/min Flow
Resolution: 0.2410
Temperature: 23 C
Pressure: 101.3 Pa
Origin: NIST, Analytical Chemistry Division, 301-975-3108
cm-1	(micromol/mol)-1m-1 (base 10)
575.05	9.2642e-06
583.608	-8.13349e-06
592.165	-5.20111e-07
600.723	4.72793e-06
609.281	-1.45757e-07
617.838	3.10189e-06
626.396	-1.23263e-06
634.954	1.27828e-06
643.511	1.53461e-06
652.069	-5.01467e-06
660.627	-4.49558e-06
669.184	-4.41669e-06
677.742	-1.61797e-06
686.3	2.41905e-06
694.857	6.25914e-06
703.415	0.000153815
711.973	0.000127611
720.53	0.000279281
729.088	4.95612e-05
737.645	2.06e-06
746.203	1.41027e-06
754.761	-2.08727e-06
763.318	1.32328e-06
771.876	-2.27211e-06
780.434	-1.25814e-06
788.991	-1.19566e-07
797.549	-2.19051e-06
806.107	1.18195e-06
814.664	-1.19659e-06
823.222	-2.26427e-06
831.78	-6.92366e-07
840.337	-5.13505e-08
848.895	-9.10398e-07
857.453	-8.04176e-07
866.01	-2.81184e-07
874.568	-6.1315e-07
883.126	-1.68067e-06
891.683	2.23794e-08
900.241	2.72834e-06
908.799	-1.22333e-06
917.356	-1.06883e-06
925.914	2.46625e-07
934.472	-8.5717e-07
943.029	-1.56128e-06
951.587	-2.04642e-06
960.145	9.18154e-07
968.702	-1.03647e-06
977.26	-1.18383e-06
985.818	-1.76997e-06
994.375	3.22334e-07
1002.93	-5.33876e-08
1011.49	1.18365e-06
1020.05	2.94364e-06
1028.61	2.2251e-06
1037.16	1.69633e-06
1045.72	5.81676e-07
1054.28	1.0819e-06
1062.84	2.23623e-06
1071.39	1.21028e-06
1079.95	9.94706e-07
1088.51	1.34088e-05
1097.07	0.000121098
1105.62	0.0012611
1114.18	0.00271774
1122.74	0.00246682
1131.3	0.000151472
1139.86	0.000122527
1148.41	0.000101787
1156.97	6.91877e-06
1165.53	2.52649e-06
1174.09	4.00295e-06
1182.64	6.78031e-06
1191.2	1.92297e-05
1199.76	6.70872e-05
1208.32	7.21559e-05
1216.87	2.42032e-05
1225.43	4.68032e-05
1233.99	0.000555069
1242.55	0.00531965
1251.1	0.0124178
1259.66	0.00239018
1268.22	0.000117497
1276.78	1.42092e-05
1285.34	1.15648e-05
1293.89	1.26726e-05
1302.45	2.84811e-05
1311.01	6.3252e-05
1319.57	0.000112813
1328.12	0.000139931
1336.68	0.00010492
1345.24	5.62703e-05
1353.8	1.53527e-05
1362.35	3.58944e-07
1370.91	-3.21548e-07
1379.47	-9.8941e-07
1388.03	1.02148e-07
1396.59	-1.04352e-06
1405.14	-1.36232e-06
1413.7	-2.62369e-07
1422.26	-6.4992e-07
1430.82	1.46383e-07
1439.37	4.14983e-06
1447.93	7.28318e-06
1456.49	5.55121e-06
1465.05	4.5713e-06
1473.6	1.07977e-06
1482.16	-1.06519e-06
1490.72	-1.08779e-06
1499.28	-1.61323e-06
1507.83	-1.32724e-06
1516.39	-1.20101e-06
1524.95	-2.52178e-06
1533.51	-5.45255e-07
1542.07	-2.71209e-06
1550.62	-1.18861e-06
1559.18	-1.67172e-06
1567.74	-2.18216e-06
1576.3	-3.20435e-06
1584.85	-9.73884e-07
1593.41	4.4373e-06
1601.97	6.13876e-06
1610.53	3.67731e-06
1619.08	8.92718e-06
1627.64	1.34751e-05
1636.2	1.16868e-05
1644.76	5.44776e-06
1653.31	-3.90629e-06
1661.87	-1.87471e-06
1670.43	-1.23197e-06
1678.99	-7.41446e-07
1687.55	-1.32142e-06
1696.1	-9.07939e-07
1704.66	7.9268e-07
1713.22	2.61882e-06
1721.78	7.98537e-06
1730.33	1.00465e-05
1738.89	9.30681e-06
1747.45	3.93765e-06
1756.01	5.00554e-08
1764.56	-7.58878e-07
1773.12	-8.91816e-07
1781.68	-1.99002e-06
1790.24	-2.01754e-06
1798.79	-1.53133e-06
1807.35	-1.98125e-06
1815.91	-1.63753e-06
1824.47	-2.90656e-07
1833.03	-2.3556e-06
1841.58	-1.76605e-07
1850.14	1.48947e-06
1858.7	6.00267e-06
1867.26	1.06217e-05
1875.81	5.44867e-06
1884.37	1.17913e-06
1892.93	-2.47272e-06
1901.49	-1.98832e-06
1910.04	-1.12984e-06
1918.6	1.34364e-07
1927.16	1.79311e-06
1935.72	2.14271e-06
1944.28	3.68882e-06
1952.83	1.81714e-06
1961.39	8.39185e-07
1969.95	-8.19716e-07
1978.51	-2.05226e-06
1987.06	-1.63499e-06
1995.62	-2.47208e-06
2004.18	-1.99859e-06
2012.74	-1.7268e-06
2021.29	-2.49056e-06
2029.85	-1.79417e-06
2038.41	-1.03872e-06
2046.97	1.26688e-05
2055.52	2.31839e-05
2064.08	2.91157e-06
2072.64	-9.66157e-07
2081.2	-2.44314e-06
2089.76	-2.81687e-06
2098.31	-3.22089e-06
2106.87	-1.60876e-06
2115.43	-2.07067e-06
2123.99	-2.19138e-08
2132.54	-7.06335e-07
2141.1	-2.33289e-06
2149.66	-8.70936e-07
2158.22	-1.02026e-06
2166.77	-1.53695e-06
2175.33	-1.15295e-06
2183.89	-2.15775e-06
2192.45	-1.96332e-06
2201	-3.84461e-06
2209.56	-4.34276e-06
2218.12	-7.77392e-06
2226.68	-8.54489e-06
2235.24	-5.96495e-06
2243.79	-8.62893e-06
2252.35	-6.7197e-06
2260.91	-2.98199e-06
2269.47	-2.27409e-06
2278.02	-2.87216e-06
2286.58	-2.36055e-06
2295.14	-2.18626e-06
2303.7	-3.93989e-06
2312.25	-9.74771e-08
2320.81	-3.21231e-06
2329.37	-5.67635e-07
2337.93	4.52513e-06
2346.49	1.83315e-05
2355.04	1.42842e-05
2363.6	2.59344e-06
2372.16	-6.3163e-07
2380.72	-3.07611e-06
2389.27	-6.29404e-07
2397.83	-3.32778e-06
2406.39	-1.63243e-06
2414.95	-1.88446e-06
2423.5	-1.83508e-06
2432.06	-5.81356e-07
2440.62	6.6533e-07
2449.18	1.88451e-06
2457.73	6.02328e-06
2466.29	6.77154e-06
2474.85	4.87365e-06
2483.41	-4.23014e-06
2491.97	-2.99873e-06
2500.52	-6.92952e-06
2509.08	-9.3874e-06
2517.64	-8.33989e-06
2526.2	-1.7632e-06
2534.75	4.88783e-07
2543.31	-1.46174e-06
2551.87	-7.56841e-07
2560.43	-1.20466e-06
2568.98	1.58489e-07
2577.54	-1.12206e-06
2586.1	-6.26421e-07
2594.66	-1.57891e-06
2603.21	-2.24504e-06
2611.77	-2.68691e-06
2620.33	-2.85083e-06
2628.89	-1.14096e-06
2637.45	-2.67673e-06
2646	-1.21031e-06
2654.56	4.65213e-06
2663.12	1.3984e-05
2671.68	9.47592e-06
2680.23	-1.44055e-07
2688.79	-1.62052e-06
2697.35	-3.05046e-06
2705.91	-7.92884e-07
2714.46	-2.10739e-06
2723.02	-1.23256e-06
2731.58	-2.87085e-06
2740.14	-2.36954e-06
2748.69	-2.61521e-06
2757.25	-3.54531e-06
2765.81	-1.57289e-06
2774.37	-3.53866e-06
2782.93	-1.5951e-06
2791.48	-2.62293e-06
2800.04	-2.89572e-06
2808.6	-3.30452e-06
2817.16	-2.60544e-06
2825.71	-1.17531e-06
2834.27	-3.99573e-06
2842.83	-2.79574e-06
2851.39	-2.14198e-06
2859.94	-1.90931e-06
2868.5	-4.65402e-06
2877.06	-1.69797e-06
2885.62	-2.93377e-06
2894.18	-4.02385e-06
2902.73	-1.24164e-06
2911.29	-3.84309e-06
2919.85	-2.73505e-06
2928.41	-3.31878e-06
2936.96	-2.64556e-06
2945.52	-3.06635e-06
2954.08	-1.97443e-06
2962.64	-9.75674e-07
2971.19	-1.63623e-06
2979.75	-1.73561e-06
2988.31	-4.39552e-06
2996.87	-9.39282e-07
3005.42	-3.63641e-06
3013.98	-2.19735e-06
3022.54	-3.38379e-06
3031.1	-1.03165e-06
3039.66	-2.55219e-06
3048.21	-4.21502e-06
3056.77	-2.40393e-06
3065.33	-3.1861e-06
3073.89	-1.37158e-06
3082.44	-3.94997e-06
3091	-3.35398e-06
3099.56	1.84245e-07
3108.12	3.33713e-07
3116.67	-2.10135e-06
3125.23	-1.14499e-06
3133.79	-1.00042e-06
3142.35	-1.2007e-06
3150.9	-1.86656e-06
3159.46	-1.07532e-06
3168.02	-2.43553e-06
3176.58	-2.3467e-06
3185.14	-9.09598e-07
3193.69	-2.67679e-06
3202.25	-1.49746e-06
3210.81	-1.70692e-06
3219.37	-2.48582e-06
3227.92	-2.45266e-06
3236.48	-2.00817e-06
3245.04	-1.39378e-06
3253.6	-2.84206e-06
3262.15	-1.5815e-06
3270.71	-2.59338e-06
3279.27	-7.12752e-07
3287.83	-1.98873e-06
3296.38	-2.26812e-06
3304.94	-1.77579e-06
3313.5	-1.32263e-06
3322.06	-2.05811e-06
3330.62	-4.20464e-06
3339.17	-5.00426e-06
3347.73	-4.14613e-06
3356.29	-3.25129e-06
3364.85	-6.7429e-06
3373.4	4.83515e-07
3381.96	-4.22218e-06
3390.52	-3.19106e-06
3399.08	-5.5539e-06
3407.63	-9.37463e-07
3416.19	-5.35701e-06
3424.75	-1.34429e-06
3433.31	-1.31994e-06
3441.87	-3.0176e-06
3450.42	-3.33563e-06
3458.98	-3.26799e-06
3467.54	-6.08101e-07
3476.1	-7.26328e-07
3484.65	-4.42308e-06
3493.21	-4.31334e-06
3501.77	-1.93819e-06
3510.33	-3.643e-06
3518.88	-3.31018e-06
3527.44	-3.4335e-06
3536	-2.41803e-06
3544.56	-3.98738e-06
3553.11	1.06804e-08
3561.67	-4.12323e-06
3570.23	-1.14669e-06
3578.79	-1.47717e-06
3587.35	-4.88474e-06
3595.9	-1.88142e-06
3604.46	-4.30819e-06
3613.02	-2.41953e-06
3621.58	-4.76115e-06
3630.13	-4.25957e-06
3638.69	-2.92052e-06
3647.25	-4.79199e-06
3655.81	-4.75324e-06
3664.36	-4.34286e-06
3672.92	-2.0883e-06
3681.48	-2.08891e-06
3690.04	-3.42381e-06
3698.59	-2.86885e-06
3707.15	-3.21503e-06
3715.71	-3.87198e-06
3724.27	-2.95801e-06
3732.83	-2.91443e-06
3741.38	-5.88598e-06
3749.94	-3.12388e-06
3758.5	-2.22867e-06
3767.06	-3.7704e-06
3775.61	-6.02068e-06
3784.17	-4.94001e-06
3792.73	-3.36776e-06
3801.29	-5.6605e-06
3809.84	-2.90132e-06
3818.4	-4.25404e-06
3826.96	-1.38843e-06
3835.52	-2.1125e-06
3844.08	-1.42734e-06
3852.63	-4.11341e-06
3861.19	-1.62174e-06
3869.75	-3.19246e-06
3878.31	-3.8068e-06
3886.86	-3.56136e-06
3895.42	-2.15278e-06
3903.98	-3.80536e-06
3912.54	-1.56579e-06
3921.09	-2.23078e-06
3929.65	-3.54521e-06
3938.21	-4.95792e-06
3946.77	-4.73788e-06
3955.32	-3.41208e-06
3963.88	-2.58564e-06
3972.44	-4.00924e-06
