Infrared Spectrum: Hexafluoroethane
Formula: C2 F6
CAS: 76-16-4
State: gas
Melting point: -94 C
Boiling point: -79 C
Class: IUPAC A
Instrument: IFS66V (Bruker)
Instrument parameters: KBr Beam Splitter; MCT Detector; Multipass cell
Sampling: 1 L/min Flow
Resolution: 0.1250
Temperature: 23 C
Pressure: 101.3 Pa
Origin: NIST, Analytical Chemistry Division, 301-975-3108
cm-1	(micromol/mol)-1m-1 (base 10)
575.05	6.53612e-06
583.608	-5.89541e-06
592.165	-3.09784e-06
600.723	3.46819e-06
609.281	3.92877e-07
617.838	2.98671e-06
626.396	-1.6825e-06
634.954	5.33556e-07
643.511	1.01522e-07
652.069	-3.68361e-06
660.627	-3.78729e-06
669.184	-3.33387e-06
677.742	-1.7891e-06
686.3	1.05966e-06
694.857	5.7611e-06
703.415	0.000154998
711.973	0.000129957
720.53	0.000279062
729.088	4.87557e-05
737.645	2.5335e-06
746.203	6.71223e-07
754.761	-1.40001e-06
763.318	6.23641e-07
771.876	-1.38184e-06
780.434	-1.50222e-06
788.991	-3.8339e-07
797.549	-1.84091e-06
806.107	1.51156e-07
814.664	-1.10455e-06
823.222	-2.06677e-06
831.78	-5.95209e-07
840.337	-2.74868e-07
848.895	-1.17173e-06
857.453	-1.09972e-06
866.01	-2.49768e-07
874.568	-4.33198e-07
883.126	-1.09619e-06
891.683	4.66185e-07
900.241	2.40829e-06
908.799	-1.14489e-06
917.356	-1.06777e-06
925.914	1.83605e-07
934.472	-8.54609e-07
943.029	-1.05431e-06
951.587	-1.89566e-06
960.145	1.99974e-07
968.702	-1.10759e-06
977.26	-1.19552e-06
985.818	-1.47537e-06
994.375	1.36809e-07
1002.93	7.85608e-08
1011.49	1.2358e-06
1020.05	2.79272e-06
1028.61	2.68712e-06
1037.16	1.8084e-06
1045.72	1.64033e-07
1054.28	9.16931e-07
1062.84	2.2737e-06
1071.39	1.11368e-06
1079.95	1.29482e-06
1088.51	1.33802e-05
1097.07	0.000121132
1105.62	0.00126099
1114.18	0.00272097
1122.74	0.0024666
1131.3	0.000151439
1139.86	0.000123305
1148.41	0.000101903
1156.97	6.50869e-06
1165.53	2.55275e-06
1174.09	3.91605e-06
1182.64	6.94164e-06
1191.2	1.9641e-05
1199.76	6.64161e-05
1208.32	7.24316e-05
1216.87	2.40163e-05
1225.43	4.6617e-05
1233.99	0.000555481
1242.55	0.00531818
1251.1	0.0124357
1259.66	0.00239042
1268.22	0.000117561
1276.78	1.46034e-05
1285.34	1.12118e-05
1293.89	1.29699e-05
1302.45	2.85421e-05
1311.01	6.32793e-05
1319.57	0.000113221
1328.12	0.000139613
1336.68	0.000105461
1345.24	5.62435e-05
1353.8	1.54339e-05
1362.35	9.10121e-07
1370.91	-8.85137e-08
1379.47	-9.29896e-07
1388.03	-2.22412e-07
1396.59	-1.41165e-06
1405.14	-1.66318e-06
1413.7	-5.24447e-07
1422.26	-5.43596e-07
1430.82	3.67355e-07
1439.37	4.39009e-06
1447.93	6.99602e-06
1456.49	5.81602e-06
1465.05	4.59484e-06
1473.6	1.30818e-06
1482.16	-1.38907e-06
1490.72	-1.10688e-06
1499.28	-1.47049e-06
1507.83	-1.18627e-06
1516.39	-1.37207e-06
1524.95	-2.00212e-06
1533.51	-9.37914e-07
1542.07	-2.76126e-06
1550.62	-1.15039e-06
1559.18	-1.71527e-06
1567.74	-2.07993e-06
1576.3	-3.16381e-06
1584.85	-1.20426e-06
1593.41	4.12518e-06
1601.97	6.46047e-06
1610.53	3.71328e-06
1619.08	9.21778e-06
1627.64	1.34003e-05
1636.2	1.1479e-05
1644.76	5.20876e-06
1653.31	-3.68676e-06
1661.87	-1.98832e-06
1670.43	-1.48847e-06
1678.99	-9.58052e-07
1687.55	-1.43722e-06
1696.1	-1.27452e-06
1704.66	4.13932e-07
1713.22	2.42811e-06
1721.78	7.65944e-06
1730.33	1.02757e-05
1738.89	9.07117e-06
1747.45	3.81533e-06
1756.01	9.90487e-08
1764.56	-8.63456e-07
1773.12	-1.0445e-06
1781.68	-1.74899e-06
1790.24	-2.11003e-06
1798.79	-1.61857e-06
1807.35	-1.80565e-06
1815.91	-1.72325e-06
1824.47	-7.8117e-07
1833.03	-2.09403e-06
1841.58	-5.19543e-07
1850.14	1.28219e-06
1858.7	5.92802e-06
1867.26	1.07282e-05
1875.81	5.56318e-06
1884.37	1.05963e-06
1892.93	-2.39694e-06
1901.49	-2.02416e-06
1910.04	-1.31969e-06
1918.6	2.5537e-08
1927.16	1.70363e-06
1935.72	2.1046e-06
1944.28	3.34066e-06
1952.83	2.09924e-06
1961.39	1.07686e-06
1969.95	-8.77265e-07
1978.51	-1.78803e-06
1987.06	-1.49234e-06
1995.62	-2.28813e-06
2004.18	-2.22988e-06
2012.74	-1.66298e-06
2021.29	-2.50737e-06
2029.85	-1.83187e-06
2038.41	-5.95616e-07
2046.97	1.27831e-05
2055.52	2.37748e-05
2064.08	2.85678e-06
2072.64	-1.21443e-06
2081.2	-2.27765e-06
2089.76	-2.70253e-06
2098.31	-2.79298e-06
2106.87	-1.97521e-06
2115.43	-1.65633e-06
2123.99	-2.23605e-07
2132.54	-8.31328e-07
2141.1	-2.18016e-06
2149.66	-1.14885e-06
2158.22	-1.01144e-06
2166.77	-1.728e-06
2175.33	-1.30218e-06
2183.89	-2.14274e-06
2192.45	-1.84969e-06
2201	-3.84033e-06
2209.56	-4.70643e-06
2218.12	-7.54654e-06
2226.68	-8.65523e-06
2235.24	-5.90711e-06
2243.79	-8.48063e-06
2252.35	-6.72522e-06
2260.91	-3.14376e-06
2269.47	-2.3419e-06
2278.02	-3.12288e-06
2286.58	-2.62417e-06
2295.14	-2.27729e-06
2303.7	-3.79589e-06
2312.25	-7.81622e-07
2320.81	-2.6322e-06
2329.37	-6.30699e-07
2337.93	4.62012e-06
2346.49	1.73773e-05
2355.04	1.45336e-05
2363.6	3.11384e-06
2372.16	-1.1393e-06
2380.72	-2.65608e-06
2389.27	-1.20024e-06
2397.83	-3.01357e-06
2406.39	-1.88921e-06
2414.95	-1.82155e-06
2423.5	-1.60166e-06
2432.06	-6.79561e-07
2440.62	3.53022e-07
2449.18	1.96989e-06
2457.73	5.84087e-06
2466.29	6.99103e-06
2474.85	4.53495e-06
2483.41	-3.55577e-06
2491.97	-3.44419e-06
2500.52	-7.25734e-06
2509.08	-9.60245e-06
2517.64	-8.19541e-06
2526.2	-1.60086e-06
2534.75	5.33411e-07
2543.31	-1.43047e-06
2551.87	-1.02385e-06
2560.43	-1.17243e-06
2568.98	4.56901e-08
2577.54	-1.12248e-06
2586.1	-1.22061e-06
2594.66	-1.58983e-06
2603.21	-2.36476e-06
2611.77	-2.61931e-06
2620.33	-3.08699e-06
2628.89	-1.27484e-06
2637.45	-2.34414e-06
2646	-7.7033e-07
2654.56	4.80679e-06
2663.12	1.38074e-05
2671.68	8.95822e-06
2680.23	-1.79865e-07
2688.79	-2.193e-06
2697.35	-3.05644e-06
2705.91	-1.25828e-06
2714.46	-1.85362e-06
2723.02	-1.43965e-06
2731.58	-2.68467e-06
2740.14	-2.16493e-06
2748.69	-2.0967e-06
2757.25	-3.02611e-06
2765.81	-1.79759e-06
2774.37	-3.22731e-06
2782.93	-2.16289e-06
2791.48	-2.68649e-06
2800.04	-2.65343e-06
2808.6	-3.27287e-06
2817.16	-2.28489e-06
2825.71	-1.85627e-06
2834.27	-3.66502e-06
2842.83	-2.61573e-06
2851.39	-2.13376e-06
2859.94	-1.79843e-06
2868.5	-4.00355e-06
2877.06	-1.74519e-06
2885.62	-2.90681e-06
2894.18	-3.78419e-06
2902.73	-1.08513e-06
2911.29	-3.61643e-06
2919.85	-2.69693e-06
2928.41	-3.78956e-06
2936.96	-2.44837e-06
2945.52	-3.10875e-06
2954.08	-2.32816e-06
2962.64	-1.49701e-06
2971.19	-1.81335e-06
2979.75	-2.51715e-06
2988.31	-4.11771e-06
2996.87	-1.30386e-06
3005.42	-3.21213e-06
3013.98	-1.98992e-06
3022.54	-2.94381e-06
3031.1	-1.22822e-06
3039.66	-2.40509e-06
3048.21	-4.08519e-06
3056.77	-2.60431e-06
3065.33	-3.36428e-06
3073.89	-1.6094e-06
3082.44	-3.02537e-06
3091	-3.1352e-06
3099.56	2.29615e-08
3108.12	-1.04686e-06
3116.67	-2.22792e-06
3125.23	-1.31589e-06
3133.79	-1.40387e-06
3142.35	-1.78641e-06
3150.9	-1.58343e-06
3159.46	-1.2326e-06
3168.02	-2.41165e-06
3176.58	-2.59859e-06
3185.14	-1.19876e-06
3193.69	-2.77678e-06
3202.25	-1.50441e-06
3210.81	-1.78634e-06
3219.37	-2.14806e-06
3227.92	-2.80281e-06
3236.48	-1.91509e-06
3245.04	-1.84156e-06
3253.6	-3.32407e-06
3262.15	-1.9214e-06
3270.71	-2.88316e-06
3279.27	-1.71371e-06
3287.83	-2.10544e-06
3296.38	-2.40147e-06
3304.94	-2.32708e-06
3313.5	-1.66315e-06
3322.06	-2.23368e-06
3330.62	-4.3795e-06
3339.17	-5.02979e-06
3347.73	-4.02801e-06
3356.29	-3.10881e-06
3364.85	-6.25865e-06
3373.4	-9.45437e-07
3381.96	-3.09631e-06
3390.52	-3.19571e-06
3399.08	-5.20715e-06
3407.63	-1.82356e-06
3416.19	-4.5845e-06
3424.75	-1.97563e-06
3433.31	-2.00418e-06
3441.87	-3.2002e-06
3450.42	-3.37136e-06
3458.98	-2.88239e-06
3467.54	-1.11132e-06
3476.1	-1.4417e-06
3484.65	-4.27226e-06
3493.21	-3.32921e-06
3501.77	-2.2159e-06
3510.33	-3.38925e-06
3518.88	-3.6019e-06
3527.44	-2.92123e-06
3536	-2.24052e-06
3544.56	-4.12023e-06
3553.11	-6.79299e-07
3561.67	-3.58608e-06
3570.23	-1.43106e-06
3578.79	-2.01277e-06
3587.35	-4.43472e-06
3595.9	-2.13796e-06
3604.46	-4.40518e-06
3613.02	-2.35279e-06
3621.58	-4.28102e-06
3630.13	-3.72379e-06
3638.69	-3.03674e-06
3647.25	-3.84778e-06
3655.81	-4.00132e-06
3664.36	-3.82696e-06
3672.92	-2.27851e-06
3681.48	-2.66715e-06
3690.04	-3.21264e-06
3698.59	-2.74286e-06
3707.15	-3.20345e-06
3715.71	-3.74144e-06
3724.27	-3.49257e-06
3732.83	-3.38122e-06
3741.38	-5.67904e-06
3749.94	-3.16889e-06
3758.5	-2.9468e-06
3767.06	-4.19932e-06
3775.61	-5.13918e-06
3784.17	-4.72678e-06
3792.73	-3.29569e-06
3801.29	-5.35557e-06
3809.84	-3.02451e-06
3818.4	-4.26859e-06
3826.96	-1.28618e-06
3835.52	-2.61353e-06
3844.08	-2.11433e-06
3852.63	-3.53797e-06
3861.19	-1.49204e-06
3869.75	-3.32709e-06
3878.31	-3.65544e-06
3886.86	-3.67541e-06
3895.42	-2.21591e-06
3903.98	-4.10836e-06
3912.54	-2.34188e-06
3921.09	-2.86413e-06
3929.65	-2.94441e-06
3938.21	-4.44274e-06
3946.77	-4.38592e-06
3955.32	-3.92008e-06
3963.88	-2.66795e-06
3972.44	-4.1575e-06
