Infrared Spectrum: Hexafluoroethane
Formula: C2 F6
CAS: 76-16-4
State: gas
Melting point: -94 C
Boiling point: -79 C
Class: IUPAC A
Instrument: IFS66V (Bruker)
Instrument parameters: KBr Beam Splitter; MCT Detector; Multipass cell
Sampling: 1 L/min Flow
Resolution: 0.9640
Temperature: 23 C
Pressure: 101.3 Pa
Origin: NIST, Analytical Chemistry Division, 301-975-3108
cm-1	(micromol/mol)-1m-1 (base 10)
575.171	1.06459e-06
583.849	-2.90927e-06
592.527	-3.02584e-06
601.206	1.17574e-06
609.884	-3.02544e-07
618.562	-2.09108e-06
627.24	3.17532e-07
635.918	-2.89277e-06
644.596	-1.41923e-06
653.275	-1.53609e-06
661.953	-2.26917e-06
670.631	4.86789e-07
679.309	-1.68182e-06
687.987	-8.13896e-07
696.666	1.29451e-05
705.344	0.000216439
714.022	0.000954278
722.7	0.000251283
731.378	2.02268e-05
740.057	5.55979e-07
748.735	-1.42629e-06
757.413	-1.22365e-06
766.091	-1.31195e-06
774.769	4.37418e-07
783.447	-8.58363e-07
792.126	-1.07516e-06
800.804	-1.56791e-06
809.482	-5.84092e-07
818.16	-6.61459e-07
826.838	-6.88029e-07
835.517	-5.8431e-07
844.195	-1.34579e-06
852.873	-1.1952e-06
861.551	-1.46849e-06
870.229	-4.89103e-07
878.907	-9.93149e-07
887.586	4.82555e-07
896.264	8.30033e-07
904.942	1.2999e-06
913.62	-4.22066e-07
922.298	-1.08076e-06
930.977	-1.18343e-06
939.655	-9.41144e-07
948.333	-1.19422e-06
957.011	-1.03666e-06
965.689	-1.11193e-06
974.368	-1.68146e-06
983.046	-5.30733e-07
991.724	-4.49844e-07
1000.4	3.50315e-07
1009.08	8.85399e-07
1017.76	2.71145e-06
1026.44	4.74588e-06
1035.11	3.2956e-06
1043.79	-6.84726e-07
1052.47	-1.85744e-07
1061.15	1.80699e-06
1069.83	1.12083e-06
1078.51	-4.39586e-07
1087.18	9.36041e-06
1095.86	8.55719e-05
1104.54	0.00103138
1113.22	0.00192415
1121.9	0.00243342
1130.57	0.000202588
1139.25	0.000166483
1147.93	0.000109393
1156.61	7.17676e-06
1165.29	1.90331e-06
1173.97	3.76644e-06
1182.64	7.26908e-06
1191.32	2.03896e-05
1200	6.73311e-05
1208.68	6.81468e-05
1217.36	2.35872e-05
1226.03	5.38795e-05
1234.71	0.000698064
1243.39	0.00632106
1252.07	0.0119098
1260.75	0.00173422
1269.43	7.3732e-05
1278.1	1.28398e-05
1286.78	1.01321e-05
1295.46	1.39442e-05
1304.14	3.47244e-05
1312.82	7.32125e-05
1321.49	0.000122488
1330.17	0.000135814
1338.85	9.31058e-05
1347.53	4.3029e-05
1356.21	1.0625e-05
1364.89	1.08836e-06
1373.56	-4.11517e-07
1382.24	-9.84681e-07
1390.92	-8.63238e-07
1399.6	-7.95518e-07
1408.28	-1.16489e-06
1416.95	-1.19341e-06
1425.63	-9.29489e-07
1434.31	2.78538e-06
1442.99	6.09512e-06
1451.67	7.54613e-06
1460.35	6.15063e-06
1469.02	4.15715e-06
1477.7	2.93479e-07
1486.38	-9.08666e-07
1495.06	-1.05182e-06
1503.74	-1.41999e-06
1512.42	-1.04137e-06
1521.09	-1.90215e-06
1529.77	-1.201e-06
1538.45	-1.99266e-06
1547.13	-1.33361e-06
1555.81	-1.14e-06
1564.48	-1.45507e-06
1573.16	-1.2961e-06
1581.84	-1.18298e-06
1590.52	1.69019e-06
1599.2	7.6721e-06
1607.88	3.84333e-06
1616.55	5.52938e-06
1625.23	1.23126e-05
1633.91	1.47952e-05
1642.59	7.87813e-06
1651.27	4.28003e-07
1659.94	-1.25002e-06
1668.62	-2.15941e-06
1677.3	-1.29785e-06
1685.98	-1.03343e-06
1694.66	-9.24236e-07
1703.34	8.29989e-08
1712.01	2.14898e-06
1720.69	5.8276e-06
1729.37	9.83873e-06
1738.05	8.49685e-06
1746.73	4.18906e-06
1755.4	4.08956e-07
1764.08	-8.07406e-07
1772.76	-1.7248e-06
1781.44	-1.36302e-06
1790.12	-1.78157e-06
1798.8	-1.92663e-06
1807.47	-1.62283e-06
1816.15	-1.93119e-06
1824.83	-1.72872e-06
1833.51	-1.23422e-06
1842.19	-9.3854e-07
1850.86	1.36318e-06
1859.54	6.39886e-06
1868.22	1.02102e-05
1876.9	5.119e-06
1885.58	-3.63673e-07
1894.26	-1.92158e-06
1902.93	-1.76282e-06
1911.61	-8.9186e-07
1920.29	7.64291e-07
1928.97	2.22496e-06
1937.65	2.89837e-06
1946.32	2.87113e-06
1955	2.68392e-06
1963.68	5.02621e-07
1972.36	-1.03055e-06
1981.04	-1.6167e-06
1989.72	-1.91164e-06
1998.39	-1.82309e-06
2007.07	-1.56675e-06
2015.75	-1.71588e-06
2024.43	-1.79428e-06
2033.11	-1.45931e-06
2041.78	2.59031e-06
2050.46	2.0949e-05
2059.14	1.55721e-05
2067.82	-9.37565e-07
2076.5	-1.93051e-06
2085.18	-2.01204e-06
2093.85	-2.20193e-06
2102.53	-1.77077e-06
2111.21	-1.63674e-06
2119.89	-1.11915e-06
2128.57	-1.16571e-06
2137.24	-8.40364e-07
2145.92	-1.25882e-06
2154.6	-1.51457e-06
2163.28	-2.09456e-06
2171.96	-1.67112e-06
2180.64	-1.95854e-06
2189.31	-2.25782e-06
2197.99	-2.76433e-06
2206.67	-5.28012e-06
2215.35	-7.25341e-06
2224.03	-6.96705e-06
2232.7	-9.41127e-06
2241.38	-8.96072e-06
2250.06	-7.65566e-06
2258.74	-3.67972e-06
2267.42	-2.55102e-06
2276.1	-2.85446e-06
2284.77	-2.49579e-06
2293.45	-3.07714e-06
2302.13	-2.09671e-06
2310.81	-2.88708e-06
2319.49	-3.49099e-06
2328.16	-2.14536e-06
2336.84	4.47074e-06
2345.52	1.32174e-05
2354.2	1.28662e-05
2362.88	-2.01683e-06
2371.56	-3.08998e-06
2380.23	-1.41913e-06
2388.91	-1.73627e-06
2397.59	-2.02493e-06
2406.27	-2.25011e-06
2414.95	-1.82131e-06
2423.62	-1.79299e-06
2432.3	-9.46412e-07
2440.98	-9.87576e-08
2449.66	2.25217e-06
2458.34	6.00233e-06
2467.02	7.41919e-06
2475.69	3.44074e-06
2484.37	-2.21249e-06
2493.05	-4.45293e-06
2501.73	-7.85622e-06
2510.41	-1.02948e-05
2519.08	-6.44643e-06
2527.76	-1.10339e-06
2536.44	1.5977e-07
2545.12	-1.90739e-06
2553.8	-1.20244e-06
2562.48	-1.15455e-06
2571.15	-9.21107e-07
2579.83	-1.33679e-06
2588.51	-1.52183e-06
2597.19	-1.93223e-06
2605.87	-2.41833e-06
2614.54	-2.43544e-06
2623.22	-2.55895e-06
2631.9	-2.26721e-06
2640.58	-1.43678e-06
2649.26	1.8194e-06
2657.94	8.79848e-06
2666.61	1.22377e-05
2675.29	4.40593e-06
2683.97	-1.73429e-06
2692.65	-2.42444e-06
2701.33	-2.42239e-06
2710	-2.3085e-06
2718.68	-2.09751e-06
2727.36	-2.02752e-06
2736.04	-1.54484e-06
2744.72	-2.36499e-06
2753.4	-2.30543e-06
2762.07	-2.10997e-06
2770.75	-2.24695e-06
2779.43	-2.47614e-06
2788.11	-2.16855e-06
2796.79	-2.32262e-06
2805.46	-2.37186e-06
2814.14	-2.53315e-06
2822.82	-2.15481e-06
2831.5	-3.08113e-06
2840.18	-2.77643e-06
2848.86	-1.90459e-06
2857.53	-1.79597e-06
2866.21	-2.9447e-06
2874.89	-2.74155e-06
2883.57	-2.19995e-06
2892.25	-2.32355e-06
2900.92	-2.45544e-06
2909.6	-2.89434e-06
2918.28	-2.89235e-06
2926.96	-2.78378e-06
2935.64	-2.43475e-06
2944.32	-2.63993e-06
2952.99	-2.24711e-06
2961.67	-2.15372e-06
2970.35	-2.56594e-06
2979.03	-2.25772e-06
2987.71	-3.00694e-06
2996.38	-2.60483e-06
3005.06	-2.28045e-06
3013.74	-2.0595e-06
3022.42	-2.29485e-06
3031.1	-2.2793e-06
3039.78	-2.50564e-06
3048.45	-3.59095e-06
3057.13	-2.57902e-06
3065.81	-2.47019e-06
3074.49	-2.35183e-06
3083.17	-2.15673e-06
3091.84	-2.37317e-06
3100.52	-2.18978e-06
3109.2	-2.13434e-06
3117.88	-2.05804e-06
3126.56	-2.0051e-06
3135.24	-2.03161e-06
3143.91	-2.01608e-06
3152.59	-2.10735e-06
3161.27	-2.29152e-06
3169.95	-1.87111e-06
3178.63	-2.97048e-06
3187.3	-3.01769e-06
3195.98	-2.62224e-06
3204.66	-2.93287e-06
3213.34	-2.57767e-06
3222.02	-2.08439e-06
3230.7	-1.93006e-06
3239.37	-2.28523e-06
3248.05	-2.00216e-06
3256.73	-2.90764e-06
3265.41	-2.04247e-06
3274.09	-2.34303e-06
3282.76	-2.6594e-06
3291.44	-2.01622e-06
3300.12	-2.71495e-06
3308.8	-2.89387e-06
3317.48	-2.94e-06
3326.16	-2.36218e-06
3334.83	-2.16042e-06
3343.51	-2.01459e-06
3352.19	-3.95454e-06
3360.87	-2.14271e-06
3369.55	-3.15598e-06
3378.22	-3.57543e-06
3386.9	-3.13463e-06
3395.58	-3.0756e-06
3404.26	-2.94735e-06
3412.94	-2.76786e-06
3421.62	-2.98009e-06
3430.29	-3.10527e-06
3438.97	-3.11284e-06
3447.65	-3.05571e-06
3456.33	-2.50581e-06
3465.01	-2.7747e-06
3473.68	-2.69143e-06
3482.36	-3.28838e-06
3491.04	-2.60883e-06
3499.72	-3.12372e-06
3508.4	-3.218e-06
3517.08	-2.35528e-06
3525.75	-2.75117e-06
3534.43	-3.17842e-06
3543.11	-2.7415e-06
3551.79	-2.90793e-06
3560.47	-3.53419e-06
3569.14	-3.14417e-06
3577.82	-3.48721e-06
3586.5	-3.57371e-06
3595.18	-3.58311e-06
3603.86	-3.24337e-06
3612.54	-2.86468e-06
3621.21	-2.8421e-06
3629.89	-3.16719e-06
3638.57	-2.83861e-06
3647.25	-2.78724e-06
3655.93	-2.63127e-06
3664.6	-2.9776e-06
3673.28	-2.91275e-06
3681.96	-2.39162e-06
3690.64	-3.01795e-06
3699.32	-2.93827e-06
3708	-3.32758e-06
3716.67	-3.32758e-06
3725.35	-4.30593e-06
3734.03	-4.21508e-06
3742.71	-4.56685e-06
3751.39	-4.67468e-06
3760.06	-4.4899e-06
3768.74	-4.50077e-06
3777.42	-4.38582e-06
3786.1	-3.69655e-06
3794.78	-3.19242e-06
3803.46	-3.25002e-06
3812.13	-2.78631e-06
3820.81	-3.40764e-06
3829.49	-2.3086e-06
3838.17	-4.24409e-06
3846.85	-3.17631e-06
3855.53	-3.49604e-06
3864.2	-3.38743e-06
3872.88	-2.72593e-06
3881.56	-3.3171e-06
3890.24	-3.24874e-06
3898.92	-3.14347e-06
3907.59	-2.41165e-06
3916.27	-3.14729e-06
3924.95	-3.41157e-06
3933.63	-2.79957e-06
3942.31	-3.92935e-06
3950.99	-2.78423e-06
3959.66	-2.64162e-06
3968.34	-3.47475e-06
