Infrared Spectrum: FREON 112
Formula: C2 Cl4 F2
CAS: 76-12-0
State: GAS
Class: COBLENTZ
Instrument: DIGILAB FTS-14
Sampling: TRANSMISSION
Resolution: 2
Origin: DOW CHEMICAL COMPANY
1/CM	TRANSMITTANCE
719.739	0.82
727.569	0.7831
735.4	0.816
743.23	0.5575
751.06	0.2462
758.891	0.063
766.721	0.084
774.551	0.102
782.382	0.0221
790.212	0.004
798.043	0.037
805.873	0.5237
813.703	0.668
821.534	0.6271
829.364	0.3704
837.194	0.082
845.025	0.004
852.855	0.016
860.685	0.1437
868.516	0.292
876.346	0.193
884.176	0.0411
892.007	0.002
899.837	0.004
907.667	0.03
915.498	0.082
923.328	0.2029
931.158	0.232
938.989	0.176
946.819	0.3738
954.65	0.621
962.48	0.6789
970.31	0.716
978.141	0.736
985.971	0.74
993.801	0.74
1001.63	0.742
1009.46	0.695
1017.29	0.5453
1025.12	0.2772
1032.95	0.098
1040.78	0.1209
1048.61	0.3949
1056.44	0.6499
1064.27	0.699
1072.1	0.693
1079.94	0.6211
1087.77	0.4461
1095.6	0.2461
1103.43	0.2319
1111.26	0.226
1119.09	0.0611
1126.92	0.032
1134.75	0.098
1142.58	0.0941
1150.41	0.061
1158.24	0.2237
1166.07	0.448
1173.9	0.2811
1181.73	0.3598
1189.56	0.681
1197.39	0.72
1205.22	0.732
1213.05	0.746
1220.88	0.761
1228.71	0.763
1236.54	0.761
1244.37	0.753
1252.2	0.748
1260.03	0.746
1267.86	0.748
1275.69	0.757
1283.52	0.763
1291.35	0.765
1299.18	0.767
1307.02	0.761
1314.85	0.757
1322.68	0.751
1330.51	0.767
1338.34	0.765
1346.17	0.765
1354	0.761
1361.83	0.769
1369.66	0.779
1377.49	0.777
1385.32	0.777
1393.15	0.775
1400.98	0.773
1408.81	0.773
1416.64	0.773
1424.47	0.769
1432.3	0.775
1440.13	0.779
1447.96	0.781
1455.79	0.783
1463.62	0.783
1471.45	0.783
1479.28	0.783
1487.11	0.788
1494.94	0.783
1502.77	0.783
1510.6	0.783
1518.43	0.779
1526.27	0.775
1534.1	0.775
1541.93	0.779
1549.76	0.786
1557.59	0.779
1565.42	0.781
1573.25	0.783
1581.08	0.786
1588.91	0.786
1596.74	0.786
1604.57	0.786
1612.4	0.783
1620.23	0.788
1628.06	0.786
1635.89	0.783
1643.72	0.788
1651.55	0.786
1659.38	0.783
1667.21	0.783
1675.04	0.783
1682.87	0.781
1690.7	0.777
1698.53	0.777
1706.36	0.777
1714.19	0.783
1722.02	0.783
1729.85	0.788
1737.68	0.779
1745.51	0.783
1753.35	0.781
1761.18	0.781
1769.01	0.781
1776.84	0.786
1784.67	0.786
1792.5	0.783
1800.33	0.781
1808.16	0.781
1815.99	0.779
1823.82	0.781
1831.65	0.786
1839.48	0.788
1847.31	0.783
1855.14	0.788
1862.97	0.786
1870.8	0.788
1878.63	0.788
1886.46	0.783
1894.29	0.783
1902.12	0.783
1909.95	0.783
1917.78	0.781
1925.61	0.781
1933.44	0.786
1941.27	0.781
1949.1	0.783
1956.93	0.783
1964.76	0.783
1972.6	0.781
1980.43	0.781
1988.26	0.783
1996.09	0.781
2003.92	0.78
2011.75	0.781
2019.58	0.781
2027.41	0.7802
2035.24	0.7797
2043.07	0.7816
2050.9	0.7844
2058.73	0.788
2066.56	0.7854
2074.39	0.783
2082.22	0.783
2090.05	0.783
2097.88	0.7858
2105.71	0.783
2113.54	0.783
2121.37	0.779
2129.2	0.777
2137.03	0.777
2144.86	0.7752
2152.69	0.7633
2160.52	0.7469
2168.35	0.744
2176.18	0.7502
2184.01	0.7659
2191.84	0.7784
2199.68	0.7777
2207.51	0.775
2215.34	0.7762
2223.17	0.7759
2231	0.777
2238.83	0.775
2246.66	0.7701
2254.49	0.769
2262.32	0.7698
2270.15	0.7757
2277.98	0.7796
2285.81	0.7816
2293.64	0.79
2301.47	0.7944
2309.3	0.7953
2317.13	0.7855
2324.96	0.7812
2332.79	0.788
2340.62	0.7879
2348.45	0.7881
2356.28	0.794
2364.11	0.79
2371.94	0.7862
2379.77	0.7812
2387.6	0.7793
2395.43	0.7826
2403.26	0.786
2411.09	0.783
2418.93	0.783
2426.76	0.786
2434.59	0.786
2442.42	0.786
2450.25	0.784
2458.08	0.7878
2465.91	0.7845
2473.74	0.783
2481.57	0.7853
2489.4	0.7908
2497.23	0.7935
2505.06	0.7958
2512.89	0.7894
2520.72	0.788
2528.55	0.79
2536.38	0.792
2544.21	0.798
2552.04	0.788
2559.87	0.788
2567.7	0.788
2575.53	0.7884
2583.36	0.7829
2591.19	0.781
2599.02	0.788
2606.85	0.7811
2614.68	0.7855
2622.51	0.7883
2630.34	0.777
2638.17	0.787
2646.01	0.787
2653.84	0.786
2661.67	0.7816
2669.5	0.781
2677.33	0.781
2685.16	0.788
2692.99	0.7819
2700.82	0.779
2708.65	0.781
2716.48	0.7879
2724.31	0.7937
2732.14	0.7921
2739.97	0.7867
2747.8	0.7907
2755.63	0.7934
2763.46	0.794
2771.29	0.792
2779.12	0.7884
2786.95	0.7937
2794.78	0.7943
2802.61	0.7898
2810.44	0.7833
2818.27	0.7812
2826.1	0.788
2833.93	0.7831
2841.76	0.783
2849.59	0.7898
2857.42	0.7817
2865.25	0.788
2873.09	0.7836
2880.92	0.786
2888.75	0.7838
2896.58	0.7686
2904.41	0.769
2912.24	0.7918
2920.07	0.781
2927.9	0.779
2935.73	0.7871
2943.56	0.7824
2951.39	0.786
2959.22	0.7889
2967.05	0.7944
2974.88	0.7823
2982.71	0.7913
2990.54	0.7974
2998.37	0.7869
3006.2	0.7899
3014.03	0.792
3021.86	0.788
3029.69	0.7937
3037.52	0.788
3045.35	0.7776
3053.18	0.792
3061.01	0.792
3068.84	0.7861
3076.67	0.7875
3084.5	0.777
3092.34	0.783
3100.17	0.7764
3108	0.7807
3115.83	0.7831
3123.66	0.7755
3131.49	0.7784
3139.32	0.7823
3147.15	0.773
3154.98	0.7872
3162.81	0.792
3170.64	0.796
3178.47	0.794
3186.3	0.7929
3194.13	0.7838
3201.96	0.7842
3209.79	0.7907
3217.62	0.792
3225.45	0.7914
3233.28	0.7891
3241.11	0.7812
3248.94	0.794
3256.77	0.7818
3264.6	0.788
3272.43	0.786
3280.26	0.8029
3288.09	0.7731
3295.92	0.788
3303.75	0.7861
3311.58	0.7793
3319.42	0.7768
3327.25	0.794
3335.08	0.7842
3342.91	0.7778
3350.74	0.7801
3358.57	0.8
3366.4	0.7802
3374.23	0.7974
3382.06	0.7858
3389.89	0.7808
3397.72	0.806
3405.55	0.7679
3413.38	0.81
3421.21	0.7949
3429.04	0.796
3436.87	0.7924
3444.7	0.8285
3452.53	0.804
3460.36	0.8208
3468.19	0.825
3476.02	0.8041
3483.85	0.8014
3491.68	0.8106
3499.51	0.798
3507.34	0.7931
3515.17	0.7772
3523	0.7963
3530.83	0.818
3538.67	0.7772
3546.5	0.8022
3554.33	0.7765
3562.16	0.7705
3569.99	0.7747
3577.82	0.7936
3585.65	0.8016
3593.48	0.8025
3601.31	0.7992
3609.14	0.79
3616.97	0.8046
3624.8	0.812
3632.63	0.8026
3640.46	0.7971
3648.29	0.806
