Infrared Spectrum: (±)-Camphor
Formula: C 10 H 16 O
CAS: 76-22-2
State: solid
Instrument: Bruker Tensor 37 FTIR
Resolution: 0.96450084
Origin: Pacific Northwest National Laboratory Under IARPA Contract
1/cm	Reflectance
7498.99	0.72037
7481.63	0.710308
7464.27	0.687767
7446.91	0.618729
7429.55	0.529955
7412.19	0.50376
7394.84	0.472519
7377.48	0.449112
7360.12	0.484115
7342.76	0.463594
7325.4	0.461404
7308.04	0.489
7290.68	0.504377
7273.32	0.545866
7255.96	0.553758
7238.6	0.547502
7221.24	0.548313
7203.88	0.552559
7186.52	0.560623
7169.16	0.577333
7151.8	0.594282
7134.44	0.592956
7117.08	0.595254
7099.72	0.612015
7082.36	0.627999
7065	0.641428
7047.64	0.664278
7030.28	0.679047
7012.92	0.684113
6995.56	0.677365
6978.2	0.67097
6960.84	0.669749
6943.48	0.677742
6926.12	0.679983
6908.76	0.668373
6891.4	0.672584
6874.04	0.668285
6856.68	0.655974
6839.32	0.633065
6821.96	0.606719
6804.6	0.578102
6787.24	0.56067
6769.88	0.560499
6752.52	0.531895
6735.16	0.42724
6717.8	0.21684
6700.44	0.13498
6683.08	0.13552
6665.72	0.18231
6648.36	0.17537
6631	0.13109
6613.64	0.14597
6596.28	0.23451
6578.92	0.29452
6561.56	0.39929
6544.2	0.43854
6526.85	0.43068
6509.49	0.38987
6492.13	0.38826
6474.77	0.3859
6457.41	0.36909
6440.05	0.38335
6422.69	0.3752
6405.33	0.36464
6387.97	0.36781
6370.61	0.37642
6353.25	0.36692
6335.89	0.29035
6318.53	0.3656
6301.17	0.38297
6283.81	0.38517
6266.45	0.39104
6249.09	0.40099
6231.73	0.39662
6214.37	0.39025
6197.01	0.37314
6179.65	0.37342
6162.29	0.38454
6144.93	0.37853
6127.57	0.34678
6110.21	0.23614
6092.85	0.20436
6075.49	0.2652
6058.13	0.29079
6040.77	0.30906
6023.41	0.28793
6006.05	0.25959
5988.69	0.20316
5971.33	0.10441
5953.97	0.05496
5936.61	0.04953
5919.25	0.04759
5901.89	0.06265
5884.53	0.07017
5867.17	0.07191
5849.81	0.06883
5832.45	0.05984
5815.09	0.0703
5797.73	0.06731
5780.37	0.06566
5763.01	0.08871
5745.65	0.09309
5728.29	0.09662
5710.93	0.10559
5693.57	0.08823
5676.21	0.08236
5658.86	0.0943
5641.5	0.1129
5624.14	0.16937
5606.78	0.18425
5589.42	0.1753
5572.06	0.18297
5554.7	0.1844
5537.34	0.10911
5519.98	0.06671
5502.62	0.05811
5485.26	0.03435
5467.9	0.06842
5450.54	0.11799
5433.18	0.0911
5415.82	0.11574
5398.46	0.14206
5381.1	0.09936
5363.74	0.07083
5346.38	0.05923
5329.02	0.04545
5311.66	0.04185
5294.3	0.0423
5276.94	0.03873
5259.58	0.03211
5242.22	0.02964
5224.86	0.03238
5207.5	0.03293
5190.14	0.03281
5172.78	0.03361
5155.42	0.03612
5138.06	0.04307
5120.7	0.04361
5103.34	0.06753
5085.98	0.08804
5068.62	0.10105
5051.26	0.09139
5033.9	0.0839
5016.54	0.1152
4999.18	0.09187
4981.82	0.0835
4964.46	0.10252
4947.1	0.08231
4929.74	0.08704
4912.38	0.06799
4895.02	0.07779
4877.66	0.09793
4860.3	0.07882
4842.94	0.11517
4825.58	0.08269
4808.22	0.08582
4790.86	0.06376
4773.51	0.07775
4756.15	0.10033
4738.79	0.11001
4721.43	0.0804
4704.07	0.06125
4686.71	0.05232
4669.35	0.05071
4651.99	0.03085
4634.63	0.02611
4617.27	0.04359
4599.91	0.03192
4582.55	0.03883
4565.19	0.03716
4547.83	0.04138
4530.47	0.05088
4513.11	0.04319
4495.75	0.02875
4478.39	0.02724
4461.03	0.02807
4443.67	0.02902
4426.31	0.03195
4408.95	0.02867
4391.59	0.02778
4374.23	0.0282
4356.87	0.03034
4339.51	0.03134
4322.15	0.03259
4304.79	0.03032
4287.43	0.02708
4270.07	0.02853
4252.71	0.03
4235.35	0.03826
4217.99	0.02683
4200.63	0.05447
4183.27	0.0478
4165.91	0.06521
4148.55	0.12017
4131.19	0.03711
4113.83	0.06288
4096.47	0.12855
4079.11	0.07885
4061.75	0.10954
4044.39	0.714757
4027.03	0.709653
4009.67	0.669042
3992.31	0.592867
3974.95	0.507346
3957.59	0.484087
3940.23	0.45391
3922.87	0.445594
3905.52	0.470266
3888.16	0.445087
3870.8	0.468637
3853.44	0.483166
3836.08	0.507183
3818.72	0.549026
3801.36	0.542234
3784	0.538799
3766.64	0.540298
3749.28	0.550782
3731.92	0.558256
3714.56	0.57825
3697.2	0.591931
3679.84	0.58554
3662.48	0.595122
3645.12	0.610988
3627.76	0.627582
3610.4	0.640695
3593.04	0.662919
3575.68	0.679531
3558.32	0.681407
3540.96	0.67705
3523.6	0.665666
3506.24	0.673094
3488.88	0.680239
3471.52	0.672032
3454.16	0.668431
3436.8	0.671578
3419.44	0.662502
3402.08	0.645255
3384.72	0.621523
3367.36	0.590736
3350	0.561727
3332.64	0.556708
3315.28	0.552113
3297.92	0.504487
3280.56	0.357915
3263.2	0.165162
3245.84	0.117335
3228.48	0.152261
3211.12	0.183409
3193.76	0.158855
3176.4	0.133517
3159.04	0.147467
3141.68	0.254475
3124.32	0.315246
3106.96	0.412877
3089.6	0.43172
3072.24	0.414401
3054.88	0.378304
3037.53	0.383385
3020.17	0.375134
3002.81	0.361626
2985.45	0.379829
2968.09	0.364111
2950.73	0.361438
2933.37	0.358323
2916.01	0.372053
2898.65	0.337602
2881.29	0.300357
2863.93	0.367149
2846.57	0.381375
2829.21	0.378139
2811.85	0.38703
2794.49	0.393116
2777.13	0.389515
2759.77	0.375985
2742.41	0.364498
2725.05	0.371534
2707.69	0.376968
2690.33	0.368209
2672.97	0.318317
2655.61	0.190864
2638.25	0.182415
2620.89	0.278863
2603.53	0.297441
2586.17	0.293332
2568.81	0.277703
2551.45	0.240911
2534.09	0.171491
2516.73	0.079836
2499.37	0.0510186
2482.01	0.0514052
2464.65	0.0488096
2447.29	0.0619977
2429.93	0.0681279
2412.57	0.0773729
2395.21	0.0670565
2377.85	0.063036
2360.49	0.06572
2343.13	0.0631686
2325.77	0.0750203
2308.41	0.0916656
2291.05	0.0903954
2273.69	0.09541
2256.33	0.103076
2238.97	0.0847623
2221.61	0.0907378
2204.25	0.0922952
2186.89	0.144385
2169.53	0.171745
2152.18	0.18237
2134.82	0.17106
2117.46	0.179532
2100.1	0.173954
2082.74	0.0877445
2065.38	0.0650463
2048.02	0.0514384
2030.66	0.0375322
2013.3	0.093223
1995.94	0.109073
1978.58	0.0989004
1961.22	0.134566
1943.86	0.132909
1926.5	0.0911797
1909.14	0.0691331
1891.78	0.0534155
1874.42	0.0448111
1857.06	0.0437066
1839.7	0.0422596
1822.34	0.0378636
1804.98	0.0321642
1787.62	0.0302644
1770.26	0.0338762
1752.9	0.0341523
1735.54	0.0348813
1718.18	0.0354226
1700.82	0.0416742
1683.46	0.0467551
1666.1	0.0392001
1648.74	0.0739599
1631.38	0.089556
1614.02	0.114795
1596.66	0.0777264
1579.3	0.102369
1561.94	0.119876
1544.58	0.0807086
1527.22	0.0776601
1509.86	0.104467
1492.5	0.0901524
1475.14	0.0894345
1457.78	0.0644719
1440.42	0.0888049
1423.06	0.0825201
1405.7	0.0891804
1388.34	0.113436
1370.98	0.0858779
1353.62	0.0847954
1336.26	0.0652009
1318.9	0.0811725
1301.54	0.096371
1284.19	0.096371
1266.83	0.0819457
1249.47	0.0503559
1232.11	0.0456506
1214.75	0.0551275
1197.39	0.0305405
1180.03	0.0253602
1162.67	0.03772
1145.31	0.0337768
1127.95	0.0423811
1110.59	0.0400064
1093.23	0.0482242
1075.87	0.0543212
1058.51	0.0408237
1041.15	0.0298115
1023.79	0.0306509
1006.43	0.031148
989.068	0.0298778
971.709	0.0338872
954.349	0.0309271
936.989	0.0300876
919.629	0.0311259
902.269	0.0304079
884.91	0.0296127
867.55	0.0313689
850.19	0.0291377
832.83	0.0294801
815.47	0.0302864
798.111	0.035765
780.751	0.0330588
763.391	0.0299109
746.031	0.0792727
728.671	0.03043
711.312	0.0654108
693.952	0.100756
676.592	0.0283535
659.232	0.0886724
641.872	0.151775
624.513	0.0304632
607.153	0.0474952
