Infrared Spectrum: CRYSTALLINE SILICA
Formula: O2 Si
CAS: 7631-86-9
State: SOLID (0.5 mg / 300 mg CsI DISC)
Class: COBLENTZ III
Instrument: BECKMAN IR-12 (GRATING)
Instrument parameters: GRATING BLAZED AT 3330, 1330, 445, 220 CM^-^1
Sampling: TRANSMISSION
Resolution: 4
Origin: DESOTO CHEMICAL COATINGS, INC.
1/CM	TRANSMITTANCE
198.668	0.763
209.327	0.764
219.986	0.769
230.644	0.784
241.303	0.795
251.962	0.797
262.621	0.788
273.279	0.777
283.938	0.78
294.597	0.779
305.256	0.773
315.915	0.771
326.573	0.771
337.232	0.769
347.891	0.76
358.55	0.741
369.208	0.6312
379.867	0.4879
390.526	0.641
401.185	0.419
411.843	0.708
422.502	0.721
433.161	0.718
443.82	0.676
454.479	0.42
465.137	0.19
475.796	0.2859
486.455	0.5299
497.114	0.587
507.772	0.48
518.431	0.447
529.09	0.6618
539.749	0.803
550.408	0.867
561.066	0.902
571.725	0.915
582.384	0.931
593.043	0.942
603.701	0.953
614.36	0.957
625.019	0.963
635.678	0.967
646.337	0.969
656.995	0.971
667.654	0.962
678.313	0.963
688.972	0.957
699.63	0.8251
710.289	0.922
720.948	0.961
731.607	0.967
742.266	0.967
752.924	0.955
763.583	0.937
774.242	0.803
784.901	0.552
795.559	0.4976
806.218	0.5388
816.877	0.8149
827.536	0.91
838.194	0.941
848.853	0.959
859.512	0.967
870.171	0.973
880.83	0.971
891.488	0.967
902.147	0.961
912.806	0.951
923.465	0.939
934.123	0.923
944.782	0.911
955.441	0.882
966.1	0.862
976.759	0.825
987.417	0.784
998.076	0.742
1008.73	0.692
1019.39	0.633
1030.05	0.56
1040.71	0.464
1051.37	0.352
1062.03	0.2381
1072.69	0.119
1083.35	0.048
1094.01	0.036
1104.66	0.04
1115.32	0.061
1125.98	0.1
1136.64	0.143
1147.3	0.182
1157.96	0.259
1168.62	0.238
1179.28	0.329
1189.93	0.427
1200.59	0.507
1211.25	0.563
1221.91	0.614
1232.57	0.651
1243.23	0.674
1253.89	0.693
1264.55	0.71
1275.2	0.721
1285.86	0.73
1296.52	0.74
1307.18	0.751
1317.84	0.761
1328.5	0.767
1339.16	0.775
1349.82	0.78
1360.47	0.785
1371.13	0.789
1381.79	0.791
1392.45	0.795
1403.11	0.799
1413.77	0.801
1424.43	0.803
1435.09	0.805
1445.74	0.808
1456.4	0.808
1467.06	0.809
1477.72	0.809
1488.38	0.813
1499.04	0.813
1509.7	0.813
1520.36	0.813
1531.01	0.813
1541.67	0.816
1552.33	0.819
1562.99	0.819
1573.65	0.816
1584.31	0.813
1594.97	0.803
1605.63	0.792
1616.29	0.785
1626.94	0.788
1637.6	0.793
1648.26	0.801
1658.92	0.803
1669.58	0.805
1680.24	0.811
1690.9	0.811
1701.56	0.812
1712.21	0.816
1722.87	0.817
1733.53	0.82
1744.19	0.821
1754.85	0.821
1765.51	0.821
1776.17	0.821
1786.83	0.819
1797.48	0.817
1808.14	0.82
1818.8	0.817
1829.46	0.821
1840.12	0.82
1850.78	0.82
1861.44	0.817
1872.1	0.809
1882.75	0.801
1893.41	0.8
1904.07	0.803
1914.73	0.807
1925.39	0.812
1936.05	0.812
1946.71	0.812
1957.37	0.811
1968.02	0.811
1978.68	0.808
1989.34	0.804
2000	0.801
2010.66	0.805
2021.32	0.807
2031.98	0.808
2042.64	0.811
2053.29	0.811
2063.95	0.811
2074.61	0.8111
2085.27	0.812
2095.93	0.811
2106.59	0.8111
2117.25	0.8119
2127.91	0.808
2138.56	0.805
2149.22	0.8054
2159.88	0.808
2170.54	0.8078
2181.2	0.804
2191.86	0.804
2202.52	0.8065
2213.18	0.804
2223.84	0.803
2234.49	0.803
2245.15	0.803
2255.81	0.801
2266.47	0.8
2277.13	0.7997
2287.79	0.799
2298.45	0.799
2309.11	0.8004
2319.76	0.7996
2330.42	0.7956
2341.08	0.7916
2351.74	0.7876
2362.4	0.787
2373.06	0.783
2383.72	0.7859
2394.38	0.791
2405.03	0.792
2415.69	0.791
2426.35	0.791
2437.01	0.789
2447.67	0.789
2458.33	0.789
2468.99	0.788
2479.65	0.7858
2490.3	0.783
2500.96	0.783
2511.62	0.783
2522.28	0.783
2532.94	0.783
2543.6	0.7803
2554.26	0.7793
2564.92	0.779
2575.57	0.776
2586.23	0.78
2596.89	0.7738
2607.55	0.773
2618.21	0.773
2628.87	0.772
2639.53	0.772
2650.19	0.772
2660.84	0.772
2671.5	0.771
2682.16	0.769
2692.82	0.767
2703.48	0.764
2714.14	0.764
2724.8	0.763
2735.46	0.761
2746.12	0.761
2756.77	0.76
2767.43	0.76
2778.09	0.759
2788.75	0.7561
2799.41	0.753
2810.07	0.753
2820.73	0.753
2831.39	0.752
2842.04	0.751
2852.7	0.748
2863.36	0.745
2874.02	0.744
2884.68	0.7438
2895.34	0.742
2906	0.7409
2916.66	0.7369
2927.31	0.7339
2937.97	0.733
2948.63	0.7332
2959.29	0.733
2969.95	0.733
2980.61	0.733
2991.27	0.733
3001.93	0.734
3012.58	0.733
3023.24	0.732
3033.9	0.732
3044.56	0.73
3055.22	0.73
3065.88	0.729
3076.54	0.728
3087.2	0.726
3097.85	0.724
3108.51	0.722
3119.17	0.721
3129.83	0.72
3140.49	0.7176
3151.15	0.716
3161.81	0.714
3172.47	0.713
3183.12	0.712
3193.78	0.71
3204.44	0.709
3215.1	0.7066
3225.76	0.704
3236.42	0.701
3247.08	0.6975
3257.74	0.6949
3268.4	0.693
3279.05	0.692
3289.71	0.69
3300.37	0.6868
3311.03	0.6844
3321.69	0.681
3332.35	0.678
3343.01	0.6734
3353.67	0.6707
3364.32	0.6667
3374.98	0.6623
3385.64	0.6573
3396.3	0.6516
3406.96	0.6456
3417.62	0.6395
3428.28	0.6355
3438.94	0.6302
3449.59	0.6275
3460.25	0.626
3470.91	0.626
3481.57	0.627
3492.23	0.627
3502.89	0.629
3513.55	0.63
3524.21	0.63
3534.86	0.63
3545.52	0.6339
3556.18	0.639
3566.84	0.641
3577.5	0.6448
3588.16	0.647
3598.82	0.651
3609.48	0.653
3620.13	0.655
3630.79	0.658
3641.45	0.659
3652.11	0.661
3662.77	0.658
3673.43	0.657
3684.09	0.655
3694.75	0.6571
3705.4	0.659
3716.06	0.6579
3726.72	0.657
3737.38	0.655
3748.04	0.655
3758.7	0.655
3769.36	0.655
3780.02	0.6548
3790.68	0.654
3801.33	0.653
3811.99	0.653
3822.65	0.65
3833.31	0.65
3843.97	0.6483
3854.63	0.6457
3865.29	0.6427
3875.95	0.643
3886.6	0.643
3897.26	0.6427
3907.92	0.641
3918.58	0.639
3929.24	0.638
3939.9	0.637
3950.56	0.635
3961.22	0.633
3971.87	0.633
3982.53	0.63
