Infrared Spectrum: HYDROLYZED SILICA (Cab-O-Sil)
Formula: O2 Si
CAS: 7631-86-9
State: SOLID (0.5 mg / 300 mg CsI PELLET)
Class: COBLENTZ
Instrument: Not specified, most likely a grating spectrometer.
Sampling: TRANSMISSION
Resolution: 4
Origin: DESOTO CHEMICAL COATINGS, INC.
1/CM	TRANSMITTANCE
197.339	0.917
207.982	0.918
218.625	0.918
229.268	0.925
239.911	0.928
250.554	0.929
261.197	0.934
271.84	0.93
282.483	0.922
293.126	0.926
303.769	0.92
314.412	0.918
325.055	0.913
335.698	0.908
346.341	0.902
356.985	0.898
367.628	0.889
378.271	0.886
388.914	0.878
399.557	0.872
410.2	0.863
420.843	0.852
431.486	0.833
442.129	0.783
452.772	0.722
463.415	0.66
474.058	0.625
484.701	0.667
495.344	0.771
505.987	0.852
516.63	0.9
527.273	0.917
537.916	0.925
548.559	0.932
559.202	0.936
569.845	0.937
580.488	0.941
591.131	0.945
601.774	0.948
612.417	0.952
623.06	0.954
633.703	0.957
644.346	0.96
654.989	0.954
665.633	0.952
676.276	0.957
686.919	0.961
697.562	0.966
708.205	0.968
718.848	0.965
729.491	0.965
740.134	0.966
750.777	0.964
761.42	0.965
772.063	0.953
782.706	0.934
793.349	0.91
803.992	0.898
814.635	0.896
825.278	0.901
835.921	0.913
846.564	0.926
857.207	0.948
867.85	0.961
878.493	0.968
889.136	0.966
899.779	0.964
910.422	0.958
921.065	0.954
931.708	0.952
942.351	0.942
952.994	0.934
963.637	0.925
974.281	0.918
984.924	0.913
995.567	0.91
1006.21	0.885
1016.85	0.829
1027.5	0.751
1038.14	0.678
1048.78	0.598
1059.42	0.519
1070.07	0.44
1080.71	0.369
1091.35	0.303
1102	0.26
1112.64	0.236
1123.28	0.257
1133.93	0.344
1144.57	0.41
1155.21	0.457
1165.86	0.497
1176.5	0.534
1187.14	0.557
1197.78	0.587
1208.43	0.628
1219.07	0.668
1229.71	0.712
1240.36	0.767
1251	0.82
1261.64	0.871
1272.29	0.9
1282.93	0.913
1293.57	0.924
1304.21	0.929
1314.86	0.932
1325.5	0.938
1336.14	0.941
1346.79	0.938
1357.43	0.936
1368.07	0.936
1378.72	0.936
1389.36	0.936
1400	0.936
1410.64	0.938
1421.29	0.938
1431.93	0.933
1442.57	0.937
1453.22	0.937
1463.86	0.933
1474.5	0.932
1485.15	0.932
1495.79	0.934
1506.43	0.934
1517.08	0.933
1527.72	0.93
1538.36	0.929
1549	0.926
1559.65	0.922
1570.29	0.92
1580.93	0.916
1591.58	0.913
1602.22	0.906
1612.86	0.901
1623.51	0.898
1634.15	0.901
1644.79	0.904
1655.43	0.904
1666.08	0.905
1676.72	0.906
1687.36	0.906
1698.01	0.905
1708.65	0.902
1719.29	0.902
1729.94	0.902
1740.58	0.902
1751.22	0.902
1761.87	0.902
1772.51	0.902
1783.15	0.901
1793.79	0.9
1804.44	0.9
1815.08	0.897
1825.72	0.9
1836.37	0.894
1847.01	0.89
1857.65	0.89
1868.3	0.888
1878.94	0.886
1889.58	0.885
1900.22	0.882
1910.87	0.88
1921.51	0.88
1932.15	0.88
1942.8	0.88
1953.44	0.878
1964.08	0.876
1974.73	0.872
1985.37	0.871
1996.01	0.871
2006.65	0.869
2017.3	0.868
2027.94	0.868
2038.58	0.867
2049.23	0.865
2059.87	0.864
2070.51	0.863
2081.16	0.8565
2091.8	0.856
2102.44	0.856
2113.09	0.8541
2123.73	0.852
2134.37	0.8501
2145.01	0.847
2155.66	0.8427
2166.3	0.84
2176.94	0.84
2187.59	0.839
2198.23	0.8356
2208.87	0.833
2219.52	0.832
2230.16	0.8286
2240.8	0.827
2251.44	0.825
2262.09	0.824
2272.73	0.823
2283.37	0.821
2294.02	0.8182
2304.66	0.816
2315.3	0.8126
2325.95	0.8046
2336.59	0.8006
2347.23	0.796
2357.87	0.799
2368.52	0.799
2379.16	0.8
2389.8	0.7983
2400.45	0.7916
2411.09	0.7886
2421.73	0.7876
2432.38	0.7863
2443.02	0.783
2453.66	0.7796
2464.31	0.777
2474.95	0.776
2485.59	0.773
2496.23	0.771
2506.88	0.769
2517.52	0.768
2528.16	0.7677
2538.81	0.767
2549.45	0.764
2560.09	0.759
2570.74	0.757
2581.38	0.7527
2592.02	0.75
2602.66	0.748
2613.31	0.747
2623.95	0.744
2634.59	0.74
2645.24	0.739
2655.88	0.738
2666.52	0.7372
2677.17	0.7317
2687.81	0.728
2698.45	0.726
2709.1	0.723
2719.74	0.722
2730.38	0.7215
2741.02	0.72
2751.67	0.7198
2762.31	0.712
2772.95	0.7078
2783.6	0.704
2794.24	0.7028
2804.88	0.7
2815.53	0.6988
2826.17	0.6958
2836.81	0.6908
2847.45	0.6864
2858.1	0.6798
2868.74	0.6788
2879.38	0.6774
2890.03	0.674
2900.67	0.6718
2911.31	0.6694
2921.96	0.6596
2932.6	0.654
2943.24	0.651
2953.88	0.652
2964.53	0.654
2975.17	0.6518
2985.81	0.6508
2996.46	0.648
3007.1	0.647
3017.74	0.644
3028.39	0.643
3039.03	0.642
3049.67	0.6389
3060.32	0.635
3070.96	0.6319
3081.6	0.6279
3092.24	0.625
3102.89	0.6229
3113.53	0.6208
3124.17	0.6176
3134.82	0.6128
3145.46	0.6088
3156.1	0.6059
3166.75	0.602
3177.39	0.599
3188.03	0.597
3198.67	0.5948
3209.32	0.59
3219.96	0.5859
3230.6	0.5808
3241.25	0.5779
3251.89	0.5739
3262.53	0.5709
3273.18	0.5689
3283.82	0.5629
3294.46	0.558
3305.11	0.555
3315.75	0.5529
3326.39	0.5489
3337.03	0.546
3347.68	0.5449
3358.32	0.5409
3368.96	0.537
3379.61	0.5329
3390.25	0.53
3400.89	0.527
3411.54	0.523
3422.18	0.521
3432.82	0.517
3443.46	0.514
3454.11	0.513
3464.75	0.511
3475.39	0.509
3486.04	0.509
3496.68	0.507
3507.32	0.505
3517.97	0.503
3528.61	0.503
3539.25	0.505
3549.89	0.505
3560.54	0.505
3571.18	0.505
3581.82	0.505
3592.47	0.505
3603.11	0.503
3613.75	0.502
3624.4	0.5
3635.04	0.5
3645.68	0.498
3656.33	0.498
3666.97	0.4971
3677.61	0.4961
3688.25	0.496
3698.9	0.494
3709.54	0.492
3720.18	0.49
3730.83	0.4881
3741.47	0.4851
3752.11	0.484
3762.76	0.482
3773.4	0.4801
3784.04	0.478
3794.68	0.477
3805.33	0.476
3815.97	0.4721
3826.61	0.4691
3837.26	0.4662
3847.9	0.465
3858.54	0.462
3869.19	0.461
3879.83	0.46
3890.47	0.457
3901.11	0.454
3911.76	0.4503
3922.4	0.4481
3933.04	0.4451
3943.69	0.4423
3954.33	0.441
3964.97	0.44
3975.62	0.4372
3986.26	0.432
