Infrared Spectrum: AMORPHOUS SILICA
Formula: O2 Si
CAS: 7631-86-9
State: SOLID (0.5 mg / 300 mg CsI DISC)
Class: COBLENTZ III
Instrument: BECKMAN IR-12 (GRATING)
Instrument parameters: GRATING BLAZED AT 3330, 1330, 445, 220 CM^-^1
Sampling: TRANSMISSION
Resolution: 4
Origin: DESOTO CHEMICAL COATINGS, INC.
1/CM	TRANSMITTANCE
200	0.753
210.643	0.755
221.286	0.76
231.929	0.765
242.572	0.768
253.215	0.767
263.858	0.764
274.501	0.764
285.144	0.755
295.787	0.74
306.43	0.724
317.073	0.725
327.716	0.717
338.359	0.712
349.002	0.725
359.646	0.721
370.289	0.714
380.932	0.69
391.575	0.635
402.218	0.646
412.861	0.657
423.504	0.651
434.147	0.647
444.79	0.598
455.433	0.51
466.076	0.333
476.719	0.208
487.362	0.223
498.005	0.299
508.648	0.36
519.291	0.436
529.934	0.5909
540.577	0.745
551.22	0.823
561.863	0.855
572.506	0.868
583.149	0.886
593.792	0.899
604.435	0.892
615.078	0.835
625.721	0.819
636.364	0.88
647.007	0.91
657.65	0.922
668.293	0.93
678.937	0.935
689.58	0.945
700.223	0.947
710.866	0.946
721.509	0.946
732.152	0.945
742.795	0.939
753.438	0.933
764.081	0.918
774.724	0.874
785.367	0.746
796.01	0.622
806.653	0.7379
817.296	0.872
827.939	0.91
838.582	0.935
849.225	0.957
859.868	0.969
870.511	0.971
881.154	0.973
891.797	0.969
902.44	0.955
913.083	0.942
923.726	0.925
934.369	0.902
945.012	0.87
955.655	0.834
966.298	0.8
976.941	0.769
987.584	0.734
998.228	0.692
1008.87	0.642
1019.51	0.576
1030.16	0.503
1040.8	0.421
1051.44	0.345
1062.09	0.2431
1072.73	0.128
1083.37	0.077
1094.01	0.069
1104.66	0.074
1115.3	0.109
1125.94	0.133
1136.59	0.152
1147.23	0.172
1157.87	0.191
1168.52	0.208
1179.16	0.253
1189.8	0.311
1200.45	0.327
1211.09	0.344
1221.73	0.409
1232.37	0.469
1243.02	0.507
1253.66	0.542
1264.3	0.574
1274.95	0.61
1285.59	0.638
1296.23	0.662
1306.88	0.677
1317.52	0.69
1328.16	0.702
1338.8	0.712
1349.45	0.724
1360.09	0.73
1370.73	0.733
1381.38	0.741
1392.02	0.746
1402.66	0.753
1413.31	0.756
1423.95	0.757
1434.59	0.764
1445.23	0.764
1455.88	0.769
1466.52	0.772
1477.16	0.776
1487.81	0.775
1498.45	0.78
1509.09	0.781
1519.74	0.78
1530.38	0.783
1541.02	0.785
1551.67	0.787
1562.31	0.787
1572.95	0.784
1583.59	0.781
1594.24	0.767
1604.88	0.752
1615.52	0.74
1626.17	0.74
1636.81	0.751
1647.45	0.76
1658.1	0.769
1668.74	0.777
1679.38	0.781
1690.02	0.785
1700.67	0.788
1711.31	0.789
1721.95	0.791
1732.6	0.789
1743.24	0.789
1753.88	0.792
1764.53	0.792
1775.17	0.791
1785.81	0.791
1796.46	0.789
1807.1	0.791
1817.74	0.791
1828.38	0.791
1839.03	0.789
1849.67	0.789
1860.31	0.787
1870.96	0.78
1881.6	0.775
1892.24	0.773
1902.89	0.775
1913.53	0.777
1924.17	0.781
1934.81	0.783
1945.46	0.78
1956.1	0.783
1966.74	0.781
1977.39	0.78
1988.03	0.777
1998.67	0.775
2009.32	0.7715
2019.96	0.771
2030.6	0.769
2041.24	0.769
2051.89	0.771
2062.53	0.772
2073.17	0.772
2083.82	0.7726
2094.46	0.773
2105.1	0.7724
2115.75	0.772
2126.39	0.7742
2137.03	0.775
2147.68	0.771
2158.32	0.769
2168.96	0.769
2179.6	0.769
2190.25	0.768
2200.89	0.767
2211.53	0.767
2222.18	0.765
2232.82	0.764
2243.46	0.763
2254.11	0.763
2264.75	0.7617
2275.39	0.761
2286.03	0.76
2296.68	0.759
2307.32	0.757
2317.96	0.7553
2328.61	0.753
2339.25	0.7496
2349.89	0.746
2360.54	0.745
2371.18	0.7475
2381.82	0.749
2392.46	0.751
2403.11	0.749
2413.75	0.752
2424.39	0.7522
2435.04	0.749
2445.68	0.748
2456.32	0.7488
2466.97	0.749
2477.61	0.746
2488.25	0.7424
2498.9	0.742
2509.54	0.741
2520.18	0.741
2530.82	0.7401
2541.47	0.74
2552.11	0.74
2562.75	0.74
2573.4	0.738
2584.04	0.7342
2594.68	0.733
2605.33	0.733
2615.97	0.733
2626.61	0.732
2637.25	0.732
2647.9	0.73
2658.54	0.729
2669.18	0.728
2679.83	0.726
2690.47	0.725
2701.11	0.724
2711.76	0.724
2722.4	0.72
2733.04	0.72
2743.69	0.718
2754.33	0.717
2764.97	0.717
2775.61	0.716
2786.26	0.714
2796.9	0.713
2807.54	0.713
2818.19	0.71
2828.83	0.708
2839.47	0.705
2850.12	0.704
2860.76	0.702
2871.4	0.701
2882.04	0.701
2892.69	0.7
2903.33	0.6979
2913.97	0.696
2924.62	0.694
2935.26	0.693
2945.9	0.693
2956.55	0.693
2967.19	0.693
2977.83	0.693
2988.47	0.6928
2999.12	0.6917
3009.76	0.6898
3020.4	0.6888
3031.05	0.6876
3041.69	0.685
3052.33	0.684
3062.98	0.682
3073.62	0.681
3084.26	0.6796
3094.91	0.678
3105.55	0.677
3116.19	0.676
3126.83	0.6755
3137.48	0.674
3148.12	0.672
3158.76	0.67
3169.41	0.6687
3180.05	0.666
3190.69	0.663
3201.34	0.662
3211.98	0.661
3222.62	0.6587
3233.26	0.654
3243.91	0.653
3254.55	0.6523
3265.19	0.649
3275.84	0.6426
3286.48	0.641
3297.12	0.639
3307.77	0.6359
3318.41	0.6296
3329.05	0.6242
3339.69	0.6186
3350.34	0.6136
3360.98	0.6062
3371.62	0.5968
3382.27	0.5887
3392.91	0.5773
3403.55	0.5666
3414.2	0.5596
3424.84	0.5546
3435.48	0.5515
3446.13	0.548
3456.77	0.5465
3467.41	0.546
3478.05	0.5465
3488.7	0.547
3499.34	0.549
3509.98	0.5505
3520.63	0.553
3531.27	0.557
3541.91	0.5611
3552.56	0.5651
3563.2	0.5705
3573.84	0.5771
3584.48	0.5841
3595.13	0.5906
3605.77	0.5981
3616.41	0.6041
3627.06	0.6082
3637.7	0.6122
3648.34	0.6146
3658.99	0.6176
3669.63	0.618
3680.27	0.618
3690.92	0.618
3701.56	0.618
3712.2	0.617
3722.84	0.6157
3733.49	0.615
3744.13	0.614
3754.77	0.614
3765.42	0.613
3776.06	0.6117
3786.7	0.61
3797.35	0.609
3807.99	0.609
3818.63	0.6063
3829.27	0.605
3839.92	0.605
3850.56	0.605
3861.2	0.603
3871.85	0.603
3882.49	0.602
3893.13	0.6012
3903.78	0.601
3914.42	0.599
3925.06	0.598
3935.7	0.597
3946.35	0.595
3956.99	0.594
3967.63	0.594
3978.28	0.5914
3988.92	0.591
