Infrared Spectrum: SILICON DIOXIDE
Formula: Si O2
CAS: 7631-86-9
State: SOLID (MULL)
Class: COBLENTZ III
Instrument: PERKIN-ELMER 521 (GRATING)
Instrument parameters: FILTERS AT 3150, 2500, 2000, 1150, 700, 410. GRATING CHANGES: 2000, 630
Resolution: 2
Origin: DOW CORNING CORP.
1/CM	TRANSMITTANCE
244	0.7407
253	0.7511
262	0.7817
271	0.8138
280	0.8285
289	0.8437
298	0.8548
307	0.8634
316	0.8703
325	0.8718
334	0.8687
343	0.8651
352	0.8596
361	0.8517
370	0.842
379	0.8299
388	0.8057
397	0.7766
406	0.7473
415	0.705
424	0.67
433	0.6233
442	0.5619
451	0.5114
460	0.4617
469	0.4266
478	0.4206
487	0.4599
496	0.5261
505	0.6037
514	0.6898
523	0.7354
532	0.7598
541	0.7709
550	0.7751
559	0.7802
568	0.786
577	0.7913
586	0.7973
595	0.8043
604	0.811
613	0.8155
622	0.8002
631	0.7965
640	0.799
649	0.8033
658	0.8074
667	0.8126
676	0.8116
685	0.8086
694	0.8041
703	0.7975
712	0.7838
721	0.7656
730	0.7674
739	0.7786
748	0.7802
757	0.7776
766	0.7692
775	0.7492
784	0.7167
793	0.6831
802	0.6677
811	0.6626
820	0.6642
829	0.679
838	0.7013
847	0.7256
856	0.7496
865	0.7783
874	0.7905
883	0.7924
892	0.7909
901	0.7887
910	0.7862
919	0.782
928	0.7765
937	0.7694
946	0.7595
955	0.7495
964	0.7331
973	0.7086
982	0.6945
991	0.6739
1000	0.6198
1009	0.5232
1018	0.4428
1027	0.389
1036	0.3284
1045	0.2642
1054	0.225
1063	0.1863
1072	0.159
1081	0.1379
1090	0.1219
1099	0.1129
1108	0.1095
1117	0.1188
1126	0.141
1135	0.1683
1144	0.1873
1153	0.2058
1162	0.2172
1171	0.2375
1180	0.2639
1189	0.2838
1198	0.3052
1207	0.3285
1216	0.3586
1225	0.3972
1234	0.449
1243	0.5092
1252	0.5774
1261	0.6388
1270	0.6865
1279	0.7217
1288	0.7467
1297	0.751
1306	0.7585
1315	0.7683
1324	0.7735
1333	0.77
1342	0.7624
1351	0.7586
1360	0.7404
1369	0.6667
1378	0.6235
1387	0.7795
1396	0.8088
1405	0.8103
1414	0.8018
1423	0.7945
1432	0.7451
1441	0.6432
1450	0.5423
1459	0.4803
1468	0.5263
1477	0.7535
1486	0.8068
1495	0.8227
1504	0.8299
1513	0.8327
1522	0.8339
1531	0.8346
1540	0.8349
1549	0.8348
1558	0.835
1567	0.8348
1576	0.8344
1585	0.8337
1594	0.8328
1603	0.8319
1612	0.8311
1621	0.8304
1630	0.8301
1639	0.8305
1648	0.8307
1657	0.8305
1666	0.8304
1675	0.8306
1684	0.8308
1693	0.8343
1702	0.8333
1711	0.8351
1720	0.8357
1729	0.8363
1738	0.8373
1747	0.8417
1756	0.8423
1765	0.8419
1774	0.8417
1783	0.8414
1792	0.8408
1801	0.8402
1810	0.8395
1819	0.8384
1828	0.8385
1837	0.8395
1846	0.8356
1855	0.8342
1864	0.8333
1873	0.8329
1882	0.8327
1891	0.8327
1900	0.8332
1909	0.8337
1918	0.834
1927	0.8342
1936	0.8357
1945	0.8374
1954	0.8381
1963	0.8373
1972	0.8347
1981	0.8336
1990	0.8355
1999	0.8432
2008	0.8405
2017	0.8388
2026	0.838
2035	0.8385
2044	0.8391
2053	0.8411
2062	0.8437
2071	0.8431
2080	0.8426
2089	0.8416
2098	0.8406
2107	0.8406
2116	0.8407
2125	0.8391
2134	0.8376
2143	0.836
2152	0.8348
2161	0.8337
2170	0.8326
2179	0.8314
2188	0.8303
2197	0.8292
2206	0.8282
2215	0.8276
2224	0.827
2233	0.8266
2242	0.8265
2251	0.8263
2260	0.8264
2269	0.8268
2278	0.8275
2287	0.8286
2296	0.8298
2305	0.831
2314	0.8322
2323	0.8334
2332	0.8347
2341	0.8363
2350	0.8356
2359	0.8318
2368	0.8276
2377	0.8236
2386	0.8222
2395	0.8213
2404	0.8222
2413	0.8226
2422	0.8222
2431	0.8213
2440	0.8201
2449	0.8188
2458	0.8171
2467	0.8153
2476	0.8138
2485	0.8128
2494	0.8119
2503	0.811
2512	0.8101
2521	0.8091
2530	0.8081
2539	0.8066
2548	0.8051
2557	0.8035
2566	0.8019
2575	0.8003
2584	0.7987
2593	0.7968
2602	0.7948
2611	0.7928
2620	0.7906
2629	0.7882
2638	0.786
2647	0.7838
2656	0.7822
2665	0.7806
2674	0.779
2683	0.7776
2692	0.777
2701	0.7764
2710	0.7758
2719	0.7755
2728	0.7755
2737	0.7755
2746	0.7765
2755	0.7775
2764	0.7752
2773	0.7713
2782	0.7659
2791	0.7543
2800	0.7396
2809	0.7229
2818	0.7067
2827	0.6745
2836	0.5509
2845	0.3725
2854	0.173
2863	0.2022
2872	0.2306
2881	0.2974
2890	0.2745
2899	0.209
2908	0.1435
2917	0.0777
2926	0.0361
2935	0.0712
2944	0.1397
2953	0.1344
2962	0.1432
2971	0.2835
2980	0.4014
2989	0.6263
2998	0.6811
3007	0.7365
3016	0.7505
3025	0.7601
3034	0.7689
3043	0.7723
3052	0.7758
3061	0.7779
3070	0.7769
3079	0.7798
3088	0.7797
3097	0.7786
3106	0.7775
3115	0.7803
3124	0.7848
3133	0.7819
3142	0.7782
3151	0.7775
3160	0.7769
3169	0.7764
3178	0.7769
3187	0.7773
3196	0.7778
3205	0.7783
3214	0.7789
3223	0.7794
3232	0.78
3241	0.7791
3250	0.7783
3259	0.7774
3268	0.776
3277	0.7744
3286	0.7728
3295	0.7712
3304	0.7697
3313	0.7682
3322	0.7668
3331	0.7653
3340	0.764
3349	0.7626
3358	0.7613
3367	0.7601
3376	0.7595
3385	0.7588
3394	0.7582
3403	0.7575
3412	0.7578
3421	0.7584
3430	0.759
3439	0.7596
3448	0.7604
3457	0.7614
3466	0.7626
3475	0.7636
3484	0.7648
3493	0.7661
3502	0.7678
3511	0.7695
3520	0.7711
3529	0.7728
3538	0.7739
3547	0.7747
3556	0.7756
3565	0.7764
3574	0.7771
3583	0.7771
3592	0.7772
3601	0.7773
3610	0.7774
3619	0.7775
3628	0.7776
3637	0.7777
3646	0.7776
3655	0.7767
3664	0.7757
3673	0.7748
3682	0.7738
3691	0.7729
3700	0.7757
3709	0.7819
3718	0.7878
3727	0.79
3736	0.7903
3745	0.79
3754	0.7896
3763	0.7894
3772	0.7891
3781	0.7889
3790	0.7887
3799	0.7889
