Infrared Spectrum: Methanol, triphenyl-,
Formula: C19 H16 O
CAS: 76-84-6
State: SOLID (1 mg / 300 mg KBr DISC)
Class: COBLENTZ II
Instrument: PERKIN-ELMER 180 (GRATING)
Instrument parameters: GRATINGS: 2000, 1000, 500, 250 CM^-^1; FILTER CHANGE: 2970, 2000, 1485, 1000, 743, 500, 372, 250, 186 CM^-^1.
Sampling: TRANSMISSION
Resolution: 2
Origin: K. K. DEB-NCI FREDERICK CANCER RESEARCH CENTER
1/CM	TRANSMITTANCE
407	0.8151
416	0.8266
425	0.8227
434	0.8107
443	0.779
452	0.7388
461	0.779
470	0.7914
479	0.7865
488	0.7807
497	0.7718
506	0.7582
515	0.7528
524	0.7718
533	0.7975
542	0.7972
551	0.795
560	0.7891
569	0.7796
578	0.7447
587	0.6858
596	0.7824
605	0.8005
614	0.8093
623	0.7772
632	0.7562
641	0.2709
650	0.7139
659	0.8121
668	0.79
677	0.7467
686	0.6904
695	0.4432
704	0.1195
713	0.6005
722	0.851
731	0.8565
740	0.829
749	0.7391
758	0.3989
767	0.2845
776	0.6601
785	0.888
794	0.9051
803	0.9042
812	0.9028
821	0.901
830	0.8973
839	0.8835
848	0.8664
857	0.8728
866	0.8746
875	0.8535
884	0.7975
893	0.6304
902	0.6656
911	0.8021
920	0.7171
929	0.8126
938	0.7314
947	0.8333
956	0.8611
965	0.8454
974	0.8131
983	0.7985
992	0.7305
1001	0.4767
1010	0.4608
1019	0.4627
1028	0.7038
1037	0.5773
1046	0.8423
1055	0.8848
1064	0.8849
1073	0.8741
1082	0.8128
1091	0.8559
1100	0.8728
1109	0.8656
1118	0.8565
1127	0.8432
1136	0.8095
1145	0.7525
1154	0.5474
1163	0.4852
1172	0.683
1181	0.7357
1190	0.7519
1199	0.7564
1208	0.7403
1217	0.7925
1226	0.8374
1235	0.85
1244	0.8452
1253	0.8371
1262	0.8228
1271	0.7861
1280	0.7504
1289	0.7805
1298	0.748
1307	0.7128
1316	0.7141
1325	0.6605
1334	0.5925
1343	0.6648
1352	0.7495
1361	0.8058
1370	0.8244
1379	0.8244
1388	0.8154
1397	0.8262
1406	0.838
1415	0.8418
1424	0.8305
1433	0.785
1442	0.6034
1451	0.2214
1460	0.7974
1469	0.8497
1478	0.8314
1487	0.6546
1496	0.5368
1505	0.7714
1514	0.862
1523	0.8821
1532	0.8844
1541	0.879
1550	0.8712
1559	0.8688
1568	0.8718
1577	0.8609
1586	0.8096
1595	0.7811
1604	0.7341
1613	0.8395
1622	0.8439
1631	0.8473
1640	0.853
1649	0.8537
1658	0.8525
1667	0.8525
1676	0.8537
1685	0.8525
1694	0.8494
1703	0.8446
1712	0.8466
1721	0.8487
1730	0.8446
1739	0.8431
1748	0.8466
1757	0.8477
1766	0.8465
1775	0.8449
1784	0.8438
1793	0.8421
1802	0.8377
1811	0.8324
1820	0.8324
1829	0.8387
1838	0.8456
1847	0.8497
1856	0.8412
1865	0.833
1874	0.829
1883	0.827
1892	0.8312
1901	0.8296
1910	0.8309
1919	0.8344
1928	0.8375
1937	0.8381
1946	0.8267
1955	0.806
1964	0.8111
1973	0.8271
1982	0.8382
1991	0.8446
2000	0.851
2009	0.8491
2018	0.8485
2027	0.8478
2036	0.8471
2045	0.8465
2054	0.8459
2063	0.8458
2072	0.846
2081	0.8459
2090	0.8458
2099	0.8456
2108	0.8451
2117	0.8442
2126	0.8432
2135	0.8423
2144	0.8413
2153	0.8399
2162	0.8386
2171	0.8371
2180	0.8359
2189	0.8344
2198	0.8336
2207	0.8327
2216	0.8318
2225	0.8311
2234	0.8303
2243	0.8293
2252	0.8283
2261	0.8273
2270	0.8263
2279	0.8253
2288	0.8243
2297	0.8236
2306	0.823
2315	0.8224
2324	0.8215
2333	0.8193
2342	0.8162
2351	0.8165
2360	0.8171
2369	0.8171
2378	0.8174
2387	0.8168
2396	0.816
2405	0.8146
2414	0.8132
2423	0.8117
2432	0.8101
2441	0.8087
2450	0.8074
2459	0.8058
2468	0.8049
2477	0.8041
2486	0.8033
2495	0.8025
2504	0.8021
2513	0.8022
2522	0.8024
2531	0.8024
2540	0.8008
2549	0.799
2558	0.7972
2567	0.7962
2576	0.7953
2585	0.7942
2594	0.793
2603	0.7915
2612	0.7901
2621	0.7887
2630	0.7871
2639	0.7858
2648	0.7847
2657	0.7836
2666	0.7828
2675	0.7825
2684	0.7821
2693	0.7818
2702	0.7817
2711	0.7815
2720	0.7807
2729	0.7797
2738	0.7787
2747	0.7775
2756	0.7765
2765	0.7754
2774	0.7743
2783	0.7731
2792	0.7718
2801	0.7704
2810	0.7689
2819	0.7674
2828	0.7656
2837	0.763
2846	0.7605
2855	0.7583
2864	0.7568
2873	0.7551
2882	0.7526
2891	0.7495
2900	0.7464
2909	0.7435
2918	0.7415
2927	0.7397
2936	0.7407
2945	0.7412
2954	0.7415
2963	0.7367
2972	0.7318
2981	0.7258
2990	0.7182
2999	0.7044
3008	0.6841
3017	0.6618
3026	0.6193
3035	0.6091
3044	0.6444
3053	0.6352
3062	0.578
3071	0.5793
3080	0.6701
3089	0.6601
3098	0.694
3107	0.7171
3116	0.7288
3125	0.7368
3134	0.7362
3143	0.734
3152	0.7308
3161	0.7271
3170	0.7297
3179	0.7291
3188	0.7275
3197	0.7258
3206	0.7241
3215	0.7221
3224	0.72
3233	0.7175
3242	0.7141
3251	0.7107
3260	0.7065
3269	0.7019
3278	0.6972
3287	0.6918
3296	0.6864
3305	0.6798
3314	0.6717
3323	0.6628
3332	0.6531
3341	0.6433
3350	0.6325
3359	0.6216
3368	0.609
3377	0.5958
3386	0.5828
3395	0.57
3404	0.554
3413	0.5342
3422	0.5143
3431	0.4965
3440	0.4812
3449	0.4612
3458	0.4327
3467	0.3964
3476	0.3978
3485	0.4039
3494	0.4217
3503	0.4459
3512	0.4934
3521	0.5416
3530	0.5795
3539	0.6141
3548	0.6403
3557	0.6594
3566	0.6754
3575	0.6911
3584	0.7062
3593	0.7191
3602	0.7258
3611	0.7298
3620	0.7311
3629	0.7321
3638	0.7311
3647	0.7301
3656	0.7291
3665	0.7291
3674	0.73
3683	0.7268
3692	0.7254
3701	0.7243
3710	0.7237
3719	0.723
3728	0.7225
3737	0.7221
3746	0.7218
3755	0.7215
3764	0.7211
3773	0.7201
3782	0.7192
3791	0.7181
