Infrared Spectrum: 35% Nitric acid in water
Formula: H N O 3 in H 2 O
CAS: 7697-37-2
State: liquid
Instrument: Bruker Tensor 37 FTIR
Resolution: 0.48208331
Origin: Pacific Northwest National Laboratory Under IARPA Contract
1/cm	dispersion index
4998.37	1.32302
4987.53	1.3252
4976.68	1.3251
4965.83	1.32513
4954.99	1.32474
4944.14	1.32454
4933.29	1.32421
4922.45	1.32389
4911.6	1.32355
4900.76	1.32311
4889.91	1.32254
4879.06	1.32226
4868.22	1.32165
4857.37	1.3212
4846.52	1.32072
4835.68	1.31996
4824.83	1.31963
4813.99	1.31889
4803.14	1.31852
4792.29	1.31758
4781.45	1.31727
4770.6	1.31647
4759.75	1.31559
4748.91	1.31491
4738.06	1.31424
4727.21	1.31343
4716.37	1.31261
4705.52	1.31166
4694.68	1.31083
4683.83	1.30997
4672.98	1.30898
4662.14	1.30794
4651.29	1.30704
4640.44	1.30592
4629.6	1.30469
4618.75	1.30363
4607.91	1.30221
4597.06	1.30103
4586.21	1.29969
4575.37	1.29817
4564.52	1.29666
4553.67	1.29508
4542.83	1.29351
4531.98	1.29177
4521.14	1.28997
4510.29	1.28813
4499.44	1.28612
4488.6	1.28404
4477.75	1.28184
4466.9	1.27927
4456.06	1.27652
4445.21	1.27339
4434.37	1.26991
4423.52	1.26589
4412.67	1.26142
4401.83	1.25615
4390.98	1.25049
4380.13	1.24378
4369.29	1.2353
4358.44	1.2248
4347.6	1.21155
4336.75	1.19445
4325.9	1.17946
4315.06	1.17323
4304.21	1.17586
4293.36	1.18383
4282.52	1.19319
4271.67	1.20323
4260.83	1.21388
4249.98	1.22535
4239.13	1.23819
4228.29	1.25253
4217.44	1.26789
4206.59	1.28401
4195.75	1.30015
4184.9	1.31515
4174.06	1.32796
4163.21	1.33794
4152.36	1.34582
4141.52	1.35296
4130.67	1.35956
4119.82	1.36737
4108.98	1.37502
4098.13	1.38142
4087.29	1.38618
4076.44	1.38929
4065.59	1.39075
4054.75	1.3916
4043.9	1.39159
4033.05	1.39105
4022.21	1.39023
4011.36	1.38905
4000.51	1.38782
3989.67	1.38671
3978.82	1.38529
3967.98	1.38413
3957.13	1.38248
3946.28	1.38129
3935.44	1.38002
3924.59	1.37866
3913.74	1.37733
3902.9	1.37609
3892.05	1.37489
3881.21	1.37394
3870.36	1.37294
3859.51	1.37193
3848.67	1.37074
3837.82	1.36948
3826.97	1.36822
3816.13	1.36662
3805.28	1.365
3794.44	1.36329
3783.59	1.3615
3772.74	1.35955
3761.9	1.35763
3751.05	1.35571
3740.2	1.35382
3729.36	1.35234
3718.51	1.35114
3707.67	1.34985
3696.82	1.34867
3685.97	1.3479
3675.13	1.34672
3664.28	1.34573
3653.43	1.34461
3642.59	1.34346
3631.74	1.34235
3620.9	1.34114
3610.05	1.33986
3599.2	1.33856
3588.36	1.33709
3577.51	1.33574
3566.66	1.33433
3555.82	1.33285
3544.97	1.33133
3534.13	1.32971
3523.28	1.32795
3512.43	1.3259
3501.59	1.32362
3490.74	1.3208
3479.89	1.31773
3469.05	1.31447
3458.2	1.3113
3447.36	1.30862
3436.51	1.30644
3425.66	1.30481
3414.82	1.304
3403.97	1.30322
3393.12	1.30356
3382.28	1.30618
3371.43	1.31073
3360.59	1.31297
3349.74	1.31203
3338.89	1.31214
3328.05	1.32684
3317.2	1.36262
3306.35	1.39631
3295.51	1.38871
3284.66	1.3675
3273.82	1.34425
3262.97	1.3223
3252.12	1.2981
3241.28	1.27339
3230.43	1.25528
3219.58	1.26416
3208.74	1.30275
3197.89	1.35069
3187.04	1.36907
3176.2	1.38642
3165.35	1.44509
3154.51	1.50187
3143.66	1.5341
3132.81	1.52871
3121.97	1.5171
3111.12	1.50881
3100.27	1.50408
3089.43	1.50147
3078.58	1.50016
3067.74	1.50055
3056.89	1.50119
3046.04	1.50189
3035.2	1.50017
3024.35	1.4915
3013.5	1.50346
3002.66	1.50228
2991.81	1.49612
2980.97	1.49824
2970.12	1.51008
2959.27	1.51012
2948.43	1.50984
2937.58	1.51266
2926.73	1.51789
2915.89	1.52575
2905.04	1.56427
2894.2	1.57219
2883.35	1.58956
2872.5	1.60708
2861.66	1.63278
2850.81	1.67754
2839.96	0.0120755
2829.12	0.00990113
2818.27	0.00962472
2807.43	0.00807123
2796.58	0.00847866
2785.73	0.00772819
2774.89	0.00721405
2764.04	0.00679518
2753.19	0.00634912
2742.35	0.00588818
2731.5	0.00607656
2720.66	0.00556585
2709.81	0.0054244
2698.96	0.00509276
2688.12	0.00408648
2677.27	0.005505
2666.42	0.00377705
2655.58	0.00475951
2644.73	0.00323428
2633.89	0.004738
2623.04	0.0028472
2612.19	0.00279871
2601.35	0.00349973
2590.5	0.0032589
2579.65	0.00286737
2568.81	0.00306533
2557.96	0.00287208
2547.12	0.00336626
2536.27	0.00316535
2525.42	0.00288707
2514.58	0.00297997
2503.73	0.00369806
2492.88	0.00307518
2482.04	0.00324729
2471.19	0.00382575
2460.34	0.00316246
2449.5	0.00436172
2438.65	0.00442396
2427.81	0.00468132
2416.96	0.00541579
2406.11	0.00623625
2395.27	0.00717081
2384.42	0.0078706
2373.57	0.00907515
2362.73	0.0101734
2351.88	0.010768
2341.04	0.0117771
2330.19	0.0122673
2319.34	0.0122108
2308.5	0.0124081
2297.65	0.0122485
2286.8	0.0122313
2275.96	0.0123861
2265.11	0.0128623
2254.27	0.0134554
2243.42	0.0169568
2232.57	0.0204641
2221.73	0.0238329
2210.88	0.0307814
2200.03	0.0439104
2189.19	0.0726784
2178.34	0.143411
2167.5	0.262468
2156.65	0.398693
2145.8	0.521103
2134.96	0.618317
2124.11	0.697071
2113.26	0.765848
2102.42	0.829789
2091.57	0.885247
2080.73	0.935601
2069.88	0.975254
2059.03	1.00232
2048.19	1.01394
2037.34	1.00984
2026.49	0.988378
2015.65	0.958686
2004.8	0.926951
1993.96	0.899289
1983.11	0.873941
1972.26	0.852766
1961.42	0.826297
1950.57	0.791536
1939.72	0.750148
1928.88	0.70665
1918.03	0.664603
1907.19	0.625944
1896.34	0.590563
1885.49	0.558434
1874.65	0.530816
1863.8	0.505695
1852.95	0.484016
1842.11	0.46526
1831.26	0.447776
1820.42	0.431748
1809.57	0.417208
1798.72	0.405542
1787.88	0.395
1777.03	0.384008
1766.18	0.374751
1755.34	0.366865
1744.49	0.359892
1733.65	0.353297
1722.8	0.347062
1711.95	0.340551
1701.11	0.334109
1690.26	0.327086
1679.41	0.321035
1668.57	0.314563
1657.72	0.309518
1646.87	0.305384
1636.03	0.301725
1625.18	0.298888
1614.34	0.297349
1603.49	0.297373
1592.64	0.299177
1581.8	0.30323
1570.95	0.307638
1560.1	0.310555
1549.26	0.314221
1538.41	0.318695
1527.57	0.321012
1516.72	0.324522
1505.87	0.327282
1495.03	0.33142
1484.18	0.334603
1473.33	0.338068
1462.49	0.342033
1451.64	0.346012
1440.8	0.350943
1429.95	0.356118
1419.1	0.361691
1408.26	0.367602
1397.41	0.373717
1386.56	0.380963
1375.72	0.387746
1364.87	0.39443
1354.03	0.401626
1343.18	0.410897
1332.33	0.421853
1321.49	0.436898
1310.64	0.45592
1299.79	0.479306
1288.95	0.507032
1278.1	0.538512
1267.26	0.569006
1256.41	0.60924
1245.56	0.647779
1234.72	0.693
1223.87	0.736574
1213.02	0.759911
1202.18	0.786617
1191.33	0.835132
1180.49	0.933346
1169.64	1.0397
1158.79	1.03199
1147.95	0.808688
1137.1	0.653383
1126.25	0.592104
1115.41	0.587031
1104.56	0.621386
1093.72	0.697313
1082.87	0.852414
1072.02	1.12029
1061.18	1.41079
1050.33	1.58
1039.48	1.56628
1028.64	1.59246
1017.79	1.755
1006.95	1.75931
996.099	1.56922
985.253	1.28022
974.406	1.10498
963.56	1.01891
952.714	0.973498
941.867	0.94265
931.021	0.919196
920.175	0.901987
909.329	0.882232
898.482	0.861527
887.636	0.834192
876.79	0.807316
865.944	0.862131
855.097	0.821768
844.251	0.795745
833.405	0.821998
822.559	0.87027
811.712	0.838802
800.866	0.833503
790.02	0.856007
779.173	0.888804
768.327	0.929475
757.481	1.075
746.635	0.937956
735.788	0.931686
724.942	0.890667
714.096	0.882917
703.25	0.840889
692.403	0.79508
