Infrared Spectrum: ANILINE, 4-TERT-BUTYL-
Formula: C10 H15 N
CAS: 769-92-6
State: LIQUID (NEAT)
Boiling point: 120 C
Class: COBLENTZ
Instrument: BECKMAN IR-4 (HYBRID PRISM-GRATING)
Instrument parameters: NaCl PRISM
Sampling: TRANSMISSION
Path length: CAPILLARY
Resolution: 4
Origin: MONSANTO (J. FREEMAN)
MICROMETERS	TRANSMITTANCE
9.995	0.828
10.032	0.826
10.069	0.819
10.106	0.824
10.143	0.901
10.18	0.954
10.217	0.958
10.254	0.958
10.291	0.956
10.328	0.954
10.365	0.953
10.4019	0.951
10.4389	0.95
10.4759	0.948
10.5129	0.945
10.5499	0.941
10.5869	0.937
10.6239	0.933
10.6609	0.925
10.6979	0.918
10.7349	0.914
10.7719	0.908
10.8089	0.903
10.8459	0.896
10.8829	0.89
10.9199	0.886
10.9569	0.884
10.9939	0.883
11.0309	0.88
11.0679	0.881
11.1049	0.892
11.1419	0.908
11.1789	0.916
11.2158	0.917
11.2528	0.911
11.2898	0.905
11.3268	0.897
11.3638	0.89
11.4008	0.88
11.4378	0.871
11.4748	0.861
11.5118	0.845
11.5488	0.834
11.5858	0.821
11.6228	0.804
11.6598	0.783
11.6968	0.761
11.7338	0.733
11.7708	0.704
11.8078	0.676
11.8448	0.639
11.8818	0.602
11.9188	0.579
11.9558	0.554
11.9927	0.508
12.0297	0.417
12.0667	0.328
12.1037	0.232
12.1407	0.147
12.1777	0.1
12.2147	0.08
12.2517	0.081
12.2887	0.092
12.3257	0.116
12.3627	0.182
12.3997	0.268
12.4367	0.358
12.4737	0.448
12.5107	0.571
12.5477	0.635
12.5847	0.701
12.6217	0.722
12.6587	0.739
12.6957	0.742
12.7327	0.737
12.7697	0.731
12.8066	0.725
12.8436	0.721
12.8806	0.709
12.9176	0.703
12.9546	0.697
12.9916	0.688
13.0286	0.678
13.0656	0.666
13.1026	0.655
13.1396	0.652
13.1766	0.641
13.2136	0.632
13.2506	0.624
13.2876	0.616
13.3246	0.609
13.3616	0.6
13.3986	0.591
13.4356	0.585
13.4726	0.577
13.5096	0.57
13.5466	0.564
13.5836	0.559
13.6205	0.554
13.6575	0.553
13.6945	0.553
13.7315	0.555
13.7685	0.559
13.8055	0.575
13.8425	0.611
13.8795	0.639
13.9165	0.639
13.9535	0.626
13.9905	0.605
14.0275	0.582
14.0645	0.572
14.1015	0.562
14.1385	0.554
14.1755	0.549
14.2125	0.543
14.2495	0.54
14.2865	0.536
14.3235	0.534
14.3605	0.532
14.3974	0.532
14.4344	0.532
14.4714	0.534
14.5084	0.535
14.5454	0.536
14.5824	0.534
14.6194	0.536
14.6564	0.54
14.6934	0.545
14.7304	0.549
14.7674	0.555
14.8044	0.559
14.8414	0.563
14.8784	0.572
14.9154	0.577
14.9524	0.582
14.9894	0.587
15.0264	0.59
15.0634	0.593
15.1004	0.597
15.1374	0.597
15.1744	0.581
15.2113	0.532
15.2483	0.5
15.2853	0.458
15.3223	0.435
15.3593	0.428
15.3963	0.425
15.4333	0.427
15.4703	0.429
15.5073	0.431
15.5443	0.433
15.5813	0.435
15.6183	0.437
15.6553	0.442
15.6923	0.448
15.7293	0.452
15.7663	0.459
15.8033	0.461
15.8403	0.463
15.8773	0.468
15.9143	0.476
15.9513	0.482
15.9882	0.485
16.0252	0.485
16.0622	0.486
16.0992	0.493
16.1362	0.497
16.1732	0.501
16.2102	0.502
16.2472	0.506
16.2842	0.509
16.3212	0.519
16.3582	0.523
16.3952	0.523
16.4322	0.523
16.4692	0.525
16.5062	0.529
16.5432	0.532
16.5802	0.537
16.6172	0.541
16.6542	0.543
16.6912	0.545
16.7282	0.545
16.7652	0.551
16.8021	0.559
16.8391	0.562
16.8761	0.565
16.9131	0.566
16.9501	0.57
16.9871	0.575
17.0241	0.582
17.0611	0.582
17.0981	0.585
17.1351	0.588
17.1721	0.593
17.2091	0.597
17.2461	0.599
17.2831	0.602
17.3201	0.605
17.3571	0.614
17.3941	0.616
17.4311	0.618
17.4681	0.622
17.5051	0.626
17.5421	0.63
17.579	0.631
17.616	0.633
17.653	0.631
17.69	0.627
17.727	0.625
17.764	0.619
17.801	0.611
17.838	0.599
17.875	0.59
17.912	0.57
17.949	0.543
17.986	0.503
18.023	0.458
18.06	0.409
18.097	0.34
18.134	0.268
18.171	0.208
18.208	0.149
18.245	0.11
18.282	0.081
18.319	0.072
18.356	0.069
18.3929	0.074
18.4299	0.083
18.4669	0.098
18.5039	0.113
18.5409	0.149
18.5779	0.199
18.6149	0.24
18.6519	0.278
18.6889	0.315
18.7259	0.35
18.7629	0.379
18.7999	0.411
18.8369	0.433
18.8739	0.45
18.9109	0.468
18.9479	0.491
18.9849	0.502
19.0219	0.518
19.0589	0.535
19.0959	0.551
19.1329	0.564
19.1699	0.575
19.2068	0.58
19.2438	0.585
19.2808	0.59
19.3178	0.604
19.3548	0.613
19.3918	0.625
19.4288	0.635
19.4658	0.645
19.5028	0.649
19.5398	0.645
19.5768	0.638
19.6138	0.632
19.6508	0.624
19.6878	0.613
19.7248	0.605
19.7618	0.591
19.7988	0.579
19.8358	0.574
19.8728	0.572
19.9098	0.581
19.9468	0.602
19.9837	0.619
20.0207	0.639
20.0577	0.648
20.0947	0.653
20.1317	0.658
20.1687	0.664
20.2057	0.672
20.2427	0.675
20.2797	0.677
20.3167	0.683
20.3537	0.695
20.3907	0.705
20.4277	0.708
20.4647	0.709
20.5017	0.706
20.5387	0.706
20.5757	0.706
20.6127	0.711
20.6497	0.718
20.6867	0.727
20.7237	0.734
20.7607	0.738
20.7976	0.739
20.8346	0.737
20.8716	0.734
20.9086	0.731
20.9456	0.731
20.9826	0.728
21.0196	0.728
21.0566	0.728
21.0936	0.728
21.1306	0.732
21.1676	0.738
21.2046	0.753
21.2416	0.757
21.2786	0.76
21.3156	0.757
21.3526	0.755
21.3896	0.754
21.4266	0.757
21.4636	0.76
21.5006	0.759
21.5376	0.754
21.5745	0.745
21.6115	0.74
21.6485	0.739
21.6855	0.742
21.7225	0.745
21.7595	0.748
21.7965	0.751
21.8335	0.76
21.8705	0.768
21.9075	0.778
21.9445	0.781
21.9815	0.779
22.0185	0.771
22.0555	0.745
22.0925	0.734
22.1295	0.733
22.1665	0.733
22.2035	0.731
22.2405	0.723
22.2775	0.706
22.3145	0.695
22.3515	0.686
22.3884	0.68
22.4254	0.675
22.4624	0.67
22.4994	0.665
22.5364	0.658
22.5734	0.645
22.6104	0.642
22.6474	0.644
22.6844	0.642
22.7214	0.627
22.7584	0.618
22.7954	0.604
22.8324	0.594
22.8694	0.592
22.9064	0.591
22.9434	0.591
22.9804	0.592
23.0174	0.596
