Infrared Spectrum: 2,3,5,6-Tetrafluorophenol
Formula: C6 H2 F4 O
CAS: 769-39-1
State: LIQUID (NEAT); KBr PLATES
Melting point: 27 C
Boiling point: 142 C
Class: COBLENTZ II
Instrument: DOW KBr FOREPRISM-GRATING
Instrument parameters: BLAZED AT 3.5, 12.0, 20.0 MICRON AND CHANGED AT 5.0, 7.5, 14.9 MICRON
Sampling: TRANSMISSION
Path length: CAPILLARY
Resolution: 2
Origin: DOW CHEMICAL COMPANY
1/CM	TRANSMITTANCE
3800	0.9966
3791	0.9948
3782	0.9925
3773	0.9903
3764	0.988
3755	0.9858
3746	0.9837
3737	0.9808
3728	0.9765
3719	0.9668
3710	0.9482
3701	0.9221
3692	0.8945
3683	0.874
3674	0.8639
3665	0.86
3656	0.858
3647	0.8587
3638	0.864
3629	0.8675
3620	0.8567
3611	0.8388
3602	0.8011
3593	0.6924
3584	0.5959
3575	0.5804
3566	0.6102
3557	0.6525
3548	0.6815
3539	0.7012
3530	0.7068
3521	0.7069
3512	0.7022
3503	0.6937
3494	0.6837
3485	0.6721
3476	0.6603
3467	0.6503
3458	0.6418
3449	0.6342
3440	0.6269
3431	0.6196
3422	0.613
3413	0.6084
3404	0.6042
3395	0.6009
3386	0.5986
3377	0.5982
3368	0.598
3359	0.5995
3350	0.601
3341	0.6029
3332	0.6051
3323	0.6073
3314	0.6098
3305	0.6122
3296	0.6148
3287	0.6174
3278	0.6207
3269	0.6239
3260	0.6272
3251	0.6304
3242	0.6334
3233	0.6362
3224	0.639
3215	0.6411
3206	0.6435
3197	0.6458
3188	0.6484
3179	0.651
3170	0.6536
3161	0.6565
3152	0.6591
3143	0.661
3134	0.6619
3125	0.661
3116	0.6548
3107	0.6345
3098	0.6057
3089	0.6531
3080	0.686
3071	0.703
3062	0.7162
3053	0.7295
3044	0.7417
3035	0.7503
3026	0.7595
3017	0.7638
3008	0.7671
2999	0.7631
2990	0.7521
2981	0.7468
2972	0.7557
2963	0.7815
2954	0.7956
2945	0.8001
2936	0.8044
2927	0.8087
2918	0.8138
2909	0.8189
2900	0.8244
2891	0.8298
2882	0.8353
2873	0.8414
2864	0.8475
2855	0.854
2846	0.8613
2837	0.8686
2828	0.8748
2819	0.8806
2810	0.8856
2801	0.889
2792	0.8892
2783	0.8885
2774	0.8868
2765	0.883
2756	0.8781
2747	0.8735
2738	0.8703
2729	0.8685
2720	0.8673
2711	0.8675
2702	0.8678
2693	0.8687
2684	0.8704
2675	0.8721
2666	0.8734
2657	0.8739
2648	0.8744
2639	0.8792
2630	0.8809
2621	0.8812
2612	0.8814
2603	0.8843
2594	0.8886
2585	0.8911
2576	0.8918
2567	0.8944
2558	0.9058
2549	0.9137
2540	0.9177
2531	0.9201
2522	0.9191
2513	0.9198
2504	0.9288
2495	0.9374
2486	0.9414
2477	0.9427
2468	0.9478
2459	0.9525
2450	0.9558
2441	0.9582
2432	0.9602
2423	0.9638
2414	0.9675
2405	0.9695
2396	0.9658
2387	0.9661
2378	0.972
2369	0.9796
2360	0.9848
2351	0.9834
2342	0.9767
2333	0.9749
2324	0.9793
2315	0.9703
2306	0.9834
2297	0.9851
2288	0.9849
2279	0.9848
2270	0.9846
2261	0.9821
2252	0.9742
2243	0.974
2234	0.9777
2225	0.9805
2216	0.979
2207	0.9773
2198	0.9778
2189	0.9791
2180	0.9818
2171	0.9846
2162	0.9868
2153	0.9895
2144	0.9928
2135	0.9939
2126	0.9915
2117	0.9895
2108	0.9924
2099	0.9933
2090	0.9913
2081	0.9924
2072	0.9935
2063	0.9942
2054	0.9944
2045	0.9945
2036	0.9943
2027	0.9942
2018	0.995
2009	0.9957
2000	0.996
1991	0.9854
1982	0.9875
1973	0.9899
1964	0.9918
1955	0.9921
1946	0.9917
1937	0.9917
1928	0.9921
1919	0.9923
1910	0.9925
1901	0.9932
1892	0.9938
1883	0.9939
1874	0.9956
1865	0.9959
1856	0.9962
1847	0.9924
1838	0.9797
1829	0.9704
1820	0.9762
1811	0.9834
1802	0.9868
1793	0.9849
1784	0.9845
1775	0.98
1766	0.975
1757	0.9702
1748	0.9665
1739	0.963
1730	0.958
1721	0.9453
1712	0.9016
1703	0.8444
1694	0.8224
1685	0.8242
1676	0.8608
1667	0.8394
1658	0.591
1649	0.4943
1640	0.5488
1631	0.6246
1622	0.6983
1613	0.7682
1604	0.838
1595	0.8778
1586	0.8858
1577	0.874
1568	0.822
1559	0.7248
1550	0.5278
1541	0.0564
1532	0.0174
1523	0.206
1514	0.3427
1505	0.0502
1496	0.2676
1487	0.6368
1478	0.7301
1469	0.7742
1460	0.8384
1451	0.8699
1442	0.8723
1433	0.8509
1424	0.8258
1415	0.7871
1406	0.5762
1397	0.7458
1388	0.7183
1379	0.6388
1370	0.5942
1361	0.5735
1352	0.5929
1343	0.5841
1334	0.5715
1325	0.5497
1316	0.6528
1307	0.7431
1298	0.7899
1289	0.8378
1280	0.628
1271	0.6826
1262	0.6965
1253	0.6302
1244	0.5518
1235	0.573
1226	0.7119
1217	0.8006
1208	0.842
1199	0.8561
1190	0.8545
1181	0.8068
1172	0.2127
1163	0.6032
1154	0.8065
1145	0.9201
1136	0.9306
1127	0.7726
1118	0.7938
1109	0.8437
1100	0.8698
1091	0.4849
1082	0.117
1073	0.1274
1064	0.5345
1055	0.7638
1046	0.8295
1037	0.8707
1028	0.9127
1019	0.9423
1010	0.9621
1001	0.97
992	0.9662
983	0.9489
974	0.8548
965	0.8157
956	0.7412
947	0.7134
938	0.3468
929	0.157
920	0.2754
911	0.784
902	0.9263
893	0.9266
884	0.953
875	0.9799
866	0.9941
857	0.9937
848	0.9771
839	0.9125
830	0.7278
821	0.6133
812	0.7287
803	0.9353
794	0.9858
785	0.9961
776	0.9984
767	0.9993
758	0.9986
749	0.9846
740	0.9803
731	0.9747
722	0.9291
713	0.6958
704	0.9699
695	0.9867
686	0.8418
677	0.926
668	0.998
659	1.0007
650	1.0012
641	1.0001
632	0.9975
623	0.9925
614	0.9882
605	0.9834
596	0.9724
587	0.9225
578	0.9621
569	0.9112
560	0.8821
551	0.9089
542	0.917
533	0.9258
524	0.9347
515	0.9378
506	0.9364
497	0.9335
488	0.928
479	0.9104
470	0.8978
461	0.8954
