Infrared Spectrum: Phenolphthalein
Formula: C 20 H 14 O4
CAS: 77-09-8
State: solid
Instrument: Bruker Tensor 37 FTIR
Resolution: 0.96450084
Origin: Pacific Northwest National Laboratory Under IARPA Contract
1/cm	Reflectance
7498.03	0.857316
7480.67	0.853468
7463.31	0.85257
7445.95	0.852997
7428.59	0.846418
7411.23	0.840804
7393.87	0.833321
7376.51	0.833061
7359.15	0.832291
7341.79	0.83721
7324.43	0.832032
7307.07	0.831797
7289.71	0.833551
7272.35	0.833392
7254.99	0.832296
7237.63	0.828712
7220.27	0.825001
7202.91	0.817115
7185.55	0.804577
7168.19	0.793553
7150.83	0.771341
7133.47	0.751481
7116.11	0.73473
7098.75	0.720873
7081.39	0.708276
7064.03	0.693296
7046.67	0.677527
7029.31	0.659178
7011.96	0.641829
6994.6	0.629072
6977.24	0.618907
6959.88	0.614408
6942.52	0.61921
6925.16	0.624547
6907.8	0.636008
6890.44	0.651964
6873.08	0.65968
6855.72	0.66484
6838.36	0.661415
6821	0.650534
6803.64	0.643689
6786.28	0.62794
6768.92	0.566866
6751.56	0.518076
6734.2	0.500531
6716.84	0.555539
6699.48	0.60756
6682.12	0.635312
6664.76	0.654067
6647.4	0.656538
6630.04	0.660754
6612.68	0.665951
6595.32	0.662782
6577.96	0.657796
6560.6	0.657941
6543.24	0.665922
6525.88	0.666092
6508.52	0.660727
6491.16	0.658384
6473.8	0.660441
6456.44	0.662307
6439.08	0.660599
6421.72	0.659257
6404.36	0.666795
6387	0.672347
6369.64	0.671965
6352.28	0.671843
6334.92	0.651864
6317.56	0.650354
6300.2	0.636926
6282.84	0.638198
6265.48	0.639858
6248.12	0.614719
6230.76	0.597407
6213.4	0.590017
6196.04	0.574648
6178.68	0.562934
6161.32	0.489675
6143.97	0.487514
6126.61	0.464233
6109.25	0.437876
6091.89	0.356741
6074.53	0.361313
6057.17	0.394309
6039.81	0.441262
6022.45	0.459466
6005.09	0.510273
5987.73	0.550106
5970.37	0.560989
5953.01	0.547331
5935.65	0.511853
5918.29	0.455404
5900.93	0.428691
5883.57	0.483392
5866.21	0.461353
5848.85	0.460301
5831.49	0.418074
5814.13	0.490043
5796.77	0.429276
5779.41	0.319967
5762.05	0.377743
5744.69	0.422547
5727.33	0.476416
5709.97	0.470979
5692.61	0.404589
5675.25	0.434442
5657.89	0.472665
5640.53	0.475018
5623.17	0.450835
5605.81	0.446756
5588.45	0.381515
5571.09	0.404842
5553.73	0.386045
5536.37	0.323466
5519.01	0.23101
5501.65	0.129548
5484.29	0.0672638
5466.93	0.0425236
5449.57	0.0320365
5432.21	0.0323925
5414.85	0.0333887
5397.49	0.0342323
5380.13	0.0398846
5362.77	0.0430948
5345.41	0.0442113
5328.05	0.0457915
5310.69	0.0450888
5293.33	0.0458333
5275.97	0.0460784
5258.62	0.0474784
5241.26	0.0608222
5223.9	0.0593744
5206.54	0.0762668
5189.18	0.0714591
5171.82	0.0884714
5154.46	0.0715379
5137.1	0.0974254
5119.74	0.0934382
5102.38	0.0859412
5085.02	0.0869414
5067.66	0.124037
5050.3	0.0967121
5032.94	0.109333
5015.58	0.133829
4998.22	0.113375
4980.86	0.13049
4963.5	0.139905
4946.14	0.218067
4928.78	0.240216
4911.42	0.239638
4894.06	0.269521
4876.7	0.270692
4859.34	0.280302
4841.98	0.277854
4824.62	0.318262
4807.26	0.287464
4789.9	0.206285
4772.54	0.208105
4755.18	0.221862
4737.82	0.182121
4720.46	0.190089
4703.1	0.128681
4685.74	0.180219
4668.38	0.148138
4651.02	0.103415
4633.66	0.0423568
4616.3	0.0416449
4598.94	0.0483265
4581.58	0.0711319
4564.22	0.0552161
4546.86	0.0322575
4529.5	0.0680457
4512.14	0.0342956
4494.78	0.0438725
4477.42	0.0338227
4460.06	0.0693152
4442.7	0.0480102
4425.34	0.0341406
4407.98	0.047983
4390.63	0.0253978
4373.27	0.0264868
4355.91	0.0366501
4338.55	0.0304616
4321.19	0.0681572
4303.83	0.033288
4286.47	0.133278
4269.11	0.17621
4251.75	0.139783
4234.39	0.0348772
4217.03	0.0351571
4199.67	0.0931204
4182.31	0.0998923
4164.95	0.0331184
4147.59	0.0516398
4130.23	0.0422759
4112.87	0.0332666
4095.51	0.0355708
4078.15	0.0583029
4060.79	0.0531103
4043.43	0.851889
4026.07	0.850379
4008.71	0.852036
3991.35	0.845788
3973.99	0.839646
3956.63	0.83424
3939.27	0.831471
3921.91	0.823862
3904.55	0.825544
3887.19	0.828408
3869.83	0.828873
3852.47	0.826292
3835.11	0.829675
3817.75	0.828652
3800.39	0.823601
3783.03	0.821961
3765.67	0.817128
3748.31	0.8084
3730.95	0.795197
3713.59	0.776489
3696.23	0.75254
3678.87	0.734953
3661.51	0.720591
3644.15	0.70267
3626.79	0.691376
3609.43	0.671434
3592.07	0.659559
3574.71	0.64047
3557.35	0.623128
3539.99	0.609753
3522.64	0.602487
3505.28	0.603311
3487.92	0.60565
3470.56	0.612302
3453.2	0.626708
3435.84	0.640581
3418.48	0.647814
3401.12	0.650434
3383.76	0.641833
3366.4	0.63498
3349.04	0.625919
3331.68	0.597152
3314.32	0.511927
3296.96	0.48854
3279.6	0.49939
3262.24	0.559428
3244.88	0.602994
3227.52	0.628674
3210.16	0.636296
3192.8	0.643736
3175.44	0.648865
3158.08	0.649744
3140.72	0.644858
3123.36	0.642272
3106	0.646196
3088.64	0.651002
3071.28	0.649736
3053.92	0.644226
3036.56	0.64298
3019.2	0.646941
3001.84	0.645363
2984.48	0.64346
2967.12	0.644774
2949.76	0.654284
2932.4	0.656442
2915.04	0.657494
2897.68	0.654435
2880.32	0.628289
2862.96	0.628215
2845.6	0.620274
2828.24	0.624346
2810.88	0.620795
2793.52	0.580506
2776.16	0.580705
2758.8	0.571672
2741.44	0.556612
2724.08	0.528027
2706.72	0.472124
2689.36	0.465078
2672	0.429251
2654.64	0.398825
2637.29	0.350483
2619.93	0.357745
2602.57	0.401345
2585.21	0.42806
2567.85	0.463878
2550.49	0.513888
2533.13	0.54601
2515.77	0.53174
2498.41	0.525024
2481.05	0.475599
2463.69	0.411478
2446.33	0.421129
2428.97	0.463524
2411.61	0.433917
2394.25	0.423671
2376.89	0.386251
2359.53	0.461203
2342.17	0.346664
2324.81	0.350184
2307.45	0.38184
2290.09	0.421941
2272.73	0.471564
2255.37	0.423547
2238.01	0.394865
2220.65	0.443108
2203.29	0.451975
2185.93	0.444521
2168.57	0.447045
2151.21	0.42486
2133.85	0.372225
2116.49	0.394679
2099.13	0.368245
2081.77	0.281153
2064.41	0.187092
2047.05	0.0975321
2029.69	0.053152
2012.33	0.0373236
1994.97	0.0302579
1977.61	0.0320124
1960.25	0.0334451
1942.89	0.0353512
1925.53	0.0398555
1908.17	0.0425607
1890.81	0.0436811
1873.45	0.0442612
1856.09	0.04397
1838.73	0.0449105
1821.37	0.0450063
1804.01	0.0516981
1786.65	0.0587907
1769.3	0.0620154
1751.94	0.0758741
1734.58	0.0790502
1717.22	0.0819391
1699.86	0.0688334
1682.5	0.106775
1665.14	0.0871547
1647.78	0.0801788
1630.42	0.0903077
1613.06	0.108865
1595.7	0.0914895
1578.34	0.119726
1560.98	0.118622
1543.62	0.110864
1526.26	0.115621
1508.9	0.15852
1491.54	0.220475
1474.18	0.221664
1456.82	0.235328
1439.46	0.273842
1422.1	0.239376
1404.74	0.273703
1387.38	0.293415
1370.02	0.305806
1352.66	0.230681
1335.3	0.203583
1317.94	0.222307
1300.58	0.244466
1283.22	0.236231
1265.86	0.205798
1248.5	0.114919
1231.14	0.156574
1213.78	0.108496
1196.42	0.0872763
1179.06	0.0307436
1161.7	0.0394857
1144.34	0.0610308
1126.98	0.0700513
1109.62	0.0290221
1092.26	0.0497653
1074.9	0.0745708
1057.54	0.0291176
1040.18	0.0445257
1022.82	0.0293005
1005.46	0.0701069
988.104	0.0357085
970.744	0.0391722
953.384	0.0286201
936.025	0.0265206
918.665	0.0309152
901.305	0.0444197
883.945	0.0362713
866.585	0.0312869
849.226	0.0539297
831.866	0.170773
814.506	0.151662
797.146	0.147138
779.786	0.0324914
762.427	0.0386143
745.067	0.0800238
727.707	0.0627793
710.347	0.0362625
692.987	0.0665235
675.628	0.0510747
658.268	0.0424886
640.908	0.0543052
623.548	0.0552818
606.188	0.0364031
