Infrared Spectrum: 15% H2O2 in water
Formula: H 2 O 2 in H 2 O
CAS: 7722-84-1
State: liquid
Instrument: Bruker Tensor 37 FTIR
Resolution: 0.48211176
Origin: Pacific Northwest National Laboratory Under IARPA Contract
1/CM	dispersion index
7496.38	1.31836
7479.02	1.31834
7461.66	1.3183
7444.31	1.31825
7426.95	1.3182
7409.6	1.31816
7392.24	1.31811
7374.88	1.31807
7357.53	1.31802
7340.17	1.31797
7322.82	1.31793
7305.46	1.31788
7288.1	1.31783
7270.75	1.31777
7253.39	1.31772
7236.04	1.31767
7218.68	1.31761
7201.32	1.31755
7183.97	1.3175
7166.61	1.31744
7149.26	1.31739
7131.9	1.31735
7114.54	1.3173
7097.19	1.31726
7079.83	1.31722
7062.48	1.31719
7045.12	1.31715
7027.76	1.31712
7010.41	1.31708
6993.05	1.31705
6975.7	1.31701
6958.34	1.31698
6940.98	1.31694
6923.63	1.3169
6906.27	1.31686
6888.92	1.31682
6871.56	1.31679
6854.2	1.31675
6836.85	1.31671
6819.49	1.31666
6802.14	1.31662
6784.78	1.31657
6767.42	1.31653
6750.07	1.31648
6732.71	1.31643
6715.36	1.31637
6698	1.31631
6680.64	1.31626
6663.29	1.3162
6645.93	1.31613
6628.58	1.31607
6611.22	1.316
6593.86	1.31594
6576.51	1.31587
6559.15	1.3158
6541.8	1.31573
6524.44	1.31566
6507.08	1.31558
6489.73	1.31551
6472.37	1.31544
6455.02	1.31536
6437.66	1.31528
6420.3	1.3152
6402.95	1.31512
6385.59	1.31504
6368.24	1.31496
6350.88	1.31488
6333.52	1.31479
6316.17	1.31471
6298.81	1.31462
6281.46	1.31453
6264.1	1.31444
6246.74	1.31435
6229.39	1.31426
6212.03	1.31417
6194.67	1.31408
6177.32	1.31398
6159.96	1.31388
6142.61	1.31379
6125.25	1.31369
6107.89	1.31359
6090.54	1.31349
6073.18	1.31338
6055.83	1.31328
6038.47	1.31317
6021.11	1.31307
6003.76	1.31296
5986.4	1.31285
5969.05	1.31274
5951.69	1.31262
5934.33	1.31251
5916.98	1.3124
5899.62	1.31228
5882.27	1.31216
5864.91	1.31204
5847.55	1.31191
5830.2	1.31179
5812.84	1.31166
5795.49	1.31153
5778.13	1.3114
5760.77	1.31126
5743.42	1.31113
5726.06	1.31099
5708.71	1.31085
5691.35	1.3107
5673.99	1.31056
5656.64	1.31042
5639.28	1.31027
5621.93	1.31011
5604.57	1.30996
5587.21	1.3098
5569.86	1.30964
5552.5	1.30948
5535.15	1.3093
5517.79	1.30912
5500.43	1.30894
5483.08	1.30876
5465.72	1.30856
5448.37	1.30836
5431.01	1.30814
5413.65	1.30791
5396.3	1.30767
5378.94	1.30742
5361.59	1.30716
5344.23	1.30688
5326.87	1.30657
5309.52	1.30623
5292.16	1.30597
5274.81	1.30581
5257.45	1.30571
5240.09	1.30566
5222.74	1.30564
5205.38	1.30566
5188.03	1.30569
5170.67	1.3057
5153.31	1.30567
5135.96	1.3056
5118.6	1.30548
5101.25	1.30532
5083.89	1.30517
5066.53	1.305
5049.18	1.30478
5031.82	1.30456
5014.47	1.30432
4997.11	1.30406
4979.75	1.30379
4962.4	1.3035
4945.04	1.30321
4927.69	1.30291
4910.33	1.3026
4892.97	1.30228
4875.62	1.30194
4858.26	1.30161
4840.91	1.30127
4823.55	1.30092
4806.19	1.30056
4788.84	1.3002
4771.48	1.29983
4754.13	1.29945
4736.77	1.29905
4719.41	1.29866
4702.06	1.29825
4684.7	1.29783
4667.34	1.29739
4649.99	1.29694
4632.63	1.29648
4615.28	1.296
4597.92	1.29551
4580.56	1.295
4563.21	1.29447
4545.85	1.29394
4528.5	1.29339
4511.14	1.29281
4493.78	1.29222
4476.43	1.29162
4459.07	1.29099
4441.72	1.29034
4424.36	1.28967
4407	1.28899
4389.65	1.28829
4372.29	1.28757
4354.94	1.28681
4337.58	1.28603
4320.22	1.28522
4302.87	1.28437
4285.51	1.2835
4268.16	1.28259
4250.8	1.28166
4233.44	1.28068
4216.09	1.27966
4198.73	1.27857
4181.38	1.27747
4164.02	1.27632
4146.66	1.27511
4129.31	1.27385
4111.95	1.27255
4094.6	1.27116
4077.24	1.26973
4059.88	1.26822
4042.53	1.26666
4025.17	1.26498
4007.82	1.26324
3990.46	1.26142
3973.1	1.25946
3955.75	1.25738
3938.39	1.2551
3921.04	1.25264
3903.68	1.24992
3886.32	1.24692
3868.97	1.24364
3851.61	1.23996
3834.26	1.23591
3816.9	1.23145
3799.54	1.22639
3782.19	1.2208
3764.83	1.2144
3747.48	1.20666
3730.12	1.19722
3712.76	1.18582
3695.41	1.1716
3678.05	1.15561
3660.7	1.14114
3643.34	1.13274
3625.98	1.12998
3608.63	1.13063
3591.27	1.13339
3573.92	1.13832
3556.56	1.14519
3539.2	1.15413
3521.85	1.16486
3504.49	1.17719
3487.14	1.19109
3469.78	1.20674
3452.42	1.22456
3435.07	1.2446
3417.71	1.2667
3400.36	1.28982
3383	1.3119
3365.64	1.33179
3348.29	1.34876
3330.93	1.36313
3313.58	1.37578
3296.22	1.3878
3278.86	1.40022
3261.51	1.41372
3244.15	1.42806
3226.79	1.44182
3209.44	1.45398
3192.08	1.46341
3174.73	1.46979
3157.37	1.47324
3140.01	1.47425
3122.66	1.47332
3105.3	1.47096
3087.95	1.46752
3070.59	1.46323
3053.23	1.45822
3035.88	1.45276
3018.52	1.44701
3001.17	1.44109
2983.81	1.43514
2966.45	1.42921
2949.1	1.42335
2931.74	1.41768
2914.39	1.41217
2897.03	1.40722
2879.67	1.40331
2862.32	1.4015
2844.96	1.40302
2827.61	1.40701
2810.25	1.41016
2792.89	1.41038
2775.54	1.40838
2758.18	1.40521
2740.83	1.40169
2723.47	1.39817
2706.11	1.39478
2688.76	1.39159
2671.4	1.38859
2654.05	1.3858
2636.69	1.38317
2619.33	1.38068
2601.98	1.37832
2584.62	1.37609
2567.27	1.37395
2549.91	1.37192
2532.55	1.37001
2515.2	1.36814
2497.84	1.36639
2480.49	1.3647
2463.13	1.36304
2445.77	1.36144
2428.42	1.3599
2411.06	1.35839
2393.71	1.3569
2376.35	1.35537
2358.99	1.35424
2341.64	1.35304
2324.28	1.35198
2306.93	1.35085
2289.57	1.34969
2272.21	1.34863
2254.86	1.34765
2237.5	1.34675
2220.15	1.34599
2202.79	1.34533
2185.43	1.34478
2168.08	1.34438
2150.72	1.3441
2133.37	1.34391
2116.01	1.34381
2098.65	1.34368
2081.3	1.34351
2063.94	1.34324
2046.59	1.34282
2029.23	1.34222
2011.87	1.34138
1994.52	1.34034
1977.16	1.33903
1959.81	1.33751
1942.45	1.33578
1925.09	1.33387
1907.74	1.33174
1890.38	1.32945
1873.03	1.32698
1855.67	1.32421
1838.31	1.32113
1820.96	1.31768
1803.6	1.31378
1786.25	1.30913
1768.89	1.30357
1751.53	1.29694
1734.18	1.28873
1716.82	1.27936
1699.46	1.27065
1682.11	1.26839
1664.75	1.2816
1647.4	1.3163
1630.04	1.36379
1612.68	1.3872
1595.33	1.38478
1577.97	1.37636
1560.62	1.36847
1543.26	1.36179
1525.9	1.35617
1508.55	1.35123
1491.19	1.34692
1473.84	1.344
1456.48	1.34277
1439.12	1.34344
1421.77	1.34521
1404.41	1.34773
1387.06	1.35062
1369.7	1.35361
1352.34	1.35646
1334.99	1.35828
1317.63	1.35855
1300.28	1.35744
1282.92	1.35556
1265.56	1.35343
1248.21	1.35124
1230.85	1.34912
1213.5	1.34712
1196.14	1.34515
1178.78	1.34313
1161.43	1.34102
1144.07	1.33878
1126.72	1.33643
1109.36	1.33385
1092	1.33107
1074.65	1.32784
1057.29	1.3242
1039.94	1.32007
1022.58	1.31535
1005.22	1.30994
987.868	1.30399
970.512	1.29753
953.156	1.29089
935.8	1.2841
918.444	1.27816
901.088	1.27371
883.732	1.27253
866.376	1.27816
849.02	1.28132
831.664	1.2905
814.308	1.30553
796.952	1.32558
779.596	1.35128
762.24	1.38512
744.884	1.43067
727.528	1.48458
710.172	1.56265
692.816	1.77153
