Infrared Spectrum: 1,3-CYCLOPENTADIENE, HEXACHLORO-
Formula: C5 Cl6
CAS: 77-47-4
State: SOLUTION (10% IN CCl4 FOR 3800-1330 AND 10% IN CS2 FOR 1330-450 CM^-^1)
Class: COBLENTZ III
Instrument: DOW KBr FOREPRISM-GRATING
Instrument parameters: BLAZED AT 3.5, 12.0, 20.0 MICRON, CHANGED AT 5.0, 7.5, 14.9 MICRON
Sampling: TRANSMISSION
Path length: 0.011, 0.011 CM
Resolution: 4
Origin: DOW CHEMICAL COMPANY
1/CM	TRANSMITTANCE
380.859	0.123
389.559	0.127
398.26	0.183
406.96	0.483
415.661	0.706
424.361	0.797
433.061	0.842
441.762	0.879
450.462	0.896
459.162	0.919
467.863	0.936
476.563	0.947
485.264	0.96
493.964	0.968
502.664	0.976
511.365	0.985
520.065	0.986
528.766	0.989
537.466	0.974
546.166	0.941
554.867	0.993
563.567	0.995
572.267	0.998
580.968	0.995
589.668	0.997
598.369	0.99
607.069	0.985
615.769	0.975
624.47	0.944
633.17	0.849
641.871	0.83
650.571	0.831
659.271	0.822
667.972	0.843
676.672	0.37
685.372	0.5891
694.073	0.877
702.773	0.596
711.474	0.305
720.174	0.739
728.874	0.881
737.575	0.952
746.275	0.972
754.976	0.964
763.676	0.953
772.376	0.932
781.077	0.855
789.777	0.82
798.477	0.3339
807.178	0.008
815.878	0.828
824.579	0.898
833.279	0.911
841.979	0.854
850.68	0.707
859.38	0.475
868.081	0.839
876.781	0.881
885.481	0.944
894.182	0.974
902.882	0.975
911.582	0.98
920.283	0.979
928.983	0.947
937.684	0.93
946.384	0.941
955.084	0.896
963.785	0.875
972.485	0.82
981.186	0.959
989.886	0.97
998.586	0.998
1007.29	0.987
1015.99	0.963
1024.69	0.964
1033.39	0.979
1042.09	0.983
1050.79	0.99
1059.49	0.997
1068.19	0.997
1076.89	1.004
1085.59	0.998
1094.29	0.995
1102.99	0.995
1111.69	0.976
1120.39	0.888
1129.09	0.83
1137.79	0.3359
1146.49	0.707
1155.19	0.887
1163.89	0.835
1172.59	0.862
1181.29	0.793
1189.99	0.658
1198.7	0.894
1207.4	0.6749
1216.1	0.775
1224.8	0.396
1233.5	0.039
1242.2	0.872
1250.9	0.911
1259.6	0.907
1268.3	0.908
1277	0.921
1285.7	0.956
1294.4	0.97
1303.1	0.974
1311.8	0.975
1320.5	0.975
1329.2	0.979
1337.9	0.976
1346.6	0.966
1355.3	0.948
1364	0.945
1372.7	0.951
1381.4	0.953
1390.1	0.959
1398.8	0.955
1407.5	0.947
1416.2	0.959
1424.91	0.975
1433.61	0.982
1442.31	0.986
1451.01	0.987
1459.71	0.98
1468.41	0.976
1477.11	0.963
1485.81	0.936
1494.51	0.896
1503.21	0.831
1511.91	0.774
1520.61	0.713
1529.31	0.645
1538.01	0.546
1546.71	0.478
1555.41	0.498
1564.11	0.529
1572.81	0.586
1581.51	0.62
1590.21	0.471
1598.91	0.3579
1607.61	0.2921
1616.31	0.868
1625.01	0.93
1633.71	0.942
1642.41	0.947
1651.12	0.967
1659.82	0.975
1668.52	0.98
1677.22	0.978
1685.92	0.974
1694.62	0.953
1703.32	0.902
1712.02	0.877
1720.72	0.944
1729.42	0.956
1738.12	0.952
1746.82	0.923
1755.52	0.949
1764.22	0.853
1772.92	0.941
1781.62	0.97
1790.32	0.936
1799.02	0.812
1807.72	0.964
1816.42	0.976
1825.12	0.975
1833.82	0.96
1842.52	0.966
1851.22	0.983
1859.92	0.989
1868.62	0.989
1877.33	0.993
1886.03	0.989
1894.73	0.985
1903.43	0.98
1912.13	0.989
1920.83	0.991
1929.53	0.987
1938.23	0.986
1946.93	0.99
1955.63	0.993
1964.33	0.986
1973.03	0.982
1981.73	0.976
1990.43	0.959
1999.13	0.975
2007.83	0.975
2016.53	0.978
2025.23	0.978
2033.93	0.9811
2042.63	0.98
2051.33	0.98
2060.03	0.9809
2068.73	0.9786
2077.43	0.9878
2086.13	0.983
2094.83	0.9838
2103.54	0.985
2112.24	0.986
2120.94	0.986
2129.64	0.9866
2138.34	0.98
2147.04	0.9772
2155.74	0.975
2164.44	0.9801
2173.14	0.983
2181.84	0.9813
2190.54	0.9793
2199.24	0.9827
2207.94	0.985
2216.64	0.9827
2225.34	0.982
2234.04	0.979
2242.74	0.978
2251.44	0.9757
2260.14	0.972
2268.84	0.9689
2277.54	0.963
2286.24	0.9535
2294.94	0.957
2303.64	0.961
2312.34	0.9645
2321.04	0.965
2329.75	0.975
2338.45	0.9788
2347.15	0.9764
2355.85	0.978
2364.55	0.978
2373.25	0.978
2381.95	0.978
2390.65	0.976
2399.35	0.9782
2408.05	0.979
2416.75	0.978
2425.45	0.976
2434.15	0.979
2442.85	0.976
2451.55	0.979
2460.25	0.975
2468.95	0.9762
2477.65	0.9759
2486.35	0.971
2495.05	0.974
2503.75	0.9719
2512.45	0.971
2521.15	0.9679
2529.85	0.9671
2538.55	0.974
2547.25	0.972
2555.96	0.972
2564.66	0.971
2573.36	0.974
2582.06	0.974
2590.76	0.972
2599.46	0.971
2608.16	0.968
2616.86	0.968
2625.56	0.97
2634.26	0.967
2642.96	0.967
2651.66	0.964
2660.36	0.967
2669.06	0.967
2677.76	0.967
2686.46	0.968
2695.16	0.968
2703.86	0.9661
2712.56	0.966
2721.26	0.967
2729.96	0.966
2738.66	0.963
2747.36	0.963
2756.06	0.9661
2764.76	0.9601
2773.46	0.959
2782.17	0.9574
2790.87	0.953
2799.57	0.956
2808.27	0.956
2816.97	0.955
2825.67	0.953
2834.37	0.952
2843.07	0.951
2851.77	0.949
2860.47	0.9482
2869.17	0.9506
2877.87	0.9494
2886.57	0.949
2895.27	0.951
2903.97	0.955
2912.67	0.9535
2921.37	0.9528
2930.07	0.952
2938.77	0.952
2947.47	0.952
2956.17	0.949
2964.87	0.952
2973.57	0.949
2982.27	0.951
2990.97	0.953
2999.67	0.953
3008.38	0.9496
3017.08	0.951
3025.78	0.9523
3034.48	0.9523
3043.18	0.949
3051.88	0.951
3060.58	0.9526
3069.28	0.951
3077.98	0.9516
3086.68	0.9524
3095.38	0.952
3104.08	0.9484
3112.78	0.949
3121.48	0.951
3130.18	0.951
3138.88	0.952
3147.58	0.9493
3156.28	0.9476
3164.98	0.953
3173.68	0.956
3182.38	0.957
3191.08	0.956
3199.78	0.959
3208.48	0.961
3217.18	0.961
3225.88	0.964
3234.59	0.963
3243.29	0.964
3251.99	0.966
3260.69	0.966
3269.39	0.966
3278.09	0.9675
3286.79	0.967
3295.49	0.967
3304.19	0.9705
3312.89	0.975
3321.59	0.9744
3330.29	0.9744
3338.99	0.975
3347.69	0.975
3356.39	0.9728
3365.09	0.975
3373.79	0.9744
3382.49	0.978
3391.19	0.9768
3399.89	0.9784
3408.59	0.976
3417.29	0.9754
3425.99	0.979
3434.69	0.976
3443.39	0.975
3452.09	0.9754
3460.8	0.9787
3469.5	0.979
3478.2	0.976
3486.9	0.975
3495.6	0.975
3504.3	0.9741
3513	0.9746
3521.7	0.9793
3530.4	0.9793
3539.1	0.986
3547.8	0.987
3556.5	0.989
3565.2	0.9902
3573.9	0.991
3582.6	0.9902
3591.3	0.9915
3600	0.995
3608.7	0.997
3617.4	0.997
3626.1	0.998
3634.8	0.997
3643.5	0.998
3652.2	0.998
3660.9	0.998
3669.6	0.9975
3678.3	0.998
3687.01	1.001
3695.71	1
3704.41	1
3713.11	1
3721.81	1.001
3730.51	1.001
3739.21	1
3747.91	1.0022
3756.61	1.0062
3765.31	1.008
3774.01	1.006
3782.71	1.005
3791.41	1.002
