Infrared Spectrum: CYCLOPENTADIENE, HEXACHLORO-
Formula: C5 Cl6
CAS: 77-47-4
State: LIQUID (NEAT)
Class: COBLENTZ III
Instrument: PERKIN-ELMER 283
Sampling: TRANSMISSION
Path length: FILM, CsI WINDOW
Resolution: 4
Origin: PERKIN-ELMER
1/CM	TRANSMITTANCE
197.856	0.596
207.603	0.713
217.349	0.75
227.096	0.819
236.842	0.861
246.589	0.932
256.336	0.949
266.082	0.948
275.829	0.957
285.576	0.966
295.322	0.962
305.069	0.967
314.815	0.971
324.562	0.972
334.309	0.971
344.055	0.958
353.802	0.922
363.549	0.965
373.295	0.974
383.042	0.97
392.788	0.966
402.535	0.962
412.282	0.959
422.028	0.967
431.775	0.972
441.522	0.972
451.268	0.974
461.015	0.972
470.761	0.968
480.508	0.97
490.255	0.971
500.001	0.97
509.748	0.967
519.495	0.965
529.241	0.959
538.988	0.917
548.734	0.926
558.481	0.948
568.228	0.95
577.974	0.953
587.721	0.948
597.468	0.925
607.214	0.913
616.961	0.913
626.707	0.885
636.454	0.764
646.201	0.872
655.947	0.786
665.694	0.6749
675.441	0.164
685.187	0.771
694.934	0.5849
704.68	0.2491
714.427	0.665
724.174	0.798
733.92	0.872
743.667	0.865
753.414	0.835
763.16	0.855
772.907	0.802
782.653	0.762
792.4	0.2409
802.147	0.065
811.893	0.7041
821.64	0.857
831.387	0.87
841.133	0.886
850.88	0.828
860.626	0.8651
870.373	0.919
880.12	0.918
889.866	0.925
899.613	0.918
909.36	0.925
919.106	0.912
928.853	0.878
938.599	0.866
948.346	0.874
958.093	0.726
967.839	0.7889
977.586	0.886
987.333	0.895
997.079	0.904
1006.83	0.89
1016.57	0.835
1026.32	0.835
1036.07	0.863
1045.81	0.881
1055.56	0.879
1065.31	0.879
1075.05	0.895
1084.8	0.881
1094.55	0.859
1104.29	0.882
1114.04	0.839
1123.79	0.727
1133.53	0.2529
1143.28	0.6471
1153.03	0.785
1162.77	0.742
1172.52	0.757
1182.27	0.505
1192.01	0.7631
1201.76	0.7439
1211.5	0.714
1221.25	0.3388
1231	0.2102
1240.74	0.811
1250.49	0.855
1260.24	0.891
1269.98	0.895
1279.73	0.901
1289.48	0.908
1299.22	0.909
1308.97	0.91
1318.72	0.909
1328.46	0.906
1338.21	0.903
1347.96	0.901
1357.7	0.903
1367.45	0.905
1377.2	0.908
1386.94	0.904
1396.69	0.903
1406.44	0.909
1416.18	0.908
1425.93	0.909
1435.68	0.905
1445.42	0.904
1455.17	0.904
1464.92	0.901
1474.66	0.904
1484.41	0.903
1494.16	0.906
1503.9	0.895
1513.65	0.899
1523.4	0.897
1533.14	0.89
1542.89	0.864
1552.64	0.839
1562.38	0.7659
1572.13	0.6951
1581.88	0.7219
1591.62	0.457
1601.37	0.149
1611.12	0.6641
1620.86	0.798
1630.61	0.841
1640.36	0.834
1650.1	0.863
1659.85	0.87
1669.6	0.883
1679.34	0.882
1689.09	0.891
1698.84	0.878
1708.58	0.882
1718.33	0.882
1728.08	0.878
1737.82	0.873
1747.57	0.855
1757.32	0.832
1767.06	0.759
1776.81	0.828
1786.56	0.851
1796.3	0.826
1806.05	0.807
1815.8	0.872
1825.54	0.877
1835.29	0.869
1845.04	0.869
1854.78	0.881
1864.53	0.883
1874.28	0.881
1884.02	0.879
1893.77	0.878
1903.52	0.868
1913.26	0.881
1923.01	0.882
1932.76	0.878
1942.5	0.881
1952.25	0.888
1961.99	0.89
1971.74	0.89
1981.49	0.892
1991.23	0.888
2000.98	0.895
2010.73	0.892
2020.47	0.8925
2030.22	0.89
2039.97	0.89
2049.71	0.888
2059.46	0.891
2069.21	0.8905
2078.95	0.8915
2088.7	0.8891
2098.45	0.8905
2108.19	0.89
2117.94	0.892
2127.69	0.89
2137.43	0.8861
2147.18	0.886
2156.93	0.8904
2166.67	0.892
2176.42	0.894
2186.17	0.8914
2195.91	0.895
2205.66	0.891
2215.41	0.8972
2225.15	0.8938
2234.9	0.891
2244.65	0.89
2254.39	0.89
2264.14	0.89
2273.89	0.8893
2283.63	0.89
2293.38	0.89
2303.13	0.888
2312.87	0.892
2322.62	0.888
2332.37	0.8907
2342.11	0.8843
2351.86	0.879
2361.61	0.878
2371.35	0.8813
2381.1	0.886
2390.85	0.886
2400.59	0.8823
2410.34	0.8796
2420.09	0.881
2429.83	0.879
2439.58	0.878
2449.33	0.8784
2459.07	0.8758
2468.82	0.879
2478.57	0.8765
2488.31	0.877
2498.06	0.875
2507.81	0.872
2517.55	0.872
2527.3	0.8698
2537.05	0.868
2546.79	0.866
2556.54	0.865
2566.29	0.866
2576.03	0.864
2585.78	0.868
2595.53	0.869
2605.27	0.8676
2615.02	0.866
2624.77	0.8648
2634.51	0.8638
2644.26	0.864
2654.01	0.864
2663.75	0.8642
2673.5	0.863
2683.25	0.863
2692.99	0.863
2702.74	0.865
2712.48	0.8609
2722.23	0.8607
2731.98	0.86
2741.72	0.86
2751.47	0.8599
2761.22	0.8599
2770.96	0.857
2780.71	0.8588
2790.46	0.8538
2800.2	0.8561
2809.95	0.856
2819.7	0.8519
2829.44	0.8541
2839.19	0.8538
2848.94	0.8469
2858.68	0.848
2868.43	0.851
2878.18	0.851
2887.92	0.8499
2897.67	0.846
2907.42	0.847
2917.16	0.838
2926.91	0.8411
2936.66	0.846
2946.4	0.847
2956.15	0.847
2965.9	0.848
2975.64	0.85
2985.39	0.85
2995.14	0.851
3004.88	0.851
3014.63	0.851
3024.38	0.848
3034.12	0.848
3043.87	0.847
3053.62	0.847
3063.36	0.844
3073.11	0.843
3082.86	0.842
3092.6	0.842
3102.35	0.842
3112.1	0.842
3121.84	0.8411
3131.59	0.842
3141.34	0.839
3151.08	0.839
3160.83	0.8421
3170.58	0.8352
3180.32	0.8263
3190.07	0.822
3199.82	0.8199
3209.56	0.8191
3219.31	0.8237
3229.06	0.8318
3238.8	0.8255
3248.55	0.8209
3258.3	0.822
3268.04	0.822
3277.79	0.8236
3287.54	0.822
3297.28	0.82
3307.03	0.817
3316.78	0.819
3326.52	0.816
3336.27	0.815
3346.02	0.817
3355.76	0.815
3365.51	0.815
3375.26	0.816
3385	0.8122
3394.75	0.812
3404.5	0.816
3414.24	0.817
3423.99	0.817
3433.74	0.819
3443.48	0.819
3453.23	0.819
3462.98	0.82
3472.72	0.82
3482.47	0.8218
3492.21	0.825
3501.96	0.8275
3511.71	0.828
3521.45	0.828
3531.2	0.828
3540.95	0.8287
3550.69	0.8369
3560.44	0.843
3570.19	0.841
3579.93	0.843
3589.68	0.846
3599.43	0.8463
3609.17	0.847
3618.92	0.8494
3628.67	0.851
3638.41	0.852
3648.16	0.856
3657.91	0.8553
3667.65	0.8547
3677.4	0.8553
3687.15	0.8567
3696.89	0.857
3706.64	0.855
3716.39	0.861
3726.13	0.8594
3735.88	0.8606
3745.63	0.863
3755.37	0.861
3765.12	0.86
3774.87	0.8588
3784.61	0.856
3794.36	0.855
3804.11	0.8572
3813.85	0.857
3823.6	0.86
3833.35	0.857
3843.09	0.856
3852.84	0.856
3862.59	0.856
3872.33	0.856
3882.08	0.856
3891.83	0.856
3901.57	0.854
3911.32	0.854
3921.07	0.8545
3930.81	0.855
3940.56	0.854
3950.31	0.855
3960.05	0.855
3969.8	0.855
3979.55	0.855
3989.29	0.855
