Infrared Spectrum: Silane, diphenyl-
Formula: C12 H12 Si
CAS: 775-12-2
State: SOLUTION (10% CCl4 FOR 3800-1300, 2% CS2 FOR 1300-650, AND 10% CCl4 FOR 650-250)
Boiling point: 75 C
Class: COBLENTZ II
Instrument: PERKIN-ELMER 521 (GRATING)
Instrument parameters: FILTERS AT 3150, 2500, 2000, 1150, 700, 410. GRATING CHANGES: 2000, 630
Path length: 0.011 CM, 0.011 CM, AND 0.010 CM
Resolution: 2
Origin: DOW CORNING CORP.
1/CM	TRANSMITTANCE
254	0.8988
263	0.8999
272	0.8984
281	0.9021
290	0.9006
299	0.8988
308	0.9002
317	0.8989
326	0.8992
335	0.8988
344	0.8963
353	0.8802
362	0.8466
371	0.805
380	0.7965
389	0.8545
398	0.8587
407	0.8243
416	0.5429
425	0.531
434	0.8074
443	0.8608
452	0.8505
461	0.7682
470	0.5287
479	0.4143
488	0.62
497	0.7794
506	0.8325
515	0.8351
524	0.8515
533	0.8679
542	0.867
551	0.857
560	0.8317
569	0.7808
578	0.6356
587	0.0987
596	0.3477
605	0.7807
614	0.7547
623	0.8081
632	0.8394
641	0.8466
650	0.8316
659	0.8024
668	0.7844
677	0.7879
686	0.7323
695	0.427
704	0.5281
713	0.6359
722	0.633
731	0.5056
740	0.6702
749	0.7555
758	0.7639
767	0.8051
776	0.816
785	0.8141
794	0.8104
803	0.8038
812	0.7698
821	0.7433
830	0.6179
839	0.057
848	0.3693
857	0.7324
866	0.7725
875	0.7894
884	0.7901
893	0.7912
902	0.7792
911	0.7253
920	0.5914
929	0.4331
938	0.5669
947	0.7829
956	0.8006
965	0.804
974	0.8046
983	0.7903
992	0.7806
1001	0.7941
1010	0.7921
1019	0.7874
1028	0.7851
1037	0.7848
1046	0.7855
1055	0.7753
1064	0.7701
1073	0.7678
1082	0.7567
1091	0.7386
1100	0.6599
1109	0.6427
1118	0.4387
1127	0.7502
1136	0.762
1145	0.7635
1154	0.7773
1163	0.786
1172	0.7877
1181	0.7802
1190	0.7975
1199	0.7993
1208	0.8112
1217	0.8126
1226	0.8126
1235	0.8079
1244	0.7971
1253	0.7957
1262	0.7907
1271	0.7888
1280	0.7924
1289	0.789
1298	0.779
1307	0.8253
1316	0.7919
1325	0.7527
1334	0.8251
1343	0.8571
1352	0.8549
1361	0.8436
1370	0.7894
1379	0.8376
1388	0.8439
1397	0.8382
1406	0.821
1415	0.7741
1424	0.2003
1433	0.6237
1442	0.8201
1451	0.8408
1460	0.8427
1469	0.8344
1478	0.704
1487	0.8391
1496	0.8564
1505	0.8546
1514	0.8517
1523	0.8515
1532	0.8509
1541	0.839
1550	0.8361
1559	0.8216
1568	0.8222
1577	0.8116
1586	0.6249
1595	0.8424
1604	0.833
1613	0.8277
1622	0.8378
1631	0.8412
1640	0.8357
1649	0.8334
1658	0.838
1667	0.8354
1676	0.8314
1685	0.8406
1694	0.845
1703	0.8497
1712	0.8536
1721	0.8559
1730	0.8565
1739	0.8478
1748	0.8442
1757	0.8154
1766	0.8317
1775	0.8408
1784	0.8564
1793	0.8536
1802	0.8317
1811	0.7697
1820	0.807
1829	0.8215
1838	0.8485
1847	0.856
1856	0.8515
1865	0.8417
1874	0.769
1883	0.7952
1892	0.7919
1901	0.8325
1910	0.8549
1919	0.8582
1928	0.8564
1937	0.8349
1946	0.762
1955	0.8012
1964	0.7945
1973	0.8504
1982	0.8647
1991	0.8665
2000	0.8628
2009	0.8669
2018	0.8667
2027	0.8659
2036	0.8641
2045	0.8615
2054	0.857
2063	0.8477
2072	0.8344
2081	0.8121
2090	0.7858
2099	0.6705
2108	0.5433
2117	0.3996
2126	0.122
2135	0.0197
2144	0.0216
2153	0.1636
2162	0.3337
2171	0.5038
2180	0.657
2189	0.7241
2198	0.7718
2207	0.7947
2216	0.8163
2225	0.8312
2234	0.836
2243	0.8374
2252	0.8424
2261	0.8453
2270	0.8462
2279	0.8465
2288	0.8475
2297	0.8459
2306	0.8354
2315	0.8324
2324	0.8472
2333	0.8383
2342	0.8363
2351	0.8399
2360	0.8454
2369	0.852
2378	0.8545
2387	0.8564
2396	0.8575
2405	0.8577
2414	0.8581
2423	0.8582
2432	0.8581
2441	0.858
2450	0.8581
2459	0.8569
2468	0.8542
2477	0.8567
2486	0.855
2495	0.8557
2504	0.8559
2513	0.853
2522	0.8535
2531	0.8545
2540	0.8542
2549	0.8531
2558	0.852
2567	0.85
2576	0.8434
2585	0.847
2594	0.8522
2603	0.8402
2612	0.8386
2621	0.8541
2630	0.8559
2639	0.8564
2648	0.8554
2657	0.8541
2666	0.8518
2675	0.8477
2684	0.8417
2693	0.8423
2702	0.8364
2711	0.8501
2720	0.8538
2729	0.8554
2738	0.8529
2747	0.8522
2756	0.8526
2765	0.8575
2774	0.8541
2783	0.851
2792	0.8482
2801	0.8457
2810	0.8433
2819	0.8429
2828	0.8487
2837	0.8445
2846	0.8422
2855	0.8462
2864	0.8455
2873	0.8405
2882	0.8363
2891	0.8329
2900	0.8177
2909	0.812
2918	0.828
2927	0.8353
2936	0.8387
2945	0.8396
2954	0.8338
2963	0.8225
2972	0.8058
2981	0.7803
2990	0.7231
2999	0.5397
3008	0.5802
3017	0.4932
3026	0.5932
3035	0.6774
3044	0.5207
3053	0.3813
3062	0.4714
3071	0.2804
3080	0.5931
3089	0.6448
3098	0.7945
3107	0.8384
3116	0.8433
3125	0.8302
3134	0.8055
3143	0.855
3152	0.8679
3161	0.8696
3170	0.8708
3179	0.872
3188	0.8732
3197	0.8743
3206	0.875
3215	0.8752
3224	0.8755
3233	0.8757
3242	0.8759
3251	0.8757
3260	0.8756
3269	0.8755
3278	0.8753
3287	0.8752
3296	0.8754
3305	0.8755
3314	0.8757
3323	0.8758
3332	0.8762
3341	0.8766
3350	0.877
3359	0.8774
3368	0.8779
3377	0.8781
3386	0.8779
3395	0.8777
3404	0.8774
3413	0.8772
3422	0.8771
3431	0.8769
3440	0.8768
3449	0.8767
3458	0.8765
3467	0.876
3476	0.8756
3485	0.8751
3494	0.8747
3503	0.8742
3512	0.8739
3521	0.8736
3530	0.8733
3539	0.8732
3548	0.8738
3557	0.8744
3566	0.8755
3575	0.8768
3584	0.89
3593	0.8777
3602	0.8748
3611	0.8742
3620	0.8737
3629	0.8722
3638	0.8721
3647	0.8956
3656	0.8752
3665	0.874
3674	0.891
3683	0.8717
3692	0.8749
3701	0.8715
3710	0.8745
3719	0.8783
3728	0.8842
3737	0.8914
3746	0.8978
3755	0.8816
3764	0.8738
3773	0.875
3782	0.8753
3791	0.8792
3800	0.892
