Infrared Spectrum: DICYCLOPENTADIENE
Formula: C10 H12
CAS: 77-73-6
State: SOLUTION (10% CCl4 FOR 3800-1330, 10% CS2 FOR 1330-450 CM^-^1)
Class: COBLENTZ III
Instrument: Not specified, most likely a prism, grating, or hybrid spectrometer.
Sampling: TRANSMISSION
Path length: 0.011 CM, 0.011 CM
Resolution: 4
Origin: DOW CHEMICAL COMPANY
1/CM	TRANSMITTANCE
448.739	0.833
457.283	0.832
465.826	0.813
474.37	0.8
482.913	0.3949
491.457	0.6386
500	0.896
508.544	0.93
517.087	0.937
525.631	0.95
534.174	0.962
542.718	0.975
551.261	0.984
559.805	0.994
568.348	1
576.892	1.001
585.436	1.001
593.979	1.001
602.523	1.001
611.066	0.998
619.61	0.994
628.153	0.99
636.697	0.981
645.24	0.964
653.784	0.954
662.327	0.9331
670.871	0.7861
679.414	0.4439
687.958	0.945
696.502	0.915
705.045	0.501
713.589	0.879
722.132	0.3867
730.676	0.2959
739.219	0.871
747.763	0.6922
756.306	0.049
764.85	0.6727
773.393	0.884
781.937	0.9009
790.48	0.975
799.024	0.9331
807.567	0.6348
816.111	0.639
824.655	0.6444
833.198	0.973
841.742	0.977
850.285	0.89
858.829	0.841
867.372	0.822
875.916	0.898
884.459	0.93
893.003	0.83
901.546	0.903
910.09	0.5233
918.633	0.5642
927.177	0.932
935.72	0.796
944.264	0.732
952.808	0.875
961.351	0.947
969.895	0.996
978.438	1.005
986.982	0.922
995.525	0.8385
1004.07	1
1012.61	0.984
1021.16	0.7907
1029.7	0.9089
1038.24	0.994
1046.79	1
1055.33	0.998
1063.87	0.971
1072.42	0.924
1080.96	0.947
1089.5	0.8861
1098.05	0.901
1106.59	0.8859
1115.13	0.928
1123.68	0.867
1132.22	0.66
1140.77	0.9009
1149.31	0.924
1157.85	0.83
1166.4	0.8807
1174.94	0.99
1183.48	0.996
1192.03	1.013
1200.57	1.013
1209.11	1.007
1217.66	0.977
1226.2	0.796
1234.74	0.956
1243.29	0.705
1251.83	0.5843
1260.37	0.6918
1268.92	0.924
1277.46	0.93
1286.01	0.8977
1294.55	0.911
1303.09	0.845
1311.64	0.788
1320.18	0.947
1328.72	0.941
1337.27	0.7671
1345.81	0.2518
1354.35	0.877
1362.9	0.9915
1371.44	0.998
1379.98	1.015
1388.53	1.022
1397.07	0.998
1405.61	0.984
1414.16	0.99
1422.7	0.9621
1431.25	0.928
1439.79	0.443
1448.33	0.7242
1456.88	0.7729
1465.42	0.956
1473.96	0.971
1482.51	0.95
1491.05	0.92
1499.59	0.883
1508.14	0.841
1516.68	0.779
1525.22	0.741
1533.77	0.6691
1542.31	0.588
1550.85	0.532
1559.4	0.594
1567.94	0.633
1576.49	0.654
1585.03	0.722
1593.57	0.7899
1602.12	0.8599
1610.66	0.803
1619.2	0.8348
1627.75	0.977
1636.29	0.95
1644.83	0.896
1653.38	1.011
1661.92	0.998
1670.46	0.996
1679.01	0.996
1687.55	0.966
1696.1	0.975
1704.64	0.992
1713.18	0.975
1721.73	0.971
1730.27	0.973
1738.81	0.983
1747.36	0.988
1755.9	1.001
1764.44	1.009
1772.99	1.009
1781.53	1.007
1790.07	1.013
1798.62	1.015
1807.16	1.001
1815.7	1.003
1824.25	0.996
1832.79	0.998
1841.34	1.001
1849.88	1.003
1858.42	1.001
1866.97	1
1875.51	0.998
1884.05	1.001
1892.6	1.005
1901.14	1.005
1909.68	1.003
1918.23	1.003
1926.77	1.003
1935.31	1.009
1943.86	1.015
1952.4	1.015
1960.94	1.013
1969.49	1.007
1978.03	1.011
1986.58	1.009
1995.12	1.007
2003.66	1.005
2012.21	1.005
2020.75	1.005
2029.29	1.009
2037.84	0.9991
2046.38	0.994
2054.92	1.001
2063.47	1
2072.01	0.996
2080.55	0.996
2089.1	0.996
2097.64	1
2106.18	1.0058
2114.73	1.005
2123.27	1.007
2131.82	1.009
2140.36	1.0062
2148.9	0.998
2157.45	0.998
2165.99	1
2174.53	1
2183.08	0.998
2191.62	0.9987
2200.16	0.998
2208.71	0.9953
2217.25	0.996
2225.79	0.9926
2234.34	1.0008
2242.88	1.0021
2251.42	0.998
2259.97	0.996
2268.51	0.99
2277.06	0.9874
2285.6	0.983
2294.14	0.9833
2302.69	0.9926
2311.23	0.996
2319.77	0.9975
2328.32	1.005
2336.86	1.0055
2345.4	1.0035
2353.95	1.005
2362.49	1.005
2371.03	1.003
2379.58	1
2388.12	1.0007
2396.66	1.0034
2405.21	1.005
2413.75	1.003
2422.3	1.003
2430.84	1
2439.38	1.001
2447.93	1.003
2456.47	1.005
2465.01	1.005
2473.56	1.003
2482.1	1.001
2490.64	1.001
2499.19	1.0009
2507.73	1
2516.27	1
2524.82	1
2533.36	1
2541.9	1
2550.45	1
2558.99	1
2567.54	1
2576.08	1
2584.62	0.998
2593.17	1
2601.71	1
2610.25	1.003
2618.8	1.005
2627.34	1.005
2635.88	1.005
2644.43	1.005
2652.97	1.005
2661.51	1.005
2670.06	1.007
2678.6	1.005
2687.15	1.0031
2695.69	1
2704.23	1.001
2712.78	1.003
2721.32	1.003
2729.86	0.998
2738.41	0.998
2746.95	1
2755.49	1.0001
2764.04	0.998
2772.58	0.9982
2781.12	0.9937
2789.67	0.9862
2798.21	0.9803
2806.75	0.975
2815.3	0.9553
2823.84	0.9361
2832.39	0.7944
2840.93	0.5637
2849.47	0.2512
2858.02	0.6253
2866.56	0.4176
2875.1	0.3467
2883.65	0.4174
2892.19	0.2326
2900.73	0.1294
2909.28	0.149
2917.82	0.203
2926.36	0.1046
2934.91	0.045
2943.45	0.1035
2951.99	0.1332
2960.54	0.038
2969.08	0.0085
2977.63	0.0371
2986.17	0.2229
2994.71	0.4821
3003.26	0.6127
3011.8	0.8055
3020.34	0.8256
3028.89	0.8005
3037.43	0.6363
3045.97	0.3061
3054.52	0.2819
3063.06	0.3237
3071.6	0.5356
3080.15	0.7527
3088.69	0.9413
3097.23	0.9685
3105.78	0.9854
3114.32	1
3122.87	0.9998
3131.41	0.9871
3139.95	0.9492
3148.5	0.9294
3157.04	1.0036
3165.58	1.0215
3174.13	1.0282
3182.67	1.03
3191.21	1.0299
3199.76	1.026
3208.3	1.0148
3216.84	0.9918
3225.39	1
3233.93	1.0137
3242.47	1.024
3251.02	1.0271
3259.56	1.03
3268.11	1.031
3276.65	1.032
3285.19	1.033
3293.74	1.033
3302.28	1.033
3310.82	1.033
3319.37	1.035
3327.91	1.035
3336.45	1.035
3345	1.035
3353.54	1.035
3362.08	1.035
3370.63	1.035
3379.17	1.035
3387.71	1.035
3396.26	1.033
3404.8	1.032
3413.35	1.0282
3421.89	1.028
3430.43	1.0262
3438.98	1.026
3447.52	1.024
3456.06	1.024
3464.61	1.024
3473.15	1.022
3481.69	1.022
3490.24	1.0233
3498.78	1.022
3507.32	1.02
3515.87	1.02
3524.41	1.02
3532.95	1.02
3541.5	1.02
3550.04	1.02
3558.59	1.02
3567.13	1.02
3575.67	1.0195
3584.22	1.018
3592.76	1.018
3601.3	1.018
3609.85	1.018
3618.39	1.015
3626.93	1.013
3635.48	1.013
3644.02	1.013
3652.56	1.013
3661.11	1.011
3669.65	1.011
3678.2	1.0086
3686.74	1.003
3695.28	1.0034
3703.83	1.009
3712.37	1.009
3720.91	1.009
3729.46	1.009
3738	1.009
3746.54	1.0087
3755.09	1.0057
3763.63	1.003
3772.17	1
3780.72	1.001
