Infrared Spectrum: Aluminum fluoride
Formula: Al F3
CAS: 7784-18-1
State: solid
Instrument: Bruker Tensor 37 FTIR
Resolution: 0.96450084
Origin: Pacific Northwest National Laboratory Under IARPA Contract
1/cm	Reflectance
7498.03	0.81646
7480.67	0.821134
7463.31	0.808777
7445.95	0.806055
7428.59	0.794575
7411.23	0.782487
7393.87	0.775581
7376.51	0.769143
7359.15	0.75324
7341.79	0.697039
7324.43	0.671492
7307.07	0.688306
7289.71	0.723739
7272.35	0.730212
7254.99	0.739264
7237.63	0.750761
7220.27	0.753853
7202.91	0.757156
7185.55	0.767131
7168.19	0.769887
7150.83	0.777112
7133.47	0.772561
7116.11	0.778371
7098.75	0.780955
7081.39	0.782344
7064.03	0.785662
7046.67	0.782733
7029.31	0.788897
7011.96	0.786901
6994.6	0.786108
6977.24	0.78861
6959.88	0.787159
6942.52	0.787753
6925.16	0.787643
6907.8	0.788647
6890.44	0.791207
6873.08	0.791656
6855.72	0.793574
6838.36	0.790951
6821	0.791804
6803.64	0.791278
6786.28	0.786058
6768.92	0.789233
6751.56	0.786516
6734.2	0.788573
6716.84	0.78832
6699.48	0.786889
6682.12	0.785986
6664.76	0.785711
6647.4	0.785488
6630.04	0.784434
6612.68	0.786226
6595.32	0.786038
6577.96	0.785464
6560.6	0.785684
6543.24	0.784759
6525.88	0.783595
6508.52	0.782323
6491.16	0.782675
6473.8	0.781416
6456.44	0.777952
6439.08	0.773744
6421.72	0.756946
6404.36	0.722557
6387	0.70811
6369.64	0.674298
6352.28	0.671384
6334.92	0.688806
6317.56	0.705469
6300.2	0.710625
6282.84	0.717441
6265.48	0.722259
6248.12	0.725794
6230.76	0.729744
6213.4	0.733934
6196.04	0.734298
6178.68	0.710559
6161.32	0.695204
6143.97	0.687255
6126.61	0.648393
6109.25	0.684487
6091.89	0.670129
6074.53	0.661408
6057.17	0.67183
6039.81	0.680859
6022.45	0.687391
6005.09	0.690803
5987.73	0.688827
5970.37	0.683673
5953.01	0.677544
5935.65	0.670726
5918.29	0.664177
5900.93	0.655722
5883.57	0.645723
5866.21	0.635169
5848.85	0.623631
5831.49	0.608306
5814.13	0.58905
5796.77	0.5687
5779.41	0.547679
5762.05	0.534969
5744.69	0.522085
5727.33	0.504243
5709.97	0.476907
5692.61	0.451844
5675.25	0.430382
5657.89	0.431899
5640.53	0.373586
5623.17	0.233572
5605.81	0.188313
5588.45	0.110036
5571.09	0.0505918
5553.73	0.0771621
5536.37	0.0759563
5519.01	0.074444
5501.65	0.0739243
5484.29	0.0721825
5466.93	0.0688424
5449.57	0.0684252
5432.21	0.0690889
5414.85	0.0727973
5397.49	0.0766605
5380.13	0.0812547
5362.77	0.0856725
5345.41	0.0881966
5328.05	0.0875989
5310.69	0.0941681
5293.33	0.105872
5275.97	0.121565
5258.62	0.137153
5241.26	0.152632
5223.9	0.168369
5206.54	0.185622
5189.18	0.203415
5171.82	0.221463
5154.46	0.241434
5137.1	0.263142
5119.74	0.285412
5102.38	0.305086
5085.02	0.319123
5067.66	0.326135
5050.3	0.324436
5032.94	0.318697
5015.58	0.316523
4998.22	0.321596
4980.86	0.329812
4963.5	0.338373
4946.14	0.346368
4928.78	0.357016
4911.42	0.374292
4894.06	0.381615
4876.7	0.384592
4859.34	0.383847
4841.98	0.39071
4824.62	0.39655
4807.26	0.399248
4789.9	0.401702
4772.54	0.404374
4755.18	0.405401
4737.82	0.403898
4720.46	0.401764
4703.1	0.398591
4685.74	0.389996
4668.38	0.377128
4651.02	0.364111
4633.66	0.343513
4616.3	0.301983
4598.94	0.223911
4581.58	0.161731
4564.22	0.13325
4546.86	0.184914
4529.5	0.212031
4512.14	0.212031
4494.78	0.201823
4477.42	0.178204
4460.06	0.166754
4442.7	0.143665
4425.34	0.108077
4407.98	0.068248
4390.63	0.0422635
4373.27	0.0268538
4355.91	0.0190234
4338.55	0.0173245
4321.19	0.0154325
4303.83	0.0139762
4286.47	0.0139853
4269.11	0.0133122
4251.75	0.0138276
4234.39	0.0136204
4217.03	0.0143824
4199.67	0.0180321
4182.31	0.0261041
4164.95	0.0637029
4147.59	0.126753
4130.23	0.136143
4112.87	0.144938
4095.51	0.150455
4078.15	0.148787
4060.79	0.0595629
4043.43	0.82269
4026.07	0.821199
4008.71	0.814586
3991.35	0.810674
3973.99	0.794651
3956.63	0.781654
3939.27	0.778598
3921.91	0.770415
3904.55	0.753474
3887.19	0.675851
3869.83	0.687578
3852.47	0.720086
3835.11	0.735411
3817.75	0.74569
3800.39	0.754536
3783.03	0.762828
3765.67	0.769423
3748.31	0.77308
3730.95	0.779837
3713.59	0.781933
3696.23	0.783238
3678.87	0.787046
3661.51	0.790814
3644.15	0.793059
3626.79	0.792718
3609.43	0.794057
3592.07	0.796554
3574.71	0.796393
3557.35	0.79756
3539.99	0.795445
3522.64	0.798098
3505.28	0.797156
3487.92	0.79969
3470.56	0.798799
3453.2	0.798917
3435.84	0.799242
3418.48	0.800466
3401.12	0.799953
3383.76	0.801315
3366.4	0.80298
3349.04	0.801685
3331.68	0.799114
3314.32	0.799436
3296.96	0.79835
3279.6	0.797487
3262.24	0.798617
3244.88	0.798308
3227.52	0.796574
3210.16	0.796059
3192.8	0.797737
3175.44	0.797202
3158.08	0.797298
3140.72	0.79699
3123.36	0.797589
3106	0.796221
3088.64	0.795994
3071.28	0.796059
3053.92	0.794784
3036.56	0.794783
3019.2	0.793102
3001.84	0.790913
2984.48	0.784203
2967.12	0.762586
2949.76	0.742695
2932.4	0.721623
2915.04	0.687052
2897.68	0.699345
2880.32	0.719825
2862.96	0.730778
2845.6	0.734109
2828.24	0.738487
2810.88	0.742332
2793.52	0.746016
2776.16	0.749207
2758.8	0.75074
2741.44	0.749526
2724.08	0.694016
2706.72	0.721433
2689.36	0.656678
2672	0.683226
2654.64	0.69832
2637.29	0.682615
2619.93	0.679395
2602.57	0.69168
2585.21	0.699098
2567.85	0.703576
2550.49	0.705592
2533.13	0.7023
2515.77	0.696531
2498.41	0.690727
2481.05	0.683199
2463.69	0.67666
2446.33	0.669001
2428.97	0.658728
2411.61	0.648419
2394.25	0.636826
2376.89	0.620555
2359.53	0.601037
2342.17	0.580468
2324.81	0.561815
2307.45	0.549749
2290.09	0.537539
2272.73	0.515033
2255.37	0.490204
2238.01	0.460969
2220.65	0.453176
2203.29	0.444098
2185.93	0.337978
2168.57	0.225702
2151.21	0.18651
2133.85	0.0569146
2116.49	0.0693811
2099.13	0.083722
2081.77	0.0811236
2064.41	0.0802757
2047.05	0.0795476
2029.69	0.0764618
2012.33	0.0734605
1994.97	0.0731499
1977.61	0.0753593
1960.25	0.0787894
1942.89	0.0841463
1925.53	0.0895019
1908.17	0.0936887
1890.81	0.0949421
1873.45	0.0950179
1856.09	0.10458
1838.73	0.118872
1821.37	0.136308
1804.01	0.152101
1786.65	0.168779
1769.3	0.186004
1751.94	0.20407
1734.58	0.222061
1717.22	0.24142
1699.86	0.262413
1682.5	0.284352
1665.14	0.306618
1647.78	0.325325
1630.42	0.337831
1613.06	0.342248
1595.7	0.338917
1578.34	0.333554
1560.98	0.334091
1543.62	0.340269
1526.26	0.348683
1508.9	0.356394
1491.54	0.364538
1474.18	0.377565
1456.82	0.390865
1439.46	0.400483
1422.1	0.399148
1404.74	0.399041
1387.38	0.410047
1370.02	0.414612
1352.66	0.416729
1335.3	0.419554
1317.94	0.422015
1300.58	0.421783
1283.22	0.417664
1265.86	0.416183
1248.5	0.410629
1231.14	0.399983
1213.78	0.386102
1196.42	0.37152
1179.06	0.34742
1161.7	0.295246
1144.34	0.213503
1126.98	0.152865
1109.62	0.152623
1092.26	0.209726
1074.9	0.224925
1057.54	0.216838
1040.18	0.201393
1022.82	0.182611
1005.46	0.166372
988.104	0.137301
970.744	0.0972549
953.384	0.0576329
936.025	0.0364415
918.665	0.0241617
901.305	0.0167955
883.945	0.0165692
866.585	0.0141909
849.226	0.0137359
831.866	0.0135716
814.506	0.0131389
797.146	0.0132993
779.786	0.0133568
762.427	0.0152406
745.067	0.0194423
727.707	0.0342763
710.347	0.0897321
692.987	0.132404
675.628	0.1422
658.268	0.142267
640.908	0.154648
623.548	0.119367
606.188	0.0466594
