Infrared Spectrum: Silane, dimethyldiphenyl-
Formula: C14 H16 Si
CAS: 778-24-5
State: SOLUTION (10% CCl4 FOR 3800-1300, 2% CS2 FOR 1300-650, AND 10% CCl4 FOR 650-250)
Boiling point: 114 C AT 3 mmHg
Class: COBLENTZ II
Instrument: PERKIN-ELMER 521 (GRATING)
Instrument parameters: FILTERS AT 3150, 2500, 2000, 1150, 700, 410. GRATING CHANGES: 2000, 630
Path length: 0.011 CM, 0.012 CM, AND 0.020 CM
Resolution: 2
Origin: DOW CORNING CORP.
1/CM	TRANSMITTANCE
242	0.8146
251	0.8244
260	0.817
269	0.7968
278	0.7647
287	0.7212
296	0.6709
305	0.695
314	0.7621
323	0.799
332	0.7951
341	0.7569
350	0.595
359	0.439
368	0.6617
377	0.7869
386	0.7588
395	0.7447
404	0.6254
413	0.373
422	0.093
431	0.576
440	0.674
449	0.5715
458	0.2825
467	0.2222
476	0.1836
485	0.3502
494	0.7175
503	0.7852
512	0.8079
521	0.8166
530	0.8204
539	0.8205
548	0.8193
557	0.818
566	0.8195
575	0.8251
584	0.8353
593	0.8325
602	0.8207
611	0.7591
620	0.7909
629	0.7454
638	0.3616
647	0.5372
656	0.8566
665	0.838
674	0.8267
683	0.8035
692	0.5885
701	0.3369
710	0.735
719	0.622
728	0.3112
737	0.6473
746	0.7352
755	0.7887
764	0.7357
773	0.3941
782	0.7739
791	0.7701
800	0.6803
809	0.3166
818	0.4617
827	0.3687
836	0.7025
845	0.7567
854	0.7914
863	0.8097
872	0.8196
881	0.8402
890	0.842
899	0.8402
908	0.8416
917	0.8476
926	0.848
935	0.8477
944	0.8464
953	0.8441
962	0.8444
971	0.8434
980	0.8361
989	0.8157
998	0.816
1007	0.832
1016	0.8246
1025	0.8168
1034	0.8149
1043	0.8021
1052	0.7895
1061	0.7802
1070	0.786
1079	0.7741
1088	0.741
1097	0.6359
1106	0.3984
1115	0.637
1124	0.7254
1133	0.8075
1142	0.8054
1151	0.8112
1160	0.8189
1169	0.8196
1178	0.8086
1187	0.8082
1196	0.8257
1205	0.8342
1214	0.8303
1223	0.8201
1232	0.7949
1241	0.5572
1250	0.6713
1259	0.7543
1268	0.825
1277	0.8302
1286	0.8213
1295	0.7987
1304	0.7392
1313	0.7307
1322	0.7513
1331	0.7721
1340	0.8317
1349	0.8411
1358	0.8262
1367	0.77
1376	0.8063
1385	0.7866
1394	0.6966
1403	0.5859
1412	0.6323
1421	0.3863
1430	0.5376
1439	0.784
1448	0.7859
1457	0.8059
1466	0.8088
1475	0.7823
1484	0.5204
1493	0.8317
1502	0.8358
1511	0.8304
1520	0.827
1529	0.8155
1538	0.8042
1547	0.7943
1556	0.8017
1565	0.7966
1574	0.7851
1583	0.7232
1592	0.8282
1601	0.8256
1610	0.8211
1619	0.8371
1628	0.8364
1637	0.8115
1646	0.8242
1655	0.8471
1664	0.852
1673	0.8566
1682	0.8577
1691	0.8525
1700	0.8579
1709	0.8597
1718	0.8595
1727	0.8633
1736	0.8604
1745	0.8581
1754	0.8337
1763	0.8326
1772	0.8416
1781	0.8601
1790	0.8554
1799	0.8356
1808	0.7846
1817	0.7816
1826	0.8258
1835	0.8507
1844	0.8578
1853	0.8576
1862	0.8522
1871	0.7908
1880	0.7699
1889	0.7711
1898	0.8383
1907	0.861
1916	0.8617
1925	0.8538
1934	0.8409
1943	0.7847
1952	0.7989
1961	0.8017
1970	0.8565
1979	0.864
1988	0.8692
1997	0.8687
2006	0.87
2015	0.8683
2024	0.8669
2033	0.8675
2042	0.8686
2051	0.8687
2060	0.8687
2069	0.8684
2078	0.8683
2087	0.8684
2096	0.8685
2105	0.8684
2114	0.8683
2123	0.8682
2132	0.868
2141	0.8678
2150	0.8676
2159	0.8673
2168	0.867
2177	0.8666
2186	0.8663
2195	0.866
2204	0.8657
2213	0.8649
2222	0.864
2231	0.8633
2240	0.863
2249	0.8631
2258	0.863
2267	0.8628
2276	0.8622
2285	0.8615
2294	0.8614
2303	0.8615
2312	0.863
2321	0.866
2330	0.8673
2339	0.8694
2348	0.8721
2357	0.8705
2366	0.8671
2375	0.8656
2384	0.8653
2393	0.8651
2402	0.8648
2411	0.8642
2420	0.8633
2429	0.8623
2438	0.8611
2447	0.8598
2456	0.8585
2465	0.8565
2474	0.8542
2483	0.8554
2492	0.8587
2501	0.8599
2510	0.8593
2519	0.8588
2528	0.857
2537	0.8551
2546	0.8532
2555	0.8515
2564	0.852
2573	0.8529
2582	0.8486
2591	0.848
2600	0.8484
2609	0.8502
2618	0.8538
2627	0.8537
2636	0.8531
2645	0.8523
2654	0.8515
2663	0.8493
2672	0.8462
2681	0.8417
2690	0.8386
2699	0.8423
2708	0.8499
2717	0.8515
2726	0.8513
2735	0.85
2744	0.8483
2753	0.8459
2762	0.8429
2771	0.8398
2780	0.8356
2789	0.8305
2798	0.8271
2807	0.828
2816	0.8247
2825	0.8276
2834	0.8254
2843	0.82
2852	0.8169
2861	0.8136
2870	0.8026
2879	0.778
2888	0.7524
2897	0.6844
2906	0.7121
2915	0.7512
2924	0.7553
2933	0.75
2942	0.7188
2951	0.4871
2960	0.3181
2969	0.4767
2978	0.6522
2987	0.6692
2996	0.5492
3005	0.4621
3014	0.447
3023	0.4364
3032	0.5528
3041	0.5435
3050	0.3811
3059	0.393
3068	0.3247
3077	0.3127
3086	0.6015
3095	0.6589
3104	0.8039
3113	0.8074
3122	0.8075
3131	0.7714
3140	0.7605
3149	0.8275
3158	0.8307
3167	0.8296
3176	0.831
3185	0.8352
3194	0.8389
3203	0.8423
3212	0.8455
3221	0.8496
3230	0.8513
3239	0.8525
3248	0.8529
3257	0.8532
3266	0.8532
3275	0.853
3284	0.8529
3293	0.8528
3302	0.8527
3311	0.8526
3320	0.8525
3329	0.8527
3338	0.8531
3347	0.8534
3356	0.8537
3365	0.854
3374	0.8543
3383	0.8545
3392	0.855
3401	0.8556
3410	0.8563
3419	0.8569
3428	0.8577
3437	0.8584
3446	0.8592
3455	0.86
3464	0.861
3473	0.8624
3482	0.8639
3491	0.8653
3500	0.8664
3509	0.8668
3518	0.8674
3527	0.8678
3536	0.8685
3545	0.8692
3554	0.8699
3563	0.8709
3572	0.872
3581	0.8811
3590	0.878
3599	0.8677
3608	0.8665
3617	0.865
3626	0.8643
3635	0.8642
3644	0.8677
3653	0.8661
3662	0.8646
3671	0.8658
3680	0.8623
3689	0.8611
3698	0.8617
3707	0.8626
3716	0.8649
3725	0.8675
3734	0.8719
3743	0.8779
3752	0.8805
3761	0.878
3770	0.8793
3779	0.8785
3788	0.8788
3797	0.8822
3806	0.8894
