Infrared Spectrum: 1,1,1-Trimethylol propane
Formula: C6 H14 O3
CAS: 77-99-6
State: SOLID (NEAT)
Class: COBLENTZ III
Instrument: DOW KBr FOREPRISM-GRATING
Instrument parameters: BLAZED AT 3.5, 12.0, 20.0 MICRON AND CHANGED AT 5.0, 7.5, 14.9 MICRON
Sampling: TRANSMISSION
Path length: SMEAR ON KBr
Resolution: 2
Origin: DOW CHEMICAL COMPANY
1/CM	TRANSMITTANCE
3794	0.6796
3785	0.6801
3776	0.6808
3767	0.6814
3758	0.6818
3749	0.6821
3740	0.6833
3731	0.6845
3722	0.6858
3713	0.6869
3704	0.6883
3695	0.6896
3686	0.6908
3677	0.6919
3668	0.6933
3659	0.6945
3650	0.6958
3641	0.6969
3632	0.6978
3623	0.6988
3614	0.6991
3605	0.6993
3596	0.6992
3587	0.6989
3578	0.6981
3569	0.6967
3560	0.6934
3551	0.6888
3542	0.6818
3533	0.6732
3524	0.6637
3515	0.6539
3506	0.6403
3497	0.6255
3488	0.6089
3479	0.5871
3470	0.5612
3461	0.5349
3452	0.506
3443	0.476
3434	0.4428
3425	0.4032
3416	0.3708
3407	0.3399
3398	0.309
3389	0.2781
3380	0.2292
3371	0.1948
3362	0.1652
3353	0.1378
3344	0.1166
3335	0.1031
3326	0.0924
3317	0.0842
3308	0.0781
3299	0.072
3290	0.066
3281	0.0604
3272	0.0557
3263	0.0532
3254	0.053
3245	0.0547
3236	0.0593
3227	0.0705
3218	0.0857
3209	0.1041
3200	0.1252
3191	0.1446
3182	0.164
3173	0.1848
3164	0.2111
3155	0.2417
3146	0.2748
3137	0.3067
3128	0.3356
3119	0.3609
3110	0.382
3101	0.4046
3092	0.4258
3083	0.4451
3074	0.4645
3065	0.4871
3056	0.5042
3047	0.5174
3038	0.5281
3029	0.5376
3020	0.547
3011	0.5534
3002	0.5576
2993	0.5577
2984	0.5434
2975	0.3504
2966	0.2704
2957	0.3194
2948	0.3632
2939	0.2713
2930	0.1753
2921	0.2156
2912	0.2764
2903	0.3312
2894	0.317
2885	0.3312
2876	0.3625
2867	0.3862
2858	0.3566
2849	0.345
2840	0.4388
2831	0.4762
2822	0.499
2813	0.5171
2804	0.5336
2795	0.5435
2786	0.55
2777	0.5515
2768	0.5499
2759	0.5464
2750	0.5439
2741	0.5522
2732	0.5647
2723	0.5764
2714	0.5862
2705	0.5951
2696	0.6024
2687	0.6047
2678	0.5991
2669	0.596
2660	0.5966
2651	0.604
2642	0.6123
2633	0.6207
2624	0.6325
2615	0.6468
2606	0.6612
2597	0.6758
2588	0.6885
2579	0.6981
2570	0.7062
2561	0.7135
2552	0.7165
2543	0.7154
2534	0.7143
2525	0.7168
2516	0.7198
2507	0.7238
2498	0.7281
2489	0.7325
2480	0.7365
2471	0.7401
2462	0.7431
2453	0.7458
2444	0.7482
2435	0.7506
2426	0.7531
2417	0.7555
2408	0.7578
2399	0.7597
2390	0.7611
2381	0.7618
2372	0.7621
2363	0.7624
2354	0.7625
2345	0.7625
2336	0.7626
2327	0.7637
2318	0.766
2309	0.7686
2300	0.7715
2291	0.7744
2282	0.7769
2273	0.7796
2264	0.7819
2255	0.7837
2246	0.7854
2237	0.7864
2228	0.7871
2219	0.789
2210	0.7918
2201	0.7949
2192	0.7975
2183	0.8021
2174	0.8099
2165	0.8082
2156	0.8068
2147	0.8064
2138	0.8061
2129	0.8061
2120	0.8075
2111	0.8087
2102	0.8074
2093	0.8048
2084	0.8015
2075	0.8001
2066	0.8026
2057	0.8067
2048	0.8093
2039	0.8097
2030	0.8099
2021	0.8121
2012	0.8168
2003	0.8196
1994	0.8199
1985	0.8211
1976	0.8216
1967	0.8218
1958	0.8224
1949	0.8236
1940	0.8256
1931	0.8275
1922	0.8294
1913	0.8323
1904	0.8354
1895	0.8375
1886	0.839
1877	0.8398
1868	0.8401
1859	0.8401
1850	0.8399
1841	0.8398
1832	0.8396
1823	0.8405
1814	0.8424
1805	0.8443
1796	0.8459
1787	0.8475
1778	0.8492
1769	0.8508
1760	0.8521
1751	0.8528
1742	0.8531
1733	0.8501
1724	0.8451
1715	0.8407
1706	0.8371
1697	0.8362
1688	0.8387
1679	0.8399
1670	0.8398
1661	0.8377
1652	0.8352
1643	0.8345
1634	0.8336
1625	0.8325
1616	0.8316
1607	0.8307
1598	0.8297
1589	0.8282
1580	0.8267
1571	0.8251
1562	0.8235
1553	0.8218
1544	0.8206
1535	0.8192
1526	0.8168
1517	0.8118
1508	0.8018
1499	0.7858
1490	0.4299
1481	0.6462
1472	0.5307
1463	0.5942
1454	0.6001
1445	0.6868
1436	0.6186
1427	0.6254
1418	0.7303
1409	0.7546
1400	0.7554
1391	0.735
1382	0.5308
1373	0.5373
1364	0.4795
1355	0.4532
1346	0.3873
1337	0.5164
1328	0.6009
1319	0.7042
1310	0.7371
1301	0.743
1292	0.6895
1283	0.6551
1274	0.7458
1265	0.7719
1256	0.7775
1247	0.783
1238	0.7918
1229	0.8005
1220	0.8025
1211	0.7889
1202	0.7511
1193	0.6969
1184	0.7069
1175	0.7296
1166	0.7625
1157	0.7799
1148	0.8097
1139	0.8289
1130	0.8392
1121	0.8452
1112	0.8506
1103	0.8524
1094	0.8501
1085	0.7924
1076	0.3314
1067	0.3843
1058	0.2284
1049	0.5634
1040	0.6535
1031	0.638
1022	0.3134
1013	0.1095
1004	0.2081
995	0.4719
986	0.2976
977	0.7432
968	0.7825
959	0.5474
950	0.7944
941	0.8413
932	0.8654
923	0.8788
914	0.8885
905	0.8932
896	0.8992
887	0.893
878	0.8903
869	0.8814
860	0.8487
851	0.8831
842	0.8815
833	0.8747
824	0.8635
815	0.8418
806	0.8069
797	0.7628
788	0.6495
779	0.5491
770	0.6023
761	0.6885
752	0.7885
743	0.7958
734	0.7911
725	0.7761
716	0.751
707	0.7095
698	0.6381
689	0.5983
680	0.5757
671	0.5777
662	0.624
653	0.6472
644	0.6553
635	0.66
626	0.6786
617	0.7167
608	0.7547
599	0.7805
590	0.7865
581	0.7648
572	0.7574
563	0.7869
554	0.8186
545	0.8385
536	0.8318
527	0.8431
518	0.8594
509	0.8734
500	0.8828
491	0.8921
482	0.9008
473	0.9088
464	0.9158
455	0.9221
446	0.9286
437	0.93
428	0.895
419	0.8514
410	0.8475
401	0.8535
