Infrared Spectrum: MERCURY, DIBENZYL-,
Formula: C14 H14 Hg
CAS: 780-24-5
State: SOLID (MICRO SPLIT MULL), FLUOROLUBE FOR 3800-1335 CM^-^1, NUJOL FOR 1335-460 CM^-^1
Class: COBLENTZ III
Instrument: BECKMAN IR-9 (GRATING)
Instrument parameters: ORDER CHANGES: 670, 1200, 2000 CM^-^1
Sampling: TRANSMISSION
Resolution: 2
Origin: DOW CHEMICAL COMPANY
1/CM	TRANSMITTANCE
402.637	0.71
411.428	0.704
420.219	0.723
429.011	0.763
437.802	0.795
446.593	0.644
455.384	0.858
464.176	0.924
472.967	0.953
481.758	0.972
490.549	0.989
499.341	1.004
508.132	1.012
516.923	1.017
525.714	1.017
534.505	1.005
543.297	0.95
552.088	1.005
560.879	0.993
569.67	1.008
578.462	1.012
587.253	1.015
596.044	1.016
604.835	1.019
613.627	1.017
622.418	1.002
631.209	1.015
640	1.013
648.791	1.004
657.583	1.009
666.374	1.005
675.165	1.004
683.956	0.995
692.748	0.951
701.539	0.3179
710.33	0.77
719.121	0.929
727.913	0.912
736.704	0.935
745.495	0.923
754.286	0.581
763.077	0.4271
771.869	0.913
780.66	0.957
789.451	0.972
798.242	0.94
807.034	0.917
815.825	0.969
824.616	0.961
833.407	0.973
842.198	0.857
850.99	0.972
859.781	0.994
868.572	0.997
877.363	0.995
886.155	0.995
894.946	0.989
903.737	0.967
912.528	0.984
921.32	0.989
930.111	0.987
938.902	0.987
947.693	0.982
956.484	0.98
965.276	0.968
974.067	0.95
982.858	0.95
991.649	0.947
1000.44	0.925
1009.23	0.943
1018.02	0.925
1026.81	0.8038
1035.61	0.917
1044.4	0.905
1053.19	0.653
1061.98	0.877
1070.77	0.896
1079.56	0.8149
1088.35	0.6201
1097.14	0.8419
1105.94	0.839
1114.73	0.909
1123.52	0.903
1132.31	0.939
1141.1	0.942
1149.89	0.936
1158.68	0.923
1167.47	0.888
1176.27	0.8979
1185.06	0.895
1193.85	0.918
1202.64	0.869
1211.43	0.394
1220.22	0.912
1229.01	0.938
1237.8	0.934
1246.6	0.914
1255.39	0.906
1264.18	0.894
1272.97	0.894
1281.76	0.902
1290.55	0.902
1299.34	0.896
1308.13	0.894
1316.92	0.873
1325.72	0.913
1334.51	0.913
1343.3	0.917
1352.09	0.921
1360.88	0.951
1369.67	0.965
1378.46	0.968
1387.25	0.958
1396.05	0.967
1404.84	0.962
1413.63	0.957
1422.42	0.935
1431.21	0.961
1440	0.961
1448.79	0.6677
1457.58	0.938
1466.38	0.936
1475.17	0.936
1483.96	0.6258
1492.75	0.8093
1501.54	1.034
1510.33	1.027
1519.12	1.017
1527.91	1.017
1536.71	1.006
1545.5	0.994
1554.29	0.991
1563.08	0.975
1571.87	0.947
1580.66	0.938
1589.45	0.858
1598.24	0.6712
1607.04	0.972
1615.83	1.002
1624.62	0.991
1633.41	0.987
1642.2	0.99
1650.99	0.982
1659.78	0.976
1668.57	0.975
1677.37	0.989
1686.16	1.002
1694.95	1.004
1703.74	1.006
1712.53	1.01
1721.32	1.008
1730.11	1.001
1738.9	0.991
1747.7	0.98
1756.49	0.987
1765.28	1.004
1774.07	1.009
1782.86	1.01
1791.65	1.008
1800.44	1
1809.23	0.99
1818.03	0.998
1826.82	1.002
1835.61	1.004
1844.4	1.005
1853.19	1.002
1861.98	0.994
1870.77	0.978
1879.56	0.982
1888.35	0.984
1897.15	0.994
1905.94	0.995
1914.73	0.995
1923.52	0.993
1932.31	0.982
1941.1	0.9679
1949.89	0.978
1958.68	0.976
1967.48	0.986
1976.27	0.987
1985.06	0.983
1993.85	0.983
2002.64	0.97
2011.43	0.9755
2020.22	0.9785
2029.01	0.98
2037.81	0.982
2046.6	0.982
2055.39	0.982
2064.18	0.982
2072.97	0.982
2081.76	0.983
2090.55	0.984
2099.34	0.986
2108.14	0.986
2116.93	0.9834
2125.72	0.983
2134.51	0.982
2143.3	0.982
2152.09	0.9793
2160.88	0.978
2169.67	0.9689
2178.47	0.9537
2187.26	0.9665
2196.05	0.9677
2204.84	0.968
2213.63	0.9672
2222.42	0.965
2231.21	0.9612
2240	0.958
2248.8	0.954
2257.59	0.953
2266.38	0.949
2275.17	0.9452
2283.96	0.942
2292.75	0.9323
2301.54	0.9319
2310.33	0.9359
2319.13	0.936
2327.92	0.936
2336.71	0.936
2345.5	0.938
2354.29	0.939
2363.08	0.94
2371.87	0.942
2380.66	0.94
2389.45	0.929
2398.25	0.928
2407.04	0.927
2415.83	0.928
2424.62	0.9291
2433.41	0.934
2442.2	0.935
2450.99	0.935
2459.78	0.935
2468.58	0.934
2477.37	0.931
2486.16	0.931
2494.95	0.931
2503.74	0.9307
2512.53	0.929
2521.32	0.929
2530.11	0.929
2538.91	0.929
2547.7	0.929
2556.49	0.928
2565.28	0.927
2574.07	0.927
2582.86	0.927
2591.65	0.925
2600.44	0.925
2609.24	0.925
2618.03	0.925
2626.82	0.924
2635.61	0.924
2644.4	0.923
2653.19	0.921
2661.98	0.92
2670.77	0.918
2679.57	0.9167
2688.36	0.9136
2697.15	0.913
2705.94	0.913
2714.73	0.913
2723.52	0.9126
2732.31	0.912
2741.1	0.909
2749.9	0.9066
2758.69	0.9041
2767.48	0.902
2776.27	0.9001
2785.06	0.898
2793.85	0.8955
2802.64	0.8915
2811.43	0.8875
2820.23	0.8819
2829.02	0.8755
2837.81	0.87
2846.6	0.8623
2855.39	0.8304
2864.18	0.824
2872.97	0.8338
2881.76	0.84
2890.56	0.842
2899.35	0.8301
2908.14	0.8111
2916.93	0.7633
2925.72	0.6883
2934.51	0.7284
2943.3	0.7822
2952.09	0.8027
2960.88	0.7562
2969.68	0.7971
2978.47	0.833
2987.26	0.842
2996.05	0.8279
3004.84	0.833
3013.63	0.8029
3022.42	0.6939
3031.21	0.7753
3040.01	0.85
3048.8	0.798
3057.59	0.7215
3066.38	0.8068
3075.17	0.7626
3083.96	0.8475
3092.75	0.8461
3101.54	0.8512
3110.34	0.8608
3119.13	0.8592
3127.92	0.857
3136.71	0.855
3145.5	0.854
3154.29	0.8511
3163.08	0.85
3171.87	0.848
3180.67	0.846
3189.46	0.842
3198.25	0.839
3207.04	0.839
3215.83	0.837
3224.62	0.8349
3233.41	0.832
3242.2	0.829
3251	0.8259
3259.79	0.8219
3268.58	0.817
3277.37	0.815
3286.16	0.8128
3294.95	0.8099
3303.74	0.809
3312.53	0.8069
3321.33	0.8038
3330.12	0.8
3338.91	0.798
3347.7	0.795
3356.49	0.793
3365.28	0.7918
3374.07	0.7888
3382.86	0.787
3391.66	0.7835
3400.45	0.7818
3409.24	0.778
3418.03	0.778
3426.82	0.778
3435.61	0.777
3444.4	0.776
3453.19	0.773
3461.99	0.7697
3470.78	0.769
3479.57	0.767
3488.36	0.766
3497.15	0.766
3505.94	0.766
3514.73	0.765
3523.52	0.763
3532.31	0.762
3541.11	0.762
3549.9	0.762
3558.69	0.76
3567.48	0.759
3576.27	0.758
3585.06	0.756
3593.85	0.7545
3602.64	0.752
3611.44	0.7515
3620.23	0.751
3629.02	0.75
3637.81	0.748
3646.6	0.7444
3655.39	0.744
3664.18	0.7418
3672.97	0.741
3681.77	0.741
3690.56	0.7394
3699.35	0.7378
3708.14	0.736
3716.93	0.733
3725.72	0.7323
3734.51	0.73
3743.3	0.7283
3752.1	0.726
3760.89	0.725
3769.68	0.722
3778.47	0.721
3787.26	0.719
3796.05	0.7173
