Infrared Spectrum: 9,10-DIMETHYLANTHRACENE
Formula: C16 H14
CAS: 781-43-1
State: SOLID (SPLIT MULL), FLUOROLUBE FOR 3800-1330 CM^-^1, NUJOL FOR 1330-400 CM^-^1
Class: COBLENTZ III
Instrument: DOW KBr FOREPRISM-GRATING
Instrument parameters: BLAZED AT 3.5, 12.0, 20.0 MICRON AND CHANGED AT 5.0, 7.5, 14.9 MICRON
Sampling: TRANSMISSION
Resolution: 2
Origin: DOW CHEMICAL COMPANY
1/CM	TRANSMITTANCE
383.692	0.888
392.587	0.898
401.483	0.908
410.378	0.922
419.274	0.935
428.169	0.948
437.065	0.959
445.96	0.967
454.856	0.977
463.751	0.988
472.647	0.995
481.542	0.998
490.438	1.002
499.333	1.002
508.229	1.002
517.124	0.997
526.02	0.991
534.915	0.997
543.811	0.993
552.706	0.99
561.602	0.99
570.497	0.962
579.393	0.635
588.288	0.986
597.184	0.7719
606.079	1.013
614.975	1.012
623.87	1.009
632.766	1.013
641.661	1.013
650.557	1.012
659.452	1.008
668.348	1.001
677.243	0.994
686.139	0.987
695.034	0.973
703.93	0.952
712.825	0.908
721.721	0.837
730.616	0.767
739.512	0.6
748.407	0.1931
757.303	0.2252
766.198	0.8271
775.094	0.944
783.989	0.952
792.885	0.947
801.78	0.945
810.676	0.916
819.571	0.906
828.467	0.933
837.362	0.923
846.258	0.919
855.153	0.923
864.049	0.912
872.944	0.903
881.84	0.899
890.735	0.894
899.631	0.894
908.526	0.892
917.422	0.885
926.317	0.878
935.212	0.873
944.108	0.864
953.003	0.863
961.899	0.855
970.794	0.844
979.69	0.823
988.585	0.778
997.481	0.845
1006.38	0.848
1015.27	0.83
1024.17	0.591
1033.06	0.845
1041.96	0.838
1050.85	0.835
1059.75	0.821
1068.64	0.828
1077.54	0.827
1086.44	0.831
1095.33	0.834
1104.23	0.835
1113.12	0.824
1122.02	0.824
1130.91	0.817
1139.81	0.814
1148.7	0.788
1157.6	0.779
1166.5	0.747
1175.39	0.791
1184.29	0.749
1193.18	0.796
1202.08	0.791
1210.97	0.785
1219.87	0.778
1228.76	0.775
1237.66	0.772
1246.55	0.761
1255.45	0.752
1264.35	0.742
1273.24	0.717
1282.14	0.722
1291.03	0.721
1299.93	0.707
1308.82	0.704
1317.72	0.71
1326.61	0.703
1335.51	0.711
1344.41	0.697
1353.3	0.683
1362.2	0.618
1371.09	0.711
1379.99	0.692
1388.88	0.6
1397.78	0.816
1406.67	0.798
1415.57	0.786
1424.46	0.774
1433.36	0.754
1442.26	0.685
1451.15	0.837
1460.05	0.835
1468.94	0.834
1477.84	0.831
1486.73	0.834
1495.63	0.823
1504.52	0.827
1513.42	0.838
1522.31	0.807
1531.21	0.83
1540.11	0.85
1549	0.853
1557.9	0.853
1566.79	0.849
1575.69	0.845
1584.58	0.837
1593.48	0.816
1602.37	0.818
1611.27	0.786
1620.17	0.55
1629.06	0.814
1637.96	0.83
1646.85	0.831
1655.75	0.82
1664.64	0.816
1673.54	0.811
1682.43	0.781
1691.33	0.761
1700.22	0.803
1709.12	0.83
1718.02	0.816
1726.91	0.814
1735.81	0.789
1744.7	0.796
1753.6	0.814
1762.49	0.814
1771.39	0.809
1780.28	0.798
1789.18	0.778
1798.08	0.786
1806.97	0.779
1815.87	0.793
1824.76	0.796
1833.66	0.788
1842.55	0.788
1851.45	0.779
1860.34	0.775
1869.24	0.775
1878.13	0.774
1887.03	0.766
1895.93	0.745
1904.82	0.771
1913.72	0.732
1922.61	0.746
1931.51	0.746
1940.4	0.714
1949.3	0.76
1958.19	0.749
1967.09	0.749
1975.99	0.745
1984.88	0.733
1993.78	0.732
2002.67	0.73
2011.57	0.7195
2020.46	0.713
2029.36	0.713
2038.25	0.713
2047.15	0.71
2056.04	0.706
2064.94	0.7005
2073.84	0.696
2082.73	0.694
2091.63	0.6915
2100.52	0.6845
2109.42	0.68
2118.31	0.678
2127.21	0.676
2136.1	0.675
2145	0.6685
2153.89	0.666
2162.79	0.6615
2171.69	0.658
2180.58	0.654
2189.48	0.6505
2198.37	0.649
2207.27	0.645
2216.16	0.6375
2225.06	0.633
2233.95	0.629
2242.85	0.624
2251.75	0.621
2260.64	0.616
2269.54	0.6155
2278.43	0.614
2287.33	0.61
2296.22	0.61
2305.12	0.6075
2314.01	0.605
2322.91	0.5994
2331.8	0.597
2340.7	0.596
2349.6	0.5935
2358.49	0.591
2367.39	0.589
2376.28	0.586
2385.18	0.5835
2394.07	0.582
2402.97	0.579
2411.86	0.577
2420.76	0.576
2429.66	0.575
2438.55	0.5725
2447.45	0.569
2456.34	0.565
2465.24	0.564
2474.13	0.5615
2483.03	0.561
2491.92	0.561
2500.82	0.561
2509.71	0.5559
2518.61	0.552
2527.51	0.551
2536.4	0.55
2545.3	0.548
2554.19	0.548
2563.09	0.5459
2571.98	0.5435
2580.88	0.5389
2589.77	0.534
2598.67	0.532
2607.56	0.527
2616.46	0.5234
2625.36	0.519
2634.25	0.516
2643.15	0.515
2652.04	0.5125
2660.94	0.511
2669.83	0.5085
2678.73	0.5055
2687.62	0.502
2696.52	0.4945
2705.42	0.4935
2714.31	0.491
2723.21	0.488
2732.1	0.488
2741	0.4849
2749.89	0.4805
2758.79	0.48
2767.68	0.479
2776.58	0.477
2785.47	0.4735
2794.37	0.47
2803.27	0.4655
2812.16	0.458
2821.06	0.4545
2829.95	0.4475
2838.85	0.44
2847.74	0.4305
2856.64	0.427
2865.53	0.427
2874.43	0.4249
2883.33	0.4209
2892.22	0.417
2901.12	0.4109
2910.01	0.408
2918.91	0.406
2927.8	0.406
2936.7	0.408
2945.59	0.412
2954.49	0.412
2963.38	0.41
2972.28	0.4069
2981.18	0.403
2990.07	0.3999
2998.97	0.3954
3007.86	0.394
3016.76	0.391
3025.65	0.3859
3034.55	0.381
3043.44	0.38
3052.34	0.38
3061.24	0.3743
3070.13	0.3727
3079.03	0.3954
3087.92	0.4126
3096.82	0.415
3105.71	0.412
3114.61	0.4069
3123.5	0.402
3132.4	0.398
3141.29	0.3944
3150.19	0.394
3159.09	0.3899
3167.98	0.387
3176.88	0.384
3185.77	0.3819
3194.67	0.3789
3203.56	0.3764
3212.46	0.3734
3221.35	0.371
3230.25	0.37
3239.14	0.369
3248.04	0.367
3256.94	0.364
3265.83	0.3624
3274.73	0.359
3283.62	0.3554
3292.52	0.352
3301.41	0.3484
3310.31	0.346
3319.2	0.345
3328.1	0.345
3337	0.345
3345.89	0.3444
3354.79	0.3398
3363.68	0.3384
3372.58	0.337
3381.47	0.337
3390.37	0.337
3399.26	0.3344
3408.16	0.3304
3417.05	0.328
3425.95	0.324
3434.85	0.324
3443.74	0.324
3452.64	0.324
3461.53	0.324
3470.43	0.323
3479.32	0.3204
3488.22	0.32
3497.11	0.32
3506.01	0.32
3514.91	0.318
3523.8	0.3164
3532.7	0.314
3541.59	0.3134
3550.49	0.313
3559.38	0.313
3568.28	0.311
3577.17	0.311
3586.07	0.311
3594.96	0.31
3603.86	0.3078
3612.76	0.3054
3621.65	0.303
3630.55	0.302
3639.44	0.3008
3648.34	0.3
3657.23	0.3
3666.13	0.302
3675.02	0.298
3683.92	0.2932
3692.81	0.292
3701.71	0.291
3710.61	0.2884
3719.5	0.286
3728.4	0.285
3737.29	0.284
3746.19	0.282
3755.08	0.279
3763.98	0.275
3772.87	0.274
3781.77	0.271
3790.67	0.2688
3799.56	0.267
