Infrared Spectrum: ANTHRACENE, 9,10-DIMETHYL-
Formula: C16 H14
CAS: 781-43-1
State: SOLID (SPLIT MULL, FLUOROLUBE FOR 3800-1333 AND NUJOL FOR 1333-400 CM ^-^1)
Melting point: 183 C
Class: COBLENTZ III
Instrument: DOW KBr FOREPRISM-GRATING
Instrument parameters: BLAZED AT 3.5, 12.0, 20.0 MICRON, CHANGED AT 5.0, 7.5, 14.9 MICRON
Sampling: TRANSMISSION
Resolution: 4
Origin: DOW CHEMICAL COMPANY
1/CM	TRANSMITTANCE
383.228	0.883
391.772	0.893
400.317	0.903
408.861	0.915
417.405	0.93
425.95	0.943
434.494	0.954
443.038	0.964
451.583	0.971
460.127	0.98
468.671	0.989
477.215	0.995
485.76	0.997
494.304	1
502.848	0.995
511.393	0.998
519.937	0.989
528.481	0.988
537.026	0.992
545.57	0.988
554.114	0.986
562.659	0.983
571.203	0.9231
579.747	0.644
588.292	0.98
596.836	0.8133
605.38	1.008
613.925	1.008
622.469	1.002
631.013	1.007
639.558	1.008
648.102	1.004
656.646	1.001
665.19	0.998
673.735	0.991
682.279	0.985
690.823	0.979
699.368	0.964
707.912	0.935
716.456	0.884
725.001	0.834
733.545	0.725
742.089	0.3632
750.634	0.307
759.178	0.5647
767.722	0.8438
776.267	0.94
784.811	0.946
793.355	0.942
801.9	0.943
810.444	0.932
818.988	0.8869
827.533	0.932
836.077	0.923
844.621	0.8621
853.165	0.92
861.71	0.912
870.254	0.909
878.798	0.903
887.343	0.892
895.887	0.89
904.431	0.89
912.976	0.883
921.52	0.881
930.064	0.872
938.609	0.868
947.153	0.827
955.697	0.861
964.242	0.849
972.786	0.837
981.33	0.807
989.875	0.778
998.419	0.843
1006.96	0.844
1015.51	0.827
1024.05	0.6721
1032.6	0.843
1041.14	0.84
1049.68	0.833
1058.23	0.824
1066.77	0.821
1075.32	0.825
1083.86	0.83
1092.41	0.831
1100.95	0.834
1109.49	0.825
1118.04	0.824
1126.58	0.815
1135.13	0.815
1143.67	0.806
1152.22	0.785
1160.76	0.75
1169.31	0.776
1177.85	0.781
1186.39	0.734
1194.94	0.793
1203.48	0.79
1212.03	0.784
1220.57	0.776
1229.12	0.775
1237.66	0.771
1246.2	0.76
1254.75	0.748
1263.29	0.737
1271.84	0.716
1280.38	0.72
1288.93	0.717
1297.47	0.706
1306.01	0.703
1314.56	0.703
1323.1	0.7
1331.65	0.722
1340.19	0.698
1348.74	0.695
1357.28	0.688
1365.82	0.534
1374.37	0.63
1382.91	0.633
1391.46	0.794
1400	0.806
1408.55	0.793
1417.09	0.784
1425.63	0.762
1434.18	0.748
1442.72	0.666
1451.27	0.836
1459.81	0.834
1468.36	0.833
1476.9	0.828
1485.44	0.828
1493.99	0.822
1502.53	0.824
1511.08	0.834
1519.62	0.824
1528.17	0.805
1536.71	0.846
1545.26	0.852
1553.8	0.852
1562.34	0.847
1570.89	0.844
1579.43	0.836
1587.98	0.819
1596.52	0.818
1605.07	0.812
1613.61	0.7201
1622.15	0.812
1630.7	0.815
1639.24	0.825
1647.79	0.825
1656.33	0.816
1664.88	0.813
1673.42	0.809
1681.96	0.775
1690.51	0.762
1699.05	0.809
1707.6	0.83
1716.14	0.816
1724.69	0.813
1733.23	0.79
1741.77	0.793
1750.32	0.809
1758.86	0.813
1767.41	0.809
1775.95	0.799
1784.5	0.774
1793.04	0.787
1801.58	0.776
1810.13	0.787
1818.67	0.794
1827.22	0.791
1835.76	0.787
1844.31	0.785
1852.85	0.776
1861.39	0.774
1869.94	0.775
1878.48	0.768
1887.03	0.763
1895.57	0.738
1904.12	0.769
1912.66	0.728
1921.21	0.747
1929.75	0.742
1938.29	0.709
1946.84	0.76
1955.38	0.748
1963.93	0.748
1972.47	0.741
1981.02	0.734
1989.56	0.729
1998.1	0.728
2006.65	0.7195
2015.19	0.711
2023.74	0.709
2032.28	0.709
2040.83	0.7079
2049.37	0.7039
2057.91	0.6989
2066.46	0.6969
2075	0.6914
2083.55	0.6889
2092.09	0.686
2100.64	0.679
2109.18	0.676
2117.72	0.675
2126.27	0.675
2134.81	0.6725
2143.36	0.666
2151.9	0.6626
2160.45	0.6586
2168.99	0.6536
2177.53	0.651
2186.08	0.648
2194.62	0.6453
2203.17	0.6405
2211.71	0.6352
2220.26	0.632
2228.8	0.627
2237.34	0.623
2245.89	0.6202
2254.43	0.615
2262.98	0.615
2271.52	0.6117
2280.07	0.61
2288.61	0.61
2297.16	0.608
2305.7	0.6046
2314.24	0.602
2322.79	0.5938
2331.33	0.596
2339.88	0.5942
2348.42	0.5902
2356.97	0.587
2365.51	0.586
2374.05	0.583
2382.6	0.581
2391.14	0.58
2399.69	0.577
2408.23	0.574
2416.78	0.573
2425.32	0.571
2433.86	0.568
2442.41	0.567
2450.95	0.565
2459.5	0.562
2468.04	0.561
2476.59	0.561
2485.13	0.559
2493.67	0.558
2502.22	0.555
2510.76	0.552
2519.31	0.549
2527.85	0.549
2536.4	0.5477
2544.94	0.5454
2553.48	0.545
2562.03	0.543
2570.57	0.539
2579.12	0.536
2587.66	0.5326
2596.21	0.5273
2604.75	0.5236
2613.29	0.519
2621.84	0.516
2630.38	0.5143
2638.93	0.512
2647.47	0.512
2656.02	0.509
2664.56	0.506
2673.11	0.5027
2681.65	0.4992
2690.19	0.4954
2698.74	0.4914
2707.28	0.49
2715.83	0.488
2724.37	0.487
2732.92	0.485
2741.46	0.483
2750	0.481
2758.55	0.48
2767.09	0.478
2775.64	0.475
2784.18	0.4691
2792.73	0.466
2801.27	0.4571
2809.81	0.456
2818.36	0.4511
2826.9	0.445
2835.45	0.434
2843.99	0.428
2852.54	0.426
2861.08	0.425
2869.62	0.423
2878.17	0.4195
2886.71	0.415
2895.26	0.4079
2903.8	0.4
2912.35	0.398
2920.89	0.403
2929.43	0.406
2937.98	0.41
2946.52	0.412
2955.07	0.4099
2963.61	0.407
2972.16	0.4057
2980.7	0.401
2989.24	0.398
2997.79	0.3943
3006.33	0.391
3014.88	0.3883
3023.42	0.3866
3031.97	0.3826
3040.51	0.381
3049.06	0.379
3057.6	0.3757
3066.14	0.37
3074.69	0.3894
3083.23	0.4114
3091.78	0.415
3100.32	0.4092
3108.87	0.406
3117.41	0.4032
3125.95	0.398
3134.5	0.397
3143.04	0.395
3151.59	0.392
3160.13	0.3886
3168.68	0.387
3177.22	0.384
3185.76	0.381
3194.31	0.3786
3202.85	0.373
3211.4	0.372
3219.94	0.37
3228.49	0.3695
3237.03	0.369
3245.57	0.369
3254.12	0.366
3262.66	0.361
3271.21	0.36
3279.75	0.355
3288.3	0.354
3296.84	0.35
3305.38	0.347
3313.93	0.347
3322.47	0.347
3331.02	0.345
3339.56	0.345
3348.11	0.344
3356.65	0.3389
3365.19	0.3367
3373.74	0.336
3382.28	0.338
3390.83	0.336
3399.37	0.3353
3407.92	0.33
3416.46	0.329
3425	0.326
3433.55	0.324
3442.09	0.324
3450.64	0.323
3459.18	0.323
3467.73	0.323
3476.27	0.323
3484.82	0.322
3493.36	0.32
3501.9	0.32
3510.45	0.319
3518.99	0.317
3527.54	0.314
3536.08	0.314
3544.63	0.314
3553.17	0.313
3561.71	0.313
3570.26	0.313
3578.8	0.313
3587.35	0.3112
3595.89	0.308
3604.44	0.307
3612.98	0.305
3621.52	0.305
3630.07	0.305
3638.61	0.302
3647.16	0.302
3655.7	0.302
3664.25	0.3015
3672.79	0.295
3681.33	0.294
3689.88	0.293
3698.42	0.292
3706.97	0.29
3715.51	0.2885
3724.06	0.288
3732.6	0.286
3741.14	0.283
3749.69	0.2808
3758.23	0.2788
3766.78	0.276
3775.32	0.274
3783.87	0.273
3792.41	0.2697
