Infrared Spectrum: ETHYL PHOSPHATE, TRI-
Formula: C6 H15 O4 P
CAS: 78-40-0
State: LIQUID (NEAT)
Class: COBLENTZ III
Instrument: PERKIN-ELMER 21 (GRATING)
Instrument parameters: FILTER CHANGE ABOUT 1085 CM^-^1
Path length: CAPILLARY
Resolution: 2
Origin: SOUTHERN RESEARCH INSTITUTE
1/CM	TRANSMITTANCE
596	0.8804
605	0.8854
614	0.8929
623	0.8959
632	0.9081
641	0.9177
650	0.9207
659	0.9288
668	0.9324
677	0.9329
686	0.9355
695	0.9316
704	0.9192
713	0.9089
722	0.8766
731	0.8529
740	0.8409
749	0.8618
758	0.8994
767	0.9095
776	0.8744
785	0.7831
794	0.6791
803	0.6573
812	0.6565
821	0.6351
830	0.7185
839	0.8255
848	0.8998
857	0.9221
866	0.9263
875	0.9256
884	0.9226
893	0.9175
902	0.9066
911	0.8921
920	0.8653
929	0.8011
938	0.6935
947	0.574
956	0.481
965	0.331
974	0.28
983	0.3527
992	0.5284
1001	0.6354
1010	0.4653
1019	0.2355
1028	0.0663
1037	0.0654
1046	0.117
1055	0.2212
1064	0.3677
1073	0.4714
1082	0.5358
1091	0.6234
1100	0.6029
1109	0.6587
1118	0.755
1127	0.8015
1136	0.8145
1145	0.8048
1154	0.7735
1163	0.6944
1172	0.6548
1181	0.8139
1190	0.8639
1199	0.8875
1208	0.8913
1217	0.8835
1226	0.865
1235	0.8326
1244	0.7861
1253	0.6287
1262	0.3567
1271	0.3184
1280	0.371
1289	0.4991
1298	0.6273
1307	0.7562
1316	0.8785
1325	0.8939
1334	0.9068
1343	0.9139
1352	0.9128
1361	0.8929
1370	0.825
1379	0.8775
1388	0.8309
1397	0.7509
1406	0.8347
1415	0.9001
1424	0.908
1433	0.8839
1442	0.8398
1451	0.8252
1460	0.8628
1469	0.8715
1478	0.8401
1487	0.855
1496	0.9164
1505	0.9322
1514	0.9402
1523	0.9425
1532	0.9432
1541	0.9459
1550	0.9512
1559	0.9529
1568	0.9493
1577	0.9452
1586	0.942
1595	0.9408
1604	0.9422
1613	0.9429
1622	0.9349
1631	0.935
1640	0.9349
1649	0.9346
1658	0.9347
1667	0.9381
1676	0.9412
1685	0.9402
1694	0.9422
1703	0.9425
1712	0.9287
1721	0.9254
1730	0.9243
1739	0.9257
1748	0.9304
1757	0.9323
1766	0.9323
1775	0.9332
1784	0.9367
1793	0.9393
1802	0.9391
1811	0.9367
1820	0.9345
1829	0.9328
1838	0.9308
1847	0.9291
1856	0.9307
1865	0.9324
1874	0.9347
1883	0.9362
1892	0.9401
1901	0.9434
1910	0.946
1919	0.9482
1928	0.9502
1937	0.9517
1946	0.9518
1955	0.952
1964	0.9521
1973	0.9522
1982	0.9541
1991	0.954
2000	0.9525
2009	0.9533
2018	0.9534
2027	0.9535
2036	0.9533
2045	0.9536
2054	0.9539
2063	0.9548
2072	0.9556
2081	0.9555
2090	0.9557
2099	0.956
2108	0.9565
2117	0.9562
2126	0.9558
2135	0.9556
2144	0.9546
2153	0.9535
2162	0.953
2171	0.9539
2180	0.9564
2189	0.9595
2198	0.9609
2207	0.9597
2216	0.9592
2225	0.9577
2234	0.9637
2243	0.9616
2252	0.9593
2261	0.9572
2270	0.9577
2279	0.9609
2288	0.9662
2297	0.9659
2306	0.9653
2315	0.964
2324	0.963
2333	0.963
2342	0.9623
2351	0.9601
2360	0.9582
2369	0.9573
2378	0.9574
2387	0.957
2396	0.9554
2405	0.9545
2414	0.9551
2423	0.9564
2432	0.9591
2441	0.962
2450	0.9605
2459	0.9605
2468	0.9613
2477	0.9628
2486	0.9623
2495	0.9561
2504	0.9526
2513	0.9529
2522	0.9546
2531	0.9585
2540	0.9611
2549	0.9557
2558	0.9547
2567	0.956
2576	0.9577
2585	0.9644
2594	0.9645
2603	0.9558
2612	0.9524
2621	0.9552
2630	0.9578
2639	0.9587
2648	0.9583
2657	0.9571
2666	0.9557
2675	0.9577
2684	0.9549
2693	0.9515
2702	0.9475
2711	0.9445
2720	0.943
2729	0.9433
2738	0.944
2747	0.9453
2756	0.9467
2765	0.9494
2774	0.9527
2783	0.9497
2792	0.9445
2801	0.9374
2810	0.9272
2819	0.9171
2828	0.9061
2837	0.8955
2846	0.8912
2855	0.8886
2864	0.8605
2873	0.833
2882	0.8053
2891	0.7888
2900	0.7845
2909	0.7851
2918	0.7871
2927	0.7857
2936	0.7634
2945	0.7301
2954	0.662
2963	0.6161
2972	0.6584
2981	0.8076
2990	0.8551
2999	0.883
3008	0.9063
3017	0.9194
3026	0.9276
3035	0.9341
3044	0.9409
3053	0.9436
3062	0.9448
3071	0.9452
3080	0.9433
3089	0.9451
3098	0.9496
3107	0.9506
3116	0.9503
3125	0.9535
3134	0.9556
3143	0.953
3152	0.953
3161	0.9532
3170	0.9533
3179	0.9535
3188	0.9513
3197	0.9474
3206	0.9448
3215	0.9458
3224	0.9499
3233	0.9534
3242	0.9548
3251	0.954
3260	0.9521
3269	0.9505
3278	0.9491
3287	0.9488
3296	0.949
3305	0.9493
3314	0.9498
3323	0.9504
3332	0.9488
3341	0.9476
3350	0.9433
3359	0.9407
3368	0.9384
3377	0.9362
3386	0.9357
3395	0.9347
3404	0.9322
3413	0.9245
3422	0.9146
3431	0.9109
3440	0.9098
3449	0.9094
3458	0.9091
3467	0.9086
3476	0.9077
3485	0.9054
3494	0.9025
3503	0.9006
3512	0.901
3521	0.9022
3530	0.9086
3539	0.9137
3548	0.9161
3557	0.925
3566	0.9306
3575	0.9339
3584	0.9426
3593	0.9466
3602	0.9463
3611	0.9456
3620	0.9442
3629	0.943
3638	0.9434
3647	0.9532
3656	0.9592
3665	0.9618
3674	0.9633
3683	0.964
3692	0.9653
3701	0.9689
3710	0.9721
3719	0.9717
3728	0.967
3737	0.9636
3746	0.9638
3755	0.9661
3764	0.9684
3773	0.9696
3782	0.9703
3791	0.9706
3800	0.971
