Infrared Spectrum: Beta-DIETHYLAMINO ETHYL ESTER OF DICYCLOHEXYLAMINO ACETIC ACID
Formula: C20 H38 N2 O2
CAS: 78546-03-9
State: SOLUTION (7% CHCl3)
Class: COBLENTZ
Instrument: Not specified, most likely a grating spectrometer.
Sampling: TRANSMISSION
Path length: 0.009 CM
Resolution: 4
Origin: ABBOTT LABORATORIES
MICROMETERS	TRANSMITTANCE
1.998	0.996
2.03184	0.995
2.06568	0.995
2.09953	0.993
2.13337	0.99
2.16721	0.99
2.20105	0.988
2.23489	0.986
2.26873	0.981
2.30258	0.97
2.33642	0.968
2.37026	0.965
2.4041	0.965
2.43794	0.965
2.47179	0.968
2.50563	0.971
2.53947	0.975
2.57331	0.976
2.60715	0.975
2.64099	0.976
2.67484	0.97
2.70868	0.96
2.74252	0.966
2.77636	0.966
2.8102	0.941
2.84404	0.936
2.87789	0.925
2.91173	0.92
2.94557	0.915
2.97941	0.913
3.01325	0.915
3.0471	0.918
3.08094	0.916
3.11478	0.918
3.14862	0.911
3.18246	0.916
3.2163	0.913
3.25015	0.901
3.28399	0.87
3.31783	0.617
3.35167	0.352
3.38551	0.187
3.41936	0.215
3.4532	0.485
3.48704	0.385
3.52088	0.559
3.55472	0.649
3.58856	0.777
3.62241	0.83
3.65625	0.853
3.69009	0.87
3.72393	0.887
3.75777	0.887
3.79161	0.9
3.82546	0.908
3.8593	0.913
3.89314	0.916
3.92698	0.923
3.96082	0.923
3.99467	0.92
4.02851	0.918
4.06235	0.918
4.09619	0.925
4.13003	0.925
4.16387	0.926
4.19772	0.936
4.23156	0.94
4.2654	0.941
4.29924	0.94
4.33308	0.94
4.36693	0.94
4.40077	0.941
4.43461	0.943
4.46845	0.943
4.50229	0.94
4.53613	0.943
4.56998	0.946
4.60382	0.948
4.63766	0.948
4.6715	0.943
4.70534	0.941
4.73918	0.941
4.77303	0.94
4.80687	0.941
4.84071	0.943
4.87455	0.94
4.90839	0.941
4.94224	0.943
4.97608	0.948
5.00992	0.948
5.04376	0.943
5.0776	0.941
5.11144	0.943
5.14529	0.943
5.17913	0.941
5.21297	0.94
5.24681	0.94
5.28065	0.938
5.3145	0.94
5.34834	0.94
5.38218	0.94
5.41602	0.938
5.44986	0.936
5.4837	0.933
5.51755	0.933
5.55139	0.93
5.58523	0.921
5.61907	0.906
5.65291	0.828
5.68675	0.619
5.7206	0.453
5.75444	0.441
5.78828	0.578
5.82212	0.616
5.85596	0.662
5.88981	0.784
5.92365	0.837
5.95749	0.843
5.99133	0.799
6.02517	0.789
6.05901	0.815
6.09286	0.825
6.1267	0.848
6.16054	0.872
6.19438	0.887
6.22822	0.895
6.26207	0.898
6.29591	0.908
6.32975	0.916
6.36359	0.915
6.39743	0.918
6.43127	0.92
6.46512	0.92
6.49896	0.92
6.5328	0.918
6.56664	0.913
6.60048	0.905
6.63432	0.9
6.66817	0.892
6.70201	0.89
6.73585	0.868
6.76969	0.825
6.80353	0.72
6.83738	0.676
6.87122	0.619
6.90506	0.47
6.9389	0.617
6.97274	0.744
7.00658	0.774
7.04043	0.775
7.07427	0.785
7.10811	0.784
7.14195	0.769
7.17579	0.74
7.20964	0.671
7.24348	0.636
7.27732	0.639
7.31116	0.652
7.345	0.719
7.37884	0.72
7.41269	0.702
7.44653	0.686
7.48037	0.704
7.51421	0.712
7.54805	0.745
7.5819	0.774
7.61574	0.779
7.64958	0.759
7.68342	0.719
7.71726	0.671
7.7511	0.654
7.78495	0.647
7.81879	0.657
7.85263	0.666
7.88647	0.642
7.92031	0.617
7.95415	0.586
7.988	0.578
8.02184	0.596
8.05568	0.629
8.08952	0.629
8.12336	0.627
8.15721	0.624
8.19105	0.626
8.22489	0.627
8.25873	0.627
8.29257	0.631
8.32641	0.621
8.36026	0.561
8.3941	0.521
8.42794	0.46
8.46178	0.41
8.49562	0.378
8.52947	0.348
8.56331	0.328
8.59715	0.358
8.63099	0.413
8.66483	0.445
8.69867	0.498
8.73252	0.548
8.76636	0.611
8.8002	0.621
8.83404	0.602
8.86788	0.589
8.90172	0.588
8.93557	0.589
8.96941	0.607
9.00325	0.624
9.03709	0.646
9.07093	0.654
9.10478	0.661
9.13862	0.667
9.17246	0.667
9.2063	0.664
9.24014	0.657
9.27398	0.677
9.30783	0.715
9.34167	0.704
9.37551	0.692
9.40935	0.694
9.44319	0.715
9.47704	0.729
9.51088	0.737
9.54472	0.737
9.57856	0.739
9.6124	0.749
9.64624	0.74
9.68009	0.712
9.71393	0.696
9.74777	0.702
9.78161	0.72
9.81545	0.732
9.84929	0.742
9.88314	0.74
9.91698	0.74
9.95082	0.739
9.98466	0.737
10.0185	0.74
10.0523	0.759
10.0862	0.78
10.12	0.805
10.1539	0.818
10.1877	0.827
10.2216	0.838
10.2554	0.853
10.2892	0.868
10.3231	0.875
10.3569	0.873
10.3908	0.863
10.4246	0.848
10.4584	0.83
10.4923	0.822
10.5261	0.817
10.56	0.792
10.5938	0.794
10.6277	0.818
10.6615	0.85
10.6953	0.872
10.7292	0.878
10.763	0.883
10.7969	0.875
10.8307	0.875
10.8645	0.868
10.8984	0.863
10.9322	0.862
10.9661	0.865
10.9999	0.863
11.0338	0.858
11.0676	0.855
11.1014	0.847
11.1353	0.83
11.1691	0.812
11.203	0.75
11.2368	0.729
11.2706	0.8
11.3045	0.85
11.3383	0.872
11.3722	0.882
11.406	0.88
11.4399	0.887
11.4737	0.892
11.5075	0.893
11.5414	0.898
11.5752	0.908
11.6091	0.908
11.6429	0.908
11.6768	0.906
11.7106	0.897
11.7444	0.882
11.7783	0.863
11.8121	0.865
11.846	0.865
11.8798	0.872
11.9136	0.883
11.9475	0.892
11.9813	0.895
12.0152	0.898
12.049	0.901
12.0829	0.903
12.1167	0.903
12.1505	0.9
12.1844	0.903
12.2182	0.903
12.2521	0.901
12.2859	0.898
12.3197	0.893
12.3536	0.89
12.3874	0.887
12.4213	0.877
12.4551	0.87
12.489	0.863
12.5228	0.855
12.5566	0.852
12.5905	0.85
12.6243	0.85
12.6582	0.85
12.692	0.85
12.7258	0.848
12.7597	0.852
12.7935	0.853
12.8274	0.853
12.8612	0.853
12.8951	0.853
12.9289	0.855
12.9627	0.855
12.9966	0.857
13.0304	0.857
13.0643	0.858
13.0981	0.86
13.1319	0.863
13.1658	0.868
13.1996	0.873
13.2335	0.87
13.2673	0.867
13.3012	0.868
13.335	0.868
13.3688	0.868
13.4027	0.867
13.4365	0.867
13.4704	0.867
13.5042	0.872
13.538	0.873
13.5719	0.88
13.6057	0.88
13.6396	0.877
13.6734	0.873
13.7073	0.877
13.7411	0.877
13.7749	0.875
13.8088	0.872
13.8426	0.865
13.8765	0.857
13.9103	0.852
13.9442	0.837
13.978	0.833
14.0118	0.828
14.0457	0.823
14.0795	0.822
14.1134	0.818
14.1472	0.822
14.181	0.823
14.2149	0.832
14.2487	0.843
14.2826	0.852
14.3164	0.85
14.3503	0.85
14.3841	0.852
14.4179	0.852
14.4518	0.855
14.4856	0.855
14.5195	0.86
14.5533	0.865
14.5871	0.865
14.621	0.862
14.6548	0.862
14.6887	0.86
14.7225	0.858
14.7564	0.855
14.7902	0.852
14.824	0.848
14.8579	0.848
14.8917	0.852
14.9256	0.86
14.9594	0.86
14.9932	0.858
15.0271	0.86
15.0609	0.862
15.0948	0.862
15.1286	0.863
15.1625	0.868
15.1963	0.883
15.2301	0.895
15.264	0.905
15.2978	0.913
15.3317	0.925
15.3655	0.933
15.3993	0.935
15.4332	0.938
15.467	0.938
