Infrared Spectrum: DIMETHYL DIETHOXY SILANE
Formula: C6 H16 O2 Si
CAS: 78-62-6
State: LIQUID
Class: COBLENTZ
Instrument: Not specified, most likely a prism, grating, or hybrid spectrometer.
Sampling: TRANSMISSION
Path length: 0.003 CM
Resolution: 4
Origin: WYANDOTTE CHEMICALS CORP., WYANDOTTE, MICHIGAN, USA
MICROMETERS	TRANSMITTANCE
2.034	1.003
2.07289	1.003
2.11177	1.003
2.15066	1.001
2.18954	0.978
2.22843	0.969
2.26731	0.983
2.3062	0.985
2.34508	0.983
2.38397	0.974
2.42285	0.974
2.46174	0.977
2.50063	0.995
2.53951	1.001
2.5784	1
2.61728	0.991
2.65617	0.991
2.69505	0.99
2.73394	0.991
2.77282	0.995
2.81171	1
2.85059	1
2.88948	1.001
2.92837	1.001
2.96725	0.998
3.00614	0.995
3.04502	0.995
3.08391	0.99
3.12279	0.975
3.16168	0.967
3.20056	0.964
3.23945	0.932
3.27833	0.87
3.31722	0.522
3.35611	0.067
3.39499	0.244
3.43388	0.173
3.47276	0.161
3.51165	0.478
3.55053	0.789
3.58942	0.867
3.6283	0.854
3.66719	0.82
3.70607	0.954
3.74496	0.964
3.78385	0.967
3.82273	0.969
3.86162	0.977
3.9005	0.988
3.93939	0.991
3.97827	0.993
4.01716	0.993
4.05604	0.991
4.09493	0.985
4.13381	0.977
4.1727	0.98
4.21159	0.995
4.25047	1
4.28936	1.003
4.32824	1.003
4.36713	1
4.40601	0.991
4.4449	0.991
4.48378	0.991
4.52267	0.983
4.56156	0.982
4.60044	0.975
4.63933	0.969
4.67821	0.967
4.7171	0.978
4.75598	0.985
4.79487	0.985
4.83375	0.985
4.87264	0.985
4.91152	0.98
4.95041	0.983
4.9893	0.983
5.02818	0.978
5.06707	0.97
5.10595	0.969
5.14484	0.964
5.18372	0.962
5.22261	0.961
5.26149	0.961
5.30038	0.959
5.33926	0.943
5.37815	0.953
5.41704	0.949
5.45592	0.925
5.49481	0.917
5.53369	0.912
5.57258	0.915
5.61146	0.935
5.65035	0.954
5.68923	0.964
5.72812	0.961
5.767	0.954
5.80589	0.953
5.84478	0.951
5.88366	0.94
5.92255	0.94
5.96143	0.948
6.00032	0.954
6.0392	0.959
6.07809	0.964
6.11697	0.964
6.15586	0.964
6.19474	0.966
6.23363	0.961
6.27252	0.953
6.3114	0.943
6.35029	0.951
6.38917	0.948
6.42806	0.943
6.46694	0.922
6.50583	0.922
6.54471	0.915
6.5836	0.904
6.62248	0.877
6.66137	0.817
6.70026	0.726
6.73914	0.778
6.77803	0.755
6.81691	0.653
6.8558	0.558
6.89468	0.571
6.93357	0.65
6.97245	0.687
7.01134	0.666
7.05022	0.605
7.08911	0.501
7.128	0.344
7.16688	0.224
7.20577	0.533
7.24465	0.611
7.28354	0.634
7.32242	0.724
7.36131	0.773
7.40019	0.792
7.43908	0.805
7.47796	0.815
7.51685	0.807
7.55574	0.776
7.59462	0.726
7.63351	0.656
7.67239	0.556
7.71128	0.543
7.75016	0.608
7.78905	0.605
7.82793	0.462
7.86682	0.132
7.9057	0.03
7.94459	0.058
7.98348	0.315
8.02236	0.616
8.06125	0.679
8.10013	0.721
8.13902	0.737
8.1779	0.739
8.21679	0.737
8.25567	0.728
8.29456	0.699
8.33344	0.661
8.37233	0.608
8.41122	0.501
8.4501	0.373
8.48899	0.179
8.52787	0.103
8.56676	0.105
8.60564	0.171
8.64453	0.213
8.68341	0.228
8.7223	0.199
8.76118	0.129
8.80007	0.063
8.83896	0.03
8.87784	0.025
8.91673	0.024
8.95561	0.024
8.9945	0.024
9.03338	0.024
9.07227	0.029
9.11115	0.024
9.15004	0.024
9.18893	0.024
9.22781	0.024
9.2667	0.024
9.30558	0.027
9.34447	0.05
9.38335	0.127
9.42224	0.247
9.46112	0.36
9.50001	0.462
9.53889	0.555
9.57778	0.605
9.61667	0.658
9.65555	0.69
9.69444	0.72
9.73332	0.749
9.77221	0.755
9.81109	0.771
9.84998	0.779
9.88886	0.786
9.92775	0.786
9.96663	0.781
10.0055	0.766
10.0444	0.745
10.0833	0.721
10.1222	0.686
10.1611	0.639
10.1999	0.553
10.2388	0.49
10.2777	0.375
10.3166	0.244
10.3555	0.127
10.3944	0.056
10.4333	0.032
10.4721	0.027
10.511	0.027
10.5499	0.03
10.5888	0.03
10.6277	0.038
10.6666	0.053
10.7055	0.103
10.7443	0.181
10.7832	0.297
10.8221	0.423
10.861	0.548
10.8999	0.611
10.9388	0.669
10.9777	0.708
11.0165	0.736
11.0554	0.745
11.0943	0.76
11.1332	0.755
11.1721	0.745
11.211	0.736
11.2499	0.711
11.2887	0.686
11.3276	0.656
11.3665	0.619
11.4054	0.569
11.4443	0.522
11.4832	0.482
11.5221	0.415
11.5609	0.339
11.5998	0.27
11.6387	0.189
11.6776	0.119
11.7165	0.061
11.7554	0.037
11.7943	0.03
11.8331	0.032
11.872	0.029
11.9109	0.029
11.9498	0.029
11.9887	0.032
12.0276	0.04
12.0664	0.063
12.1053	0.103
12.1442	0.158
12.1831	0.2
12.222	0.231
12.2609	0.237
12.2998	0.221
12.3386	0.174
12.3775	0.129
12.4164	0.074
12.4553	0.053
12.4942	0.035
12.5331	0.033
12.572	0.033
12.6108	0.033
12.6497	0.04
12.6886	0.069
12.7275	0.152
12.7664	0.252
12.8053	0.385
12.8442	0.464
12.883	0.55
12.9219	0.598
12.9608	0.626
12.9997	0.652
13.0386	0.677
13.0775	0.684
13.1164	0.695
13.1552	0.702
13.1941	0.702
13.233	0.7
13.2719	0.684
13.3108	0.671
13.3497	0.655
13.3886	0.629
13.4274	0.6
13.4663	0.577
13.5052	0.555
13.5441	0.517
13.583	0.498
13.6219	0.456
13.6608	0.42
13.6996	0.386
13.7385	0.38
13.7774	0.375
13.8163	0.386
13.8552	0.412
13.8941	0.449
13.933	0.498
13.9718	0.533
14.0107	0.585
14.0496	0.629
14.0885	0.669
14.1274	0.699
14.1663	0.736
14.2051	0.76
14.244	0.779
14.2829	0.791
14.3218	0.804
14.3607	0.813
14.3996	0.818
14.4385	0.825
14.4773	0.825
14.5162	0.826
14.5551	0.825
14.594	0.825
14.6329	0.825
14.6718	0.825
14.7107	0.834
14.7495	0.847
14.7884	0.857
14.8273	0.875
14.8662	0.883
14.9051	0.888
14.944	0.891
14.9829	0.885
15.0217	0.881
15.0606	0.873
15.0995	0.891
15.1384	0.896
15.1773	0.896
15.2162	0.894
15.2551	0.891
15.2939	0.886
15.3328	0.883
15.3717	0.883
15.4106	0.878
15.4495	0.877
15.4884	0.868
15.5273	0.868
15.5661	0.87
15.605	0.868
15.6439	0.865
15.6828	0.859
15.7217	0.854
15.7606	0.849
15.7995	0.841
15.8383	0.831
15.8772	0.83
15.9161	0.825
15.955	0.823
