Infrared Spectrum: 2-Methyl-1-propanol
Formula: C 4 H 10 O
CAS: 78-83-1
State: liquid
Instrument: Bruker Tensor 27 FTIR
Resolution: 0.4821395
Origin: Pacific Northwest National Laboratory Under IARPA Contract
1/cm	dispersion index
7797.62	1.38121
7779.06	1.38128
7760.5	1.38128
7741.94	1.38127
7723.38	1.38126
7704.81	1.38125
7686.25	1.38124
7667.69	1.38122
7649.13	1.3812
7630.57	1.38119
7612.01	1.38117
7593.44	1.38115
7574.88	1.38113
7556.32	1.38111
7537.76	1.38109
7519.2	1.38107
7500.64	1.38105
7482.07	1.38103
7463.51	1.38101
7444.95	1.38099
7426.39	1.38097
7407.83	1.38095
7389.26	1.38092
7370.7	1.3809
7352.14	1.38087
7333.58	1.38085
7315.02	1.38082
7296.46	1.3808
7277.89	1.38077
7259.33	1.38074
7240.77	1.38072
7222.21	1.38069
7203.65	1.38066
7185.09	1.38064
7166.52	1.38061
7147.96	1.38058
7129.4	1.38054
7110.84	1.38051
7092.28	1.38048
7073.71	1.38045
7055.15	1.38041
7036.59	1.38038
7018.03	1.38035
6999.47	1.38031
6980.91	1.38027
6962.34	1.38023
6943.78	1.38018
6925.22	1.38014
6906.66	1.38008
6888.1	1.38002
6869.54	1.37994
6850.97	1.37993
6832.41	1.37991
6813.85	1.37987
6795.29	1.37983
6776.73	1.3798
6758.16	1.37975
6739.6	1.37967
6721.04	1.37964
6702.48	1.37957
6683.92	1.3795
6665.36	1.37944
6646.79	1.37937
6628.23	1.3793
6609.67	1.37923
6591.11	1.37915
6572.55	1.37906
6553.99	1.37898
6535.42	1.37889
6516.86	1.3788
6498.3	1.37871
6479.74	1.37861
6461.18	1.37851
6442.61	1.3784
6424.05	1.37829
6405.49	1.37817
6386.93	1.37805
6368.37	1.37792
6349.81	1.37778
6331.24	1.37765
6312.68	1.37753
6294.12	1.37742
6275.56	1.37731
6257	1.37717
6238.44	1.37701
6219.87	1.37682
6201.31	1.37662
6182.75	1.37641
6164.19	1.37617
6145.63	1.3759
6127.06	1.37555
6108.5	1.37517
6089.94	1.37517
6071.38	1.37485
6052.82	1.37504
6034.26	1.37479
6015.69	1.37451
5997.13	1.37412
5978.57	1.3737
5960.01	1.37337
5941.45	1.37289
5922.89	1.37265
5904.32	1.37214
5885.76	1.37153
5867.2	1.37079
5848.64	1.37005
5830.08	1.36917
5811.51	1.36821
5792.95	1.36711
5774.39	1.36571
5755.83	1.36393
5737.27	1.36165
5718.71	1.35855
5700.14	1.35534
5681.58	1.35086
5663.02	1.3457
5644.46	1.34088
5625.9	1.33849
5607.34	1.34013
5588.77	1.34795
5570.21	1.3649
5551.65	1.38312
5533.09	1.39618
5514.53	1.40345
5495.96	1.40446
5477.4	1.40103
5458.84	1.39504
5440.28	1.38759
5421.72	1.37779
5403.16	1.3607
5384.59	1.32521
5366.03	1.39541
5347.47	1.40968
5328.91	1.44178
5310.35	1.42439
5291.79	1.41526
5273.22	1.40917
5254.66	1.40754
5236.1	1.40345
5217.54	1.40147
5198.98	1.39931
5180.41	1.39831
5161.85	1.39716
5143.29	1.39598
5124.73	1.39498
5106.17	1.39362
5087.61	1.39266
5069.04	1.39193
5050.48	1.39088
5031.92	1.39036
5013.36	1.38967
4994.8	1.38865
4976.24	1.38797
4957.67	1.387
4939.11	1.38636
4920.55	1.38632
4901.99	1.38526
4883.43	1.38454
4864.86	1.38398
4846.3	1.38293
4827.74	1.38196
4809.18	1.38089
4790.62	1.37974
4772.06	1.37849
4753.49	1.3769
4734.93	1.37533
4716.37	1.37356
4697.81	1.37078
4679.25	1.36605
4660.69	1.35959
4642.12	1.33715
4623.56	1.38911
4605	1.37788
4586.44	1.38699
4567.88	1.39615
4549.31	1.38413
4530.75	1.38004
4512.19	1.38794
4493.63	1.37289
4475.07	1.36312
4456.51	1.35726
4437.94	1.31315
4419.38	1.42333
4400.82	1.45254
4382.26	1.41839
4363.7	1.42668
4345.14	1.41747
4326.57	1.39709
4308.01	1.3937
4289.45	1.38968
4270.89	1.38505
4252.33	1.38772
4233.76	1.39755
4215.2	1.41161
4196.64	1.42282
4178.08	1.4262
4159.52	1.42151
4140.96	1.44633
4122.39	1.43298
4103.83	1.43747
4085.27	0.000373612
4066.71	0.000373612
4048.15	0.000373133
4029.58	0.000370744
4011.02	0.00036979
3992.46	0.000370267
3973.9	0.0003717
3955.34	0.000373612
3936.78	0.000375999
3918.21	0.000377911
3899.65	0.000385077
3881.09	0.000404188
3862.53	0.000406578
3843.97	0.00041661
3825.41	0.000426165
3806.84	0.000430943
3788.28	0.000439065
3769.72	0.000446232
3751.16	0.000474897
3732.6	0.000460086
3714.03	0.000451009
3695.47	0.000459131
3676.91	0.000465819
3658.35	0.00047203
3639.79	0.000482541
3621.23	0.000496874
3602.66	0.000506429
3584.1	0.000520763
3565.54	0.000535096
3546.98	0.000544651
3528.42	0.000554206
3509.86	0.000554206
3491.29	0.000558984
3472.73	0.000563761
3454.17	0.000563761
3435.61	0.000568539
3417.05	0.000573317
3398.48	0.000582872
3379.92	0.000592427
3361.36	0.000601982
3342.8	0.00060676
3324.24	0.000601982
3305.68	0.00058765
3287.11	0.000568539
3268.55	0.000549429
3249.99	0.000530318
3231.43	0.000511208
3212.87	0.000496874
3194.31	0.000496874
3175.74	0.000544651
3157.18	0.000883864
3138.62	0.000912528
3120.06	0.000845642
3101.5	0.000859975
3082.93	0.000840864
3064.37	0.000721424
3045.81	0.000668869
3027.25	0.000735757
3008.69	0.000611538
2990.13	0.000582872
2971.56	0.00058765
2953	0.000558984
2934.44	0.000554206
2915.88	0.000511208
2897.32	0.000475376
2878.76	0.000463431
2860.19	0.000465819
2841.63	0.000467252
2823.07	0.000471553
2804.51	0.000482541
2785.95	0.00048732
2767.38	0.000482541
2748.82	0.00048732
2730.26	0.000501651
2711.7	0.000520763
2693.14	0.000554206
2674.58	0.00060676
2656.01	0.000683202
2637.45	0.000831309
2618.89	0.0010033
2600.33	0.00113708
2581.77	0.0011323
2563.21	0.00106064
2544.64	0.000969861
2526.08	0.000883864
2507.52	0.000836086
2488.96	0.000826531
2470.4	0.000826531
2451.83	0.000821754
2433.27	0.000926861
2414.71	0.00171039
2396.15	0.00330613
2377.59	0.0033539
2359.03	0.00462475
2340.46	0.00335868
2321.9	0.00297169
2303.34	0.00266592
2284.78	0.00276625
2266.22	0.00292391
2247.66	0.00290003
2229.09	0.003846
2210.53	0.00246526
2191.97	0.00214038
2173.41	0.00179161
2154.85	0.0020305
2136.28	0.00182506
2117.72	0.00207827
2099.16	0.00206394
2080.6	0.00167695
2062.04	0.00154318
2043.48	0.00204005
2024.91	0.00426643
2006.35	0.010033
1987.79	0.0178684
1969.23	0.0350679
1950.67	0.0654536
1932.11	0.112752
1913.54	0.171039
1894.98	0.238404
1876.42	0.293825
1857.86	0.299558
1839.3	0.264203
1820.73	0.211172
1802.17	0.152407
1783.61	0.103197
1765.05	0.068798
1746.49	0.0475375
1727.93	0.0361667
1709.36	0.0360712
1690.8	0.135207
1672.24	0.308158
1653.68	0.270892
1635.12	0.336823
1616.56	0.0902973
1597.99	0.0492097
1579.43	0.0355934
1560.87	0.03889
1542.31	0.0216427
1523.75	0.0193972
1505.18	0.0161484
1486.62	0.0168173
1468.06	0.0132818
1449.5	0.0107975
1430.94	0.00883863
1412.38	0.00654536
1393.81	0.00702313
1375.25	0.00563761
1356.69	0.00487319
1338.13	0.0058765
1319.57	0.00441931
1301.01	0.00373611
1282.44	0.00387944
1263.88	0.00338734
1245.32	0.00568539
1226.76	0.00520763
1208.2	0.00345901
1189.63	0.00425687
1171.07	0.00501652
1152.51	0.00376478
1133.95	0.00404666
1115.39	0.00435721
1096.83	0.00496874
1078.26	0.00611538
1059.7	0.00716646
1041.14	0.00955528
1022.58	0.0116097
1004.02	0.0126607
985.455	0.0150973
966.894	0.0283792
948.332	0.0482541
929.77	0.279014
911.208	0.127563
892.647	0.224071
874.085	0.103197
855.523	0.0511207
836.961	0.0592427
818.399	0.078831
799.838	0.0274236
781.276	0.0386511
762.714	0.0831309
744.152	0.0460564
725.591	0.945972
707.029	0.151451
688.467	0.0377433
669.905	0.188239
651.344	0.0902973
632.782	0.0182028
614.22	0.0511207
595.658	0.07692
577.096	0.116097
558.535	0.167217
539.973	0.214994
521.411	0.232193
502.849	0.208305
484.288	0.162917
465.726	0.125174
447.164	0.24987
428.602	0.0836087
410.041	0.0907751
