Infrared Spectrum: 2-Butanone
Formula: C 4 H 8 O
CAS: 78-93-3
State: liquid
Instrument: Bruker Tensor 27 FTIR
Resolution: 0.4821395
Origin: Pacific Northwest National Laboratory Under IARPA Contract
1/cm	dispersion index
7797.62	1.3665
7779.06	1.3665
7760.5	1.36649
7741.94	1.36648
7723.38	1.36647
7704.81	1.36647
7686.25	1.36646
7667.69	1.36645
7649.13	1.36645
7630.57	1.36644
7612.01	1.36643
7593.44	1.36642
7574.88	1.36642
7556.32	1.36641
7537.76	1.3664
7519.2	1.3664
7500.64	1.36639
7482.07	1.36639
7463.51	1.36638
7444.95	1.36637
7426.39	1.36636
7407.83	1.36635
7389.26	1.36634
7370.7	1.36633
7352.14	1.36633
7333.58	1.36632
7315.02	1.3663
7296.46	1.36629
7277.89	1.36628
7259.33	1.36627
7240.77	1.36626
7222.21	1.36625
7203.65	1.36624
7185.09	1.36623
7166.52	1.36622
7147.96	1.3662
7129.4	1.36619
7110.84	1.36618
7092.28	1.36616
7073.71	1.36615
7055.15	1.36614
7036.59	1.36612
7018.03	1.36611
6999.47	1.36609
6980.91	1.36607
6962.34	1.36605
6943.78	1.36603
6925.22	1.36601
6906.66	1.36598
6888.1	1.36594
6869.54	1.36597
6850.97	1.36598
6832.41	1.36597
6813.85	1.36594
6795.29	1.36593
6776.73	1.36594
6758.16	1.36593
6739.6	1.36592
6721.04	1.36592
6702.48	1.3659
6683.92	1.36588
6665.36	1.36585
6646.79	1.36582
6628.23	1.36579
6609.67	1.36577
6591.11	1.36574
6572.55	1.36572
6553.99	1.36569
6535.42	1.36566
6516.86	1.36563
6498.3	1.3656
6479.74	1.36557
6461.18	1.36553
6442.61	1.36552
6424.05	1.36549
6405.49	1.36545
6386.93	1.36542
6368.37	1.36538
6349.81	1.36534
6331.24	1.36529
6312.68	1.36525
6294.12	1.3652
6275.56	1.36514
6257	1.3651
6238.44	1.36507
6219.87	1.36502
6201.31	1.36499
6182.75	1.3649
6164.19	1.3648
6145.63	1.36467
6127.06	1.36447
6108.5	1.36459
6089.94	1.36468
6071.38	1.36487
6052.82	1.3649
6034.26	1.36489
6015.69	1.36483
5997.13	1.36464
5978.57	1.36465
5960.01	1.3646
5941.45	1.36455
5922.89	1.3646
5904.32	1.36456
5885.76	1.36458
5867.2	1.36443
5848.64	1.36428
5830.08	1.3642
5811.51	1.36411
5792.95	1.36395
5774.39	1.36379
5755.83	1.36364
5737.27	1.36347
5718.71	1.36332
5700.14	1.36311
5681.58	1.36288
5663.02	1.36263
5644.46	1.36229
5625.9	1.3617
5607.34	1.36203
5588.77	1.36281
5570.21	1.36203
5551.65	1.36147
5533.09	1.36086
5514.53	1.36024
5495.96	1.35947
5477.4	1.35869
5458.84	1.35733
5440.28	1.35534
5421.72	1.35184
5403.16	1.34317
5384.59	1.37215
5366.03	1.3753
5347.47	1.37475
5328.91	1.37714
5310.35	1.37228
5291.79	1.37068
5273.22	1.36862
5254.66	1.36761
5236.1	1.36664
5217.54	1.36585
5198.98	1.36512
5180.41	1.3644
5161.85	1.36387
5143.29	1.36349
5124.73	1.36299
5106.17	1.36236
5087.61	1.3617
5069.04	1.36135
5050.48	1.36092
5031.92	1.36045
5013.36	1.35948
4994.8	1.35858
4976.24	1.3577
4957.67	1.35717
4939.11	1.3564
4920.55	1.3548
4901.99	1.35303
4883.43	1.35099
4864.86	1.34851
4846.3	1.34511
4827.74	1.34046
4809.18	1.3317
4790.62	1.31349
4772.06	1.26725
4753.49	1.52446
4734.93	1.41709
4716.37	1.38619
4697.81	1.37211
4679.25	1.36306
4660.69	1.35429
4642.12	1.33932
4623.56	1.34959
4605	1.37395
4586.44	1.3252
4567.88	1.43213
4549.31	1.39763
4530.75	1.37854
4512.19	1.36397
4493.63	1.33618
4475.07	1.44624
4456.51	1.40229
4437.94	1.40295
4419.38	1.39038
4400.82	1.37941
4382.26	1.37307
4363.7	1.41053
4345.14	1.3958
4326.57	1.38884
4308.01	1.38398
4289.45	1.37772
4270.89	1.39656
4252.33	1.38602
4233.76	1.38113
4215.2	1.37511
4196.64	1.35486
4178.08	1.38642
4159.52	1.37093
4140.96	1.38496
4122.39	1.37789
4103.83	1.37564
4085.27	5.21307e-07
4066.71	4.25615e-07
4048.15	2.11379e-07
4029.58	3.73342e-06
4011.02	5.03597e-06
3992.46	7.34972e-06
3973.9	8.71083e-06
3955.34	8.80224e-06
3936.78	8.98363e-06
3918.21	1.37482e-05
3899.65	2.92646e-05
3881.09	3.89738e-05
3862.53	3.50276e-05
3843.97	4.71862e-05
3825.41	5.12695e-05
3806.84	5.94362e-05
3788.28	4.80945e-05
3769.72	3.92466e-05
3751.16	3.4482e-05
3732.6	2.50456e-05
3714.03	2.4093e-05
3695.47	1.76502e-05
3676.91	1.5335e-05
3658.35	1.55621e-05
3639.79	9.61919e-06
3621.23	1.45252e-06
3602.66	2.75365e-06
3584.1	7.03265e-06
3565.54	6.48849e-06
3546.98	5.76152e-06
3528.42	6.2157e-06
3509.86	3.86053e-06
3491.29	4.13761e-06
3472.73	5.89863e-06
3454.17	4.53752e-06
3435.61	2.08666e-06
3417.05	3.36208e-06
3398.48	4.76461e-06
3379.92	2.98931e-06
3361.36	3.04929e-06
3342.8	4.94599e-06
3324.24	5.80722e-06
3305.68	6.57847e-06
3287.11	1.24771e-05
3268.55	1.95098e-05
3249.99	2.51356e-05
3231.43	3.68414e-05
3212.87	5.62612e-05
3194.31	0.000124318
3175.74	0.000384298
3157.18	0.000421048
3138.62	0.000270414
3120.06	0.00028448
3101.5	0.000355713
3082.93	0.000398816
3064.37	0.000338019
3045.81	0.000336203
3027.25	0.000289471
3008.69	0.000214607
2990.13	0.000168782
2971.56	0.000109799
2953	0.000107531
2934.44	8.57529e-05
2915.88	8.52987e-05
2897.32	8.93821e-05
2878.76	8.89279e-05
2860.19	8.75668e-05
2841.63	8.57529e-05
2823.07	8.93821e-05
2804.51	7.62237e-05
2785.95	8.93821e-05
2767.38	0.00010617
2748.82	0.000215516
2730.26	0.000120235
2711.7	9.89099e-05
2693.14	0.000101179
2674.58	0.000111614
2656.01	0.000111614
2637.45	0.000125679
2618.89	0.000147004
2600.33	0.000176949
2581.77	0.000216423
2563.21	0.000410613
2544.64	0.00041878
2526.08	0.00048094
2507.52	0.000444642
2488.96	0.000362519
2470.4	0.000389742
2451.83	0.000521773
2433.27	0.000834837
2414.71	0.00276313
2396.15	0.00246368
2377.59	0.00351176
2359.03	0.00260433
2340.46	0.00196005
2321.9	0.00180579
2303.34	0.00140652
2284.78	0.00183301
2266.22	0.00176496
2247.66	0.00224136
2229.09	0.00184662
2210.53	0.0020145
2191.97	0.00156078
2173.41	0.000943729
2154.85	0.000775854
2136.28	0.000970953
2117.72	0.000712334
2099.16	0.000485476
2080.6	0.000449633
2062.04	0.000508162
2043.48	0.000494551
2024.91	0.000589831
2006.35	0.00048094
1987.79	0.000585294
1969.23	0.000744094
1950.67	0.000893821
1932.11	0.00141559
1913.54	0.00721409
1894.98	0.00352537
1876.42	0.00117966
1857.86	0.000998175
1839.3	0.00110707
1820.73	0.00181486
1802.17	0.00253174
1783.61	0.00375223
1765.05	0.004274
1746.49	0.00680574
1727.93	0.0111614
1709.36	0.0283119
1690.8	0.189653
1672.24	0.104808
1653.68	0.079854
1635.12	0.0349815
1616.56	0.013793
1597.99	0.00893821
1579.43	0.00369779
1560.87	0.00290832
1542.31	0.00175588
1523.75	0.00108892
1505.18	0.000821226
1486.62	0.000753169
1468.06	0.00137022
1449.5	0.00117512
1430.94	0.0012704
1412.38	0.000907432
1393.81	0.00114336
1375.25	0.00180579
1356.69	0.00232756
1338.13	0.00115244
1319.57	0.000322592
1301.01	0.000553534
1282.44	0.00169236
1263.88	0.00458253
1245.32	0.00207802
1226.76	0.000490013
1208.2	0.000443281
1189.63	0.00127494
1171.07	0.00191922
1152.51	0.00254535
1133.95	0.00295369
1115.39	0.00294008
1096.83	0.0100725
1078.26	0.0784929
1059.7	1.47458
1041.14	0.0839375
1022.58	0.0255442
1004.02	0.0186931
985.455	0.0238655
966.894	0.031987
948.332	0.0431938
929.77	0.240923
911.208	0.263609
892.647	0.175588
874.085	0.288563
855.523	0.0716871
836.961	0.0512699
818.399	0.0490013
799.838	0.139291
781.276	0.337565
762.714	0.0266331
744.152	0.0825763
725.591	0.0136569
707.029	0.0193737
688.467	0.0384298
669.905	0.16969
651.344	0.0146097
632.782	0.00391103
614.22	0.0031624
595.658	0.0105716
577.096	0.097549
558.535	0.00480939
539.973	0.000433752
521.411	0.000784929
502.849	0.0253627
484.288	0.042241
465.726	0.0357982
447.164	0.025272
428.602	0.0305351
410.041	0.105262
