Infrared Spectrum: 2-Butanone
Formula: C H3 C H2 C O C H3
CAS: 78-93-3
State: gas
Melting point: -86.35 C
Boiling point: 79.6 C
Class: IUPAC A
Instrument: IFS66V (Bruker)
Instrument parameters: KBr Beam splitter; MCT Detector; Multipass cell
Sampling: 1 L/min Flow
Resolution: 0.9640
Temperature: 23 C
Pressure: 101.3 kPa
Origin: NIST, Anayltical Chemistry Division, 301-975-3108
cm-1	(micromol/mol)-1m-1 (base 10)
575.169	2.17487e-05
583.847	2.91141e-05
592.525	2.987e-05
601.203	2.12651e-05
609.882	4.49787e-06
618.56	1.12817e-06
627.238	6.58642e-07
635.916	5.39239e-07
644.594	4.81021e-07
653.272	9.74018e-07
661.951	6.09794e-07
670.629	4.71586e-07
679.307	3.38359e-07
687.985	1.76202e-07
696.663	1.6998e-07
705.341	1.51105e-07
714.019	4.00987e-07
722.698	1.25583e-06
731.376	3.92708e-06
740.054	9.55963e-06
748.732	1.9818e-05
757.41	1.94615e-05
766.088	1.78467e-05
774.767	7.22963e-06
783.445	2.52623e-06
792.123	1.43139e-06
800.801	9.52563e-07
809.479	6.16496e-07
818.157	4.44005e-07
826.835	3.14519e-07
835.514	4.57696e-07
844.192	4.18302e-07
852.87	3.92415e-07
861.548	5.7618e-07
870.226	8.28334e-07
878.904	1.30187e-06
887.583	2.0352e-06
896.261	3.52663e-06
904.939	6.79504e-06
913.617	1.42587e-05
922.295	2.62523e-05
930.973	4.22342e-05
939.651	5.27271e-05
948.33	5.18476e-05
957.008	3.77023e-05
965.686	2.32491e-05
974.364	1.77066e-05
983.042	1.63405e-05
991.72	1.4212e-05
1000.4	1.23502e-05
1009.08	7.67134e-06
1017.75	5.19111e-06
1026.43	3.68868e-06
1035.11	2.91279e-06
1043.79	3.17811e-06
1052.47	4.07161e-06
1061.15	6.32042e-06
1069.82	1.06198e-05
1078.5	1.58726e-05
1087.18	1.54382e-05
1095.86	1.50075e-05
1104.54	1.03227e-05
1113.21	9.20271e-06
1121.89	1.0139e-05
1130.57	1.32708e-05
1139.25	2.41786e-05
1147.93	7.11176e-05
1156.61	0.000162596
1165.28	0.000242047
1173.96	0.000267212
1182.64	0.000193371
1191.32	0.000123705
1200	7.10813e-05
1208.67	4.86882e-05
1217.35	2.91664e-05
1226.03	1.53474e-05
1234.71	1.16123e-05
1243.39	1.2076e-05
1252.07	1.39553e-05
1260.74	1.41771e-05
1269.42	1.31341e-05
1278.1	1.04911e-05
1286.78	8.78347e-06
1295.46	1.02688e-05
1304.13	1.52483e-05
1312.81	2.2707e-05
1321.49	3.25901e-05
1330.17	4.72882e-05
1338.85	6.89746e-05
1347.52	0.000113118
1356.2	0.000201228
1364.88	0.000232563
1373.56	0.000230827
1382.24	0.000118581
1390.92	6.28636e-05
1399.59	5.54305e-05
1408.27	6.02481e-05
1416.95	7.76083e-05
1425.63	7.68833e-05
1434.31	8.59424e-05
1442.98	7.89396e-05
1451.66	7.88949e-05
1460.34	8.81929e-05
1469.02	7.04537e-05
1477.7	5.95474e-05
1486.38	3.19251e-05
1495.05	1.98947e-05
1503.73	1.61888e-05
1512.41	1.6295e-05
1521.09	1.79995e-05
1529.77	1.40094e-05
1538.44	1.38928e-05
1547.12	1.02356e-05
1555.8	8.67597e-06
1564.48	7.67244e-06
1573.16	6.2828e-06
1581.83	5.47957e-06
1590.51	4.6743e-06
1599.19	3.91555e-06
1607.87	3.48238e-06
1616.55	6.10368e-06
1625.23	3.31069e-06
1633.9	3.52998e-06
1642.58	3.83623e-06
1651.26	4.25962e-06
1659.94	4.94326e-06
1668.62	7.22193e-06
1677.29	9.99956e-06
1685.97	1.75662e-05
1694.65	2.97614e-05
1703.33	5.85563e-05
1712.01	0.000126672
1720.69	0.000276688
1729.36	0.000493842
1738.04	0.000458151
1746.72	0.000556368
1755.4	0.000317299
1764.08	0.000134961
1772.75	5.37187e-05
1781.43	2.27315e-05
1790.11	1.09368e-05
1798.79	7.46885e-06
1807.47	4.86981e-06
1816.15	2.36706e-06
1824.82	1.93528e-06
1833.5	1.41474e-06
1842.18	1.53347e-06
1850.86	1.73325e-06
1859.54	2.14072e-06
1868.21	2.79945e-06
1876.89	2.88803e-06
1885.57	2.86765e-06
1894.25	2.63549e-06
1902.93	2.03199e-06
1911.6	1.64188e-06
1920.28	1.38818e-06
1928.96	1.31216e-06
1937.64	1.12733e-06
1946.32	1.08867e-06
1955	9.22441e-07
1963.67	6.37923e-07
1972.35	3.84042e-07
1981.03	5.36408e-07
1989.71	5.72819e-07
1998.39	6.80762e-07
2007.06	4.32077e-07
2015.74	2.57939e-07
2024.42	1.22698e-07
2033.1	1.33289e-07
2041.78	1.81943e-07
2050.46	1.87507e-07
2059.13	3.22583e-07
2067.81	5.158e-07
2076.49	8.66369e-07
2085.17	1.40891e-06
2093.85	2.1009e-06
2102.52	2.73874e-06
2111.2	3.27839e-06
2119.88	3.24778e-06
2128.56	2.75094e-06
2137.24	1.79814e-06
2145.91	9.28072e-07
2154.59	6.60261e-07
2163.27	6.53711e-07
2171.95	7.23955e-07
2180.63	4.7705e-07
2189.31	2.47382e-07
2197.98	4.15305e-08
2206.66	-3.55061e-08
2215.34	-1.19142e-10
2224.02	-5.59285e-08
2232.7	-1.03571e-07
2241.37	-1.26806e-07
2250.05	-9.14446e-08
2258.73	1.68718e-08
2267.41	3.10071e-07
2276.09	7.03234e-07
2284.77	1.15214e-06
2293.44	1.38756e-06
2302.12	1.36121e-06
2310.8	1.20868e-06
2319.48	1.04706e-06
2328.16	9.96322e-07
2336.83	9.10265e-07
2345.51	8.6205e-07
2354.19	1.14401e-06
2362.87	1.50647e-06
2371.55	1.20689e-06
2380.23	9.16534e-07
2388.9	6.46159e-07
2397.58	4.77449e-07
2406.26	3.99104e-07
2414.94	3.20692e-07
2423.62	2.82084e-07
2432.29	2.13499e-07
2440.97	1.98893e-07
2449.65	2.0348e-07
2458.33	3.78876e-07
2467.01	4.96508e-07
2475.68	6.07942e-07
2484.36	4.48722e-07
2493.04	4.35967e-07
2501.72	7.78276e-07
2510.4	1.03779e-06
2519.08	1.24594e-06
2527.75	9.89309e-07
2536.43	6.67617e-07
2545.11	4.25784e-07
2553.79	3.10313e-07
2562.47	2.80595e-07
2571.14	2.08081e-07
2579.82	9.57773e-08
2588.5	2.45014e-08
2597.18	8.05736e-08
2605.86	1.33758e-07
2614.54	1.93215e-07
2623.21	1.84716e-07
2631.89	1.03512e-07
2640.57	9.03514e-08
2649.25	1.99705e-07
2657.93	4.4342e-07
2666.6	7.55924e-07
2675.28	9.493e-07
2683.96	9.71312e-07
2692.64	8.99498e-07
2701.32	8.30986e-07
2709.99	8.54757e-07
2718.67	1.0101e-06
2727.35	1.19753e-06
2736.03	1.76444e-06
2744.71	2.45811e-06
2753.39	2.72433e-06
2762.06	2.72561e-06
2770.74	2.1767e-06
2779.42	2.52835e-06
2788.1	3.63799e-06
2796.78	5.69777e-06
2805.45	7.7606e-06
2814.13	1.09428e-05
2822.81	1.25312e-05
2831.49	1.43083e-05
2840.17	1.51991e-05
2848.85	1.48224e-05
2857.52	1.50894e-05
2866.2	1.67035e-05
2874.88	2.94864e-05
2883.56	5.78439e-05
2892.24	8.55165e-05
2900.91	0.000108996
2909.59	0.000116169
2918.27	0.000138145
2926.95	0.000110585
2935.63	0.000114062
2944.31	0.000124781
2952.98	0.000117411
2961.66	0.000129483
2970.34	0.000135139
2979.02	0.000176741
2987.7	0.00019285
2996.37	0.000190506
3005.05	0.00013172
3013.73	8.41288e-05
3022.41	5.33143e-05
3031.09	3.11842e-05
3039.76	2.17391e-05
3048.44	1.92423e-05
3057.12	1.75543e-05
3065.8	1.56066e-05
3074.48	1.31431e-05
3083.16	1.03401e-05
3091.83	7.77342e-06
3100.51	6.05798e-06
3109.19	4.7851e-06
3117.87	3.62723e-06
3126.55	2.73152e-06
3135.22	2.30647e-06
3143.9	2.20826e-06
3152.58	2.37391e-06
3161.26	2.54051e-06
3169.94	3.10007e-06
3178.62	2.87692e-06
3187.29	2.85411e-06
3195.97	1.93055e-06
3204.65	1.19167e-06
3213.33	6.92819e-07
3222.01	4.83716e-07
3230.68	6.58077e-07
3239.36	5.94266e-07
3248.04	4.8158e-07
3256.72	1.48096e-07
3265.4	-1.92595e-07
3274.07	-1.779e-07
3282.75	-2.82142e-07
3291.43	-3.31969e-07
3300.11	-2.12574e-07
3308.79	-1.80343e-07
3317.47	-1.58574e-07
3326.14	-1.63952e-07
3334.82	-1.75718e-07
3343.5	-2.2257e-07
3352.18	-1.81505e-07
3360.86	1.27845e-07
3369.53	2.77843e-07
3378.21	4.05534e-07
3386.89	4.47239e-07
3395.57	2.70428e-07
3404.25	2.46016e-07
3412.93	3.89921e-07
3421.6	1.17667e-06
3430.28	2.82353e-06
3438.96	5.35962e-06
3447.64	9.01189e-06
3456.32	1.01994e-05
3464.99	1.00435e-05
3473.67	7.04183e-06
3482.35	2.63924e-06
3491.03	4.63342e-07
3499.71	-4.22897e-07
3508.39	-7.40275e-07
3517.06	-8.41807e-07
3525.74	-8.19375e-07
3534.42	-8.41937e-07
3543.1	-7.55357e-07
3551.78	-4.7034e-07
3560.45	-2.87566e-07
3569.13	2.40472e-07
3577.81	5.91544e-08
3586.49	6.91175e-07
3595.17	3.79829e-07
3603.84	-2.01744e-07
3612.52	3.04454e-07
3621.2	-2.73134e-07
3629.88	1.19647e-06
3638.56	-2.14179e-07
3647.24	7.30998e-07
3655.91	9.46758e-07
3664.59	-1.04056e-07
3673.27	-3.62173e-08
3681.95	-2.24633e-07
3690.63	2.03993e-07
3699.3	-2.64543e-07
3707.98	-1.92365e-07
3716.66	-3.21487e-07
3725.34	-3.71686e-08
3734.02	2.20195e-07
3742.7	-7.0693e-08
3751.37	7.05724e-07
3760.05	3.24543e-07
3768.73	-2.3416e-07
3777.41	-3.54025e-07
3786.09	-3.0404e-07
3794.76	-2.86584e-07
3803.44	-6.95643e-08
3812.12	-2.06224e-07
3820.8	1.16897e-06
3829.48	8.77012e-09
3838.16	2.70289e-06
3846.83	2.53518e-07
3855.51	6.61132e-07
3864.19	9.00746e-07
3872.87	5.65021e-07
3881.55	5.38425e-07
3890.22	2.92625e-07
3898.9	7.25594e-07
3907.58	1.8738e-08
3916.26	1.34113e-07
3924.94	2.45361e-07
3933.61	9.20885e-08
3942.29	2.7182e-07
3950.97	7.236e-08
3959.65	2.4554e-07
3968.33	3.73295e-07
