Infrared Spectrum: 2-Butanone
Formula: C H3 C H2 C O C H3
CAS: 78-93-3
State: gas
Melting point: -86.35 C
Boiling point: 79.6 C
Class: IUPAC A
Instrument: IFS66V (Bruker)
Instrument parameters: KBr Beam splitter; MCT Detector; Multipass cell
Sampling: 1 L/min Flow
Resolution: 0.4820
Temperature: 23 C
Pressure: 101.3 kPa
Origin: NIST, Anayltical Chemistry Division, 301-975-3108
cm-1	(micromol/mol)-1m-1 (base 10)
574.928	2.06475e-05
583.606	2.78235e-05
592.284	2.90589e-05
600.962	2.2071e-05
609.641	4.79927e-06
618.319	1.30689e-06
626.997	6.05592e-07
635.675	4.85653e-07
644.353	2.49982e-07
653.031	1.30144e-06
661.71	5.20061e-07
670.388	3.10471e-07
679.066	2.50526e-07
687.744	2.7945e-07
696.422	2.159e-07
705.1	-3.20865e-09
713.778	2.8272e-07
722.457	1.27002e-06
731.135	3.71481e-06
739.813	9.40778e-06
748.491	1.92708e-05
757.169	1.94986e-05
765.847	1.80911e-05
774.526	7.47379e-06
783.204	2.57471e-06
791.882	1.34122e-06
800.56	1.12796e-06
809.238	8.64895e-07
817.916	4.41674e-07
826.594	4.41841e-07
835.273	6.74872e-07
843.951	4.98623e-07
852.629	2.62281e-07
861.307	6.25254e-07
869.985	8.61128e-07
878.663	1.26911e-06
887.342	2.01032e-06
896.02	3.46867e-06
904.698	6.55577e-06
913.376	1.39833e-05
922.054	2.59336e-05
930.732	4.17475e-05
939.41	5.16649e-05
948.089	5.18926e-05
956.767	3.81837e-05
965.445	2.34918e-05
974.123	1.78189e-05
982.801	1.64129e-05
991.479	1.44256e-05
1000.16	1.24537e-05
1008.84	7.72711e-06
1017.51	5.15449e-06
1026.19	3.708e-06
1034.87	2.91158e-06
1043.55	3.22139e-06
1052.23	3.93136e-06
1060.9	6.24117e-06
1069.58	1.04474e-05
1078.26	1.594e-05
1086.94	1.54377e-05
1095.62	1.51885e-05
1104.3	1.06089e-05
1112.97	9.15633e-06
1121.65	1.0073e-05
1130.33	1.31082e-05
1139.01	2.34841e-05
1147.69	6.87965e-05
1156.36	0.000160629
1165.04	0.000239364
1173.72	0.000266845
1182.4	0.000195407
1191.08	0.00012574
1199.76	7.19324e-05
1208.43	4.91598e-05
1217.11	2.98181e-05
1225.79	1.56255e-05
1234.47	1.17225e-05
1243.15	1.20219e-05
1251.82	1.37969e-05
1260.5	1.42535e-05
1269.18	1.3216e-05
1277.86	1.0464e-05
1286.54	8.81253e-06
1295.21	1.02044e-05
1303.89	1.50485e-05
1312.57	2.25668e-05
1321.25	3.24055e-05
1329.93	4.677e-05
1338.61	6.84266e-05
1347.28	0.000110703
1355.96	0.000199528
1364.64	0.000228254
1373.32	0.000230613
1382	0.000122488
1390.67	6.29296e-05
1399.35	5.6425e-05
1408.03	5.97609e-05
1416.71	7.70913e-05
1425.39	7.61253e-05
1434.07	8.63725e-05
1442.74	7.90997e-05
1451.42	7.82546e-05
1460.1	8.93478e-05
1468.78	7.0539e-05
1477.46	6.03125e-05
1486.13	3.25315e-05
1494.81	2.00643e-05
1503.49	1.6268e-05
1512.17	1.71341e-05
1520.85	1.54744e-05
1529.52	1.40082e-05
1538.2	1.26698e-05
1546.88	1.02464e-05
1555.56	8.74437e-06
1564.24	7.49732e-06
1572.92	6.22663e-06
1581.59	5.47399e-06
1590.27	4.72074e-06
1598.95	3.9414e-06
1607.63	3.44686e-06
1616.31	3.36552e-06
1624.98	3.26592e-06
1633.66	3.42258e-06
1642.34	3.91131e-06
1651.02	3.77913e-06
1659.7	5.03808e-06
1668.38	7.08866e-06
1677.05	9.90251e-06
1685.73	1.67506e-05
1694.41	2.92816e-05
1703.09	5.70909e-05
1711.77	0.000123695
1720.44	0.000271071
1729.12	0.000488802
1737.8	0.000460672
1746.48	0.000560474
1755.16	0.000323969
1763.84	0.000138453
1772.51	5.54057e-05
1781.19	2.31935e-05
1789.87	1.09882e-05
1798.55	7.44881e-06
1807.23	4.86218e-06
1815.9	2.44421e-06
1824.58	1.64714e-06
1833.26	1.51038e-06
1841.94	1.51615e-06
1850.62	1.71646e-06
1859.29	2.12834e-06
1867.97	3.07826e-06
1876.65	2.84255e-06
1885.33	2.87745e-06
1894.01	2.64729e-06
1902.69	2.05505e-06
1911.36	1.5898e-06
1920.04	1.38736e-06
1928.72	1.35278e-06
1937.4	1.13514e-06
1946.08	1.07613e-06
1954.75	9.82751e-07
1963.43	7.29456e-07
1972.11	3.58978e-07
1980.79	5.14412e-07
1989.47	5.64561e-07
1998.15	6.54975e-07
2006.82	3.8332e-07
2015.5	2.5102e-07
2024.18	1.01955e-07
2032.86	1.21464e-07
2041.54	2.05058e-07
2050.21	2.06942e-07
2058.89	3.73534e-07
2067.57	5.01743e-07
2076.25	8.76755e-07
2084.93	1.45599e-06
2093.6	2.02691e-06
2102.28	2.69325e-06
2110.96	3.27751e-06
2119.64	3.25525e-06
2128.32	2.70693e-06
2137	1.8104e-06
2145.67	9.08591e-07
2154.35	7.23403e-07
2163.03	6.5713e-07
2171.71	6.79061e-07
2180.39	4.64072e-07
2189.06	2.76651e-07
2197.74	6.50233e-08
2206.42	-6.72024e-08
2215.1	-2.81511e-08
2223.78	-7.88528e-08
2232.46	-4.5564e-08
2241.13	-1.64803e-07
2249.81	-1.36767e-07
2258.49	8.54566e-08
2267.17	3.52363e-07
2275.85	6.53011e-07
2284.52	1.07187e-06
2293.2	1.38223e-06
2301.88	1.27366e-06
2310.56	1.18056e-06
2319.24	1.3752e-06
2327.92	7.34823e-07
2336.59	8.29941e-07
2345.27	7.40582e-07
2353.95	8.28812e-07
2362.63	1.88934e-06
2371.31	1.55501e-06
2379.98	9.48044e-07
2388.66	6.72962e-07
2397.34	5.60876e-07
2406.02	4.5847e-07
2414.7	3.39091e-07
2423.37	1.965e-07
2432.05	2.95293e-07
2440.73	1.31848e-07
2449.41	2.36545e-07
2458.09	4.54543e-07
2466.77	5.20572e-07
2475.44	6.19112e-07
2484.12	5.06197e-07
2492.8	4.66775e-07
2501.48	6.50963e-07
2510.16	9.25792e-07
2518.83	1.23559e-06
2527.51	9.34238e-07
2536.19	6.09229e-07
2544.87	4.88173e-07
2553.55	3.00284e-07
2562.23	3.1248e-07
2570.9	2.43557e-07
2579.58	7.59116e-08
2588.26	-1.60487e-08
2596.94	4.5745e-08
2605.62	1.40779e-07
2614.29	1.49769e-07
2622.97	2.14528e-07
2631.65	9.14682e-08
2640.33	6.03058e-08
2649.01	1.56851e-07
2657.68	3.99093e-07
2666.36	7.21591e-07
2675.04	1.0072e-06
2683.72	1.02721e-06
2692.4	8.11138e-07
2701.08	8.27702e-07
2709.75	9.92117e-07
2718.43	9.63221e-07
2727.11	1.19835e-06
2735.79	1.75594e-06
2744.47	2.41227e-06
2753.14	2.7201e-06
2761.82	2.78321e-06
2770.5	2.17087e-06
2779.18	2.50682e-06
2787.86	3.48338e-06
2796.54	5.54918e-06
2805.21	7.77693e-06
2813.89	1.07855e-05
2822.57	1.24891e-05
2831.25	1.4204e-05
2839.93	1.51234e-05
2848.6	1.48152e-05
2857.28	1.50403e-05
2865.96	1.65132e-05
2874.64	2.87675e-05
2883.32	5.76455e-05
2892	8.50042e-05
2900.67	0.000108702
2909.35	0.0001159
2918.03	0.000139874
2926.71	0.00011093
2935.39	0.000113185
2944.06	0.000125875
2952.74	0.000117244
2961.42	0.000129927
2970.1	0.000135133
2978.78	0.000175574
2987.45	0.000193167
2996.13	0.00019175
3004.81	0.000133347
3013.49	8.47424e-05
3022.17	5.39383e-05
3030.85	3.18031e-05
3039.52	2.19453e-05
3048.2	1.93239e-05
3056.88	1.74196e-05
3065.56	1.58871e-05
3074.24	1.33357e-05
3082.91	1.05413e-05
3091.59	8.02174e-06
3100.27	6.00035e-06
3108.95	4.64938e-06
3117.63	3.69972e-06
3126.31	2.72829e-06
3134.98	2.43208e-06
3143.66	2.21522e-06
3152.34	2.39138e-06
3161.02	2.46439e-06
3169.7	3.15461e-06
3178.37	2.92294e-06
3187.05	2.81605e-06
3195.73	2.0748e-06
3204.41	1.3109e-06
3213.09	7.36057e-07
3221.77	4.54799e-07
3230.44	7.76168e-07
3239.12	5.93993e-07
3247.8	5.68787e-07
3256.48	1.27819e-07
3265.16	-8.67417e-08
3273.83	-1.83505e-07
3282.51	-4.20544e-07
3291.19	-1.73099e-07
3299.87	-3.38477e-07
3308.55	-3.18646e-07
3317.22	-1.47604e-07
3325.9	-2.79191e-07
3334.58	-1.11741e-07
3343.26	-3.48153e-07
3351.94	-2.29408e-07
3360.62	1.07056e-07
3369.29	3.37293e-07
3377.97	3.42477e-07
3386.65	3.72527e-07
3395.33	4.81005e-07
3404.01	3.20865e-07
3412.68	3.8194e-07
3421.36	1.07614e-06
3430.04	2.92117e-06
3438.72	5.28612e-06
3447.4	8.82294e-06
3456.08	1.03263e-05
3464.75	9.93355e-06
3473.43	7.20787e-06
3482.11	3.03239e-06
3490.79	5.91668e-07
3499.47	-4.38037e-07
3508.14	-8.7129e-07
3516.82	-8.97782e-07
3525.5	-8.01316e-07
3534.18	-8.81479e-07
3542.86	-8.09031e-07
3551.53	-3.8505e-07
3560.21	-2.67079e-07
3568.89	3.14735e-07
3577.57	7.87828e-08
3586.25	3.34205e-07
3594.93	7.48247e-08
3603.6	-1.3898e-07
3612.28	-1.63548e-07
3620.96	-4.11539e-07
3629.64	4.59801e-06
3638.32	-9.51998e-08
3646.99	7.80244e-07
3655.67	3.91961e-07
3664.35	8.60177e-08
3673.03	7.72312e-08
3681.71	-3.12158e-07
3690.39	-2.0667e-08
3699.06	-2.24014e-07
3707.74	-1.76627e-07
3716.42	-2.94728e-07
3725.1	2.94166e-07
3733.78	-1.50846e-07
3742.45	4.5394e-08
3751.13	2.09418e-07
3759.81	1.40132e-06
3768.49	-4.1971e-07
3777.17	-3.8251e-07
3785.85	-3.90288e-07
3794.52	-2.02868e-07
3803.2	-3.08828e-07
3811.88	-2.98637e-07
3820.56	1.40095e-06
3829.24	-1.03392e-07
3837.91	8.77133e-06
3846.59	1.61273e-07
3855.27	1.13291e-07
3863.95	4.07791e-07
3872.63	7.14277e-07
3881.3	4.86101e-07
3889.98	2.37629e-08
3898.66	9.91988e-08
3907.34	-9.02477e-08
3916.02	-1.08412e-07
3924.7	-1.07403e-07
3933.37	7.37943e-08
3942.05	2.60525e-07
3950.73	1.87608e-07
3959.41	2.16796e-07
3968.09	4.3443e-07
