Infrared Spectrum: 2-Butanone
Formula: C H3 C H2 C O C H3
CAS: 78-93-3
State: gas
Melting point: -86.35 C
Boiling point: 79.6 C
Class: IUPAC A
Instrument: IFS66V (Bruker)
Instrument parameters: KBr Beam splitter; MCT Detector; Multipass cell
Sampling: 1 L/min Flow
Resolution: 0.2410
Temperature: 23 C
Pressure: 101.3 kPa
Origin: NIST, Anayltical Chemistry Division, 301-975-3108
cm-1	(micromol/mol)-1m-1 (base 10)
575.048	2.07208e-05
583.606	2.79882e-05
592.163	3.00333e-05
600.721	2.20932e-05
609.279	5.71681e-06
617.836	1.36502e-06
626.394	4.76191e-07
634.951	4.36656e-07
643.509	6.84384e-07
652.067	1.43985e-06
660.624	6.27111e-07
669.182	4.29511e-07
677.74	2.46768e-07
686.297	1.44698e-07
694.855	6.36782e-08
703.412	-6.30015e-08
711.97	5.61598e-07
720.528	7.28081e-07
729.085	2.97688e-06
737.643	7.68825e-06
746.201	1.56093e-05
754.758	2.11397e-05
763.316	1.9252e-05
771.873	1.07422e-05
780.431	3.35544e-06
788.989	1.60917e-06
797.546	1.08399e-06
806.104	6.71133e-07
814.662	4.24283e-07
823.219	2.03759e-07
831.777	5.95628e-07
840.334	2.73884e-07
848.892	3.55205e-07
857.45	5.80498e-07
866.007	7.52123e-07
874.565	1.1861e-06
883.123	1.77755e-06
891.68	2.64751e-06
900.238	4.70389e-06
908.795	9.56248e-06
917.353	1.85401e-05
925.911	3.21517e-05
934.468	4.87502e-05
943.026	5.28217e-05
951.584	4.85553e-05
960.141	3.15077e-05
968.699	2.05455e-05
977.256	1.71597e-05
985.814	1.54681e-05
994.372	1.35716e-05
1002.93	1.13672e-05
1011.49	6.77224e-06
1020.04	4.77879e-06
1028.6	3.3593e-06
1037.16	2.84894e-06
1045.72	3.36253e-06
1054.28	4.48666e-06
1062.83	7.02825e-06
1071.39	1.15249e-05
1079.95	1.64609e-05
1088.51	1.49559e-05
1097.06	1.42064e-05
1105.62	1.00914e-05
1114.18	9.14303e-06
1122.74	1.028e-05
1131.29	1.37055e-05
1139.85	2.55986e-05
1148.41	7.58317e-05
1156.97	0.000165499
1165.52	0.000244521
1174.08	0.000267545
1182.64	0.000193288
1191.2	0.000124797
1199.75	7.18923e-05
1208.31	4.93545e-05
1216.87	3.03676e-05
1225.43	1.5838e-05
1233.99	1.17563e-05
1242.54	1.18282e-05
1251.1	1.38006e-05
1259.66	1.4338e-05
1268.22	1.34942e-05
1276.77	1.08613e-05
1285.33	8.8348e-06
1293.89	9.67327e-06
1302.45	1.40588e-05
1311	2.08921e-05
1319.56	3.00409e-05
1328.12	4.32899e-05
1336.68	6.29728e-05
1345.23	9.47438e-05
1353.79	0.000179364
1362.35	0.000215777
1370.91	0.000218585
1379.46	0.000166931
1388.02	6.55728e-05
1396.58	5.81916e-05
1405.14	5.60352e-05
1413.7	7.23553e-05
1422.25	7.44473e-05
1430.81	8.96476e-05
1439.37	7.95503e-05
1447.93	8.00309e-05
1456.48	0.000112947
1465.04	6.78792e-05
1473.6	7.1875e-05
1482.16	4.38658e-05
1490.71	2.57625e-05
1499.27	1.76259e-05
1507.83	1.63294e-05
1516.39	1.60928e-05
1524.94	1.51787e-05
1533.5	1.38259e-05
1542.06	1.62559e-05
1550.62	9.65873e-06
1559.18	8.70423e-06
1567.73	6.93749e-06
1576.29	1.31633e-05
1584.85	5.28391e-06
1593.41	4.35024e-06
1601.96	3.72662e-06
1610.52	3.28755e-06
1619.08	3.1793e-06
1627.64	4.02547e-06
1636.19	3.85951e-06
1644.75	4.07352e-06
1653.31	1.41195e-05
1661.87	5.51341e-06
1670.42	7.23491e-06
1678.98	1.10258e-05
1687.54	1.90165e-05
1696.1	3.75003e-05
1704.65	6.6339e-05
1713.21	0.000141306
1721.77	0.000302748
1730.33	0.000512628
1738.89	0.000451662
1747.44	0.000543802
1756	0.000300742
1764.56	0.000127902
1773.12	5.03066e-05
1781.67	2.2159e-05
1790.23	1.09351e-05
1798.79	7.34977e-06
1807.35	4.83719e-06
1815.9	2.41521e-06
1824.46	1.59128e-06
1833.02	1.39172e-06
1841.58	1.4861e-06
1850.13	1.68961e-06
1858.69	2.1414e-06
1867.25	2.49265e-06
1875.81	2.84675e-06
1884.36	2.93183e-06
1892.92	2.73664e-06
1901.48	2.10802e-06
1910.04	1.95889e-06
1918.6	1.48294e-06
1927.15	1.32071e-06
1935.71	1.12929e-06
1944.27	1.1533e-06
1952.83	8.57773e-07
1961.38	7.11434e-07
1969.94	4.97073e-07
1978.5	4.73682e-07
1987.06	5.7263e-07
1995.61	6.53661e-07
2004.17	6.09904e-07
2012.73	3.18919e-07
2021.29	2.03616e-07
2029.84	1.07429e-07
2038.4	1.45809e-07
2046.96	1.69905e-07
2055.52	2.34671e-07
2064.08	5.06134e-07
2072.63	7.2305e-07
2081.19	1.11258e-06
2089.75	1.76642e-06
2098.31	2.37225e-06
2106.86	3.03332e-06
2115.42	3.42632e-06
2123.98	3.04877e-06
2132.54	2.45334e-06
2141.09	1.30838e-06
2149.65	8.06582e-07
2158.21	6.36801e-07
2166.77	7.77642e-07
2175.32	6.28094e-07
2183.88	4.32993e-07
2192.44	1.3679e-07
2201	2.18221e-08
2209.55	-2.02523e-08
2218.11	-4.42835e-08
2226.67	-2.92707e-08
2235.23	-1.42194e-07
2243.79	-1.90386e-07
2252.34	-6.94179e-08
2260.9	7.53595e-08
2269.46	3.54031e-07
2278.02	7.95987e-07
2286.57	1.23478e-06
2295.13	1.47671e-06
2303.69	1.31015e-06
2312.25	1.15174e-06
2320.8	9.36886e-07
2329.36	7.24922e-07
2337.92	9.60839e-07
2346.48	8.05224e-07
2355.03	9.35647e-07
2363.59	1.08874e-06
2372.15	1.0308e-06
2380.71	9.42427e-07
2389.26	6.11191e-07
2397.82	4.55976e-07
2406.38	3.71078e-07
2414.94	3.2396e-07
2423.5	2.47609e-07
2432.05	2.55089e-07
2440.61	1.68732e-07
2449.17	1.99737e-07
2457.73	3.42044e-07
2466.28	4.50927e-07
2474.84	5.48627e-07
2483.4	4.65758e-07
2491.96	4.41801e-07
2500.51	7.69712e-07
2509.07	1.0758e-06
2517.63	1.3087e-06
2526.19	9.84886e-07
2534.74	8.07365e-07
2543.3	4.60383e-07
2551.86	2.77673e-07
2560.42	2.68929e-07
2568.98	2.54122e-07
2577.53	1.76977e-07
2586.09	1.27576e-07
2594.65	3.54443e-08
2603.21	1.24983e-07
2611.76	1.88733e-07
2620.32	1.9504e-07
2628.88	1.92163e-07
2637.44	3.22984e-08
2645.99	7.63145e-08
2654.55	3.97261e-07
2663.11	5.8548e-07
2671.67	8.7068e-07
2680.22	9.28414e-07
2688.78	8.63065e-07
2697.34	7.90604e-07
2705.9	8.20156e-07
2714.45	8.89125e-07
2723.01	1.1943e-06
2731.57	1.39381e-06
2740.13	1.97289e-06
2748.69	2.5727e-06
2757.24	2.89302e-06
2765.8	2.37249e-06
2774.36	2.25541e-06
2782.92	2.79589e-06
2791.47	4.32041e-06
2800.03	6.4426e-06
2808.59	9.02438e-06
2817.15	1.16645e-05
2825.7	1.31494e-05
2834.26	1.49969e-05
2842.82	1.48316e-05
2851.38	1.47316e-05
2859.93	1.53462e-05
2868.49	1.80944e-05
2877.05	3.6691e-05
2885.61	5.99185e-05
2894.16	8.82981e-05
2902.72	0.000110189
2911.28	0.000118981
2919.84	0.000128403
2928.4	0.000107387
2936.95	0.000119198
2945.51	0.0001197
2954.07	0.000118444
2962.63	0.000126181
2971.18	0.000136256
2979.74	0.00018007
2988.3	0.00019193
2996.86	0.000188789
3005.41	0.000129172
3013.97	8.40706e-05
3022.53	5.30379e-05
3031.09	3.12085e-05
3039.64	2.18008e-05
3048.2	1.93132e-05
3056.76	1.74289e-05
3065.32	1.57615e-05
3073.88	1.33412e-05
3082.43	1.06817e-05
3090.99	8.05386e-06
3099.55	6.27061e-06
3108.11	4.86594e-06
3116.66	3.65011e-06
3125.22	2.77817e-06
3133.78	2.34377e-06
3142.34	2.18017e-06
3150.89	2.11595e-06
3159.45	2.39589e-06
3168.01	2.89851e-06
3176.57	2.89751e-06
3185.12	3.36896e-06
3193.68	2.20437e-06
3202.24	1.4451e-06
3210.8	7.13673e-07
3219.35	5.30049e-07
3227.91	5.62043e-07
3236.47	7.11525e-07
3245.03	6.23295e-07
3253.59	1.4053e-07
3262.14	-3.54688e-08
3270.7	-3.23794e-07
3279.26	-2.08794e-07
3287.82	-4.07902e-07
3296.37	-3.36139e-07
3304.93	-1.51699e-07
3313.49	-1.70337e-07
3322.05	-3.10613e-07
3330.6	-2.36343e-07
3339.16	-2.23229e-07
3347.72	-2.83524e-07
3356.28	-4.79596e-08
3364.83	1.72837e-07
3373.39	3.90553e-07
3381.95	1.52616e-07
3390.51	5.20324e-07
3399.06	8.89626e-08
3407.62	2.67434e-07
3416.18	5.70279e-07
3424.74	1.76412e-06
3433.3	3.56917e-06
3441.85	6.57569e-06
3450.41	9.99565e-06
3458.97	9.56313e-06
3467.53	9.98523e-06
3476.08	5.34032e-06
3484.64	1.84162e-06
3493.2	3.075e-07
3501.76	-4.18234e-07
3510.31	-6.75723e-07
3518.87	-7.37308e-07
3527.43	-6.39816e-07
3535.99	-7.0439e-07
3544.54	-7.33101e-07
3553.1	-5.99274e-07
3561.66	-2.35888e-07
3570.22	2.07486e-07
3578.78	-3.96806e-08
3587.33	1.05345e-08
3595.89	2.89167e-07
3604.45	-3.28426e-07
3613.01	-4.29511e-08
3621.56	-2.46098e-07
3630.12	-9.01549e-08
3638.68	-2.32439e-07
3647.24	1.04855e-06
3655.79	1.0103e-07
3664.35	2.79119e-09
3672.91	-3.60845e-08
3681.47	-1.77086e-07
3690.02	-1.32202e-07
3698.58	-2.10654e-07
3707.14	-3.66513e-07
3715.7	-2.94338e-07
3724.25	-3.0469e-07
3732.81	-7.96523e-08
3741.37	5.09392e-07
3749.93	6.72495e-07
3758.49	-2.28134e-07
3767.04	-1.90029e-07
3775.6	-3.67817e-07
3784.16	-3.96013e-07
3792.72	-3.65184e-07
3801.27	4.35154e-06
3809.83	-3.59705e-07
3818.39	-6.32316e-08
3826.95	5.19078e-07
3835.5	3.13718e-07
3844.06	5.1927e-07
3852.62	8.04912e-07
3861.18	7.12551e-07
3869.73	1.14425e-06
3878.29	5.22929e-07
3886.85	2.09652e-07
3895.41	2.74527e-08
3903.96	8.41481e-07
3912.52	-1.19588e-08
3921.08	-2.36999e-07
3929.64	2.15206e-07
3938.2	6.42366e-08
3946.75	2.85489e-07
3955.31	1.52091e-07
3963.87	1.69675e-07
3972.43	4.76232e-07
