Infrared Spectrum: 2-Butanone
Formula: C H3 C H2 C O C H3
CAS: 78-93-3
State: gas
Melting point: -86.35 C
Boiling point: 79.6 C
Class: IUPAC A
Instrument: IFS66V (Bruker)
Instrument parameters: KBr Beam splitter; MCT Detector; Multipass cell
Sampling: 1 L/min Flow
Resolution: 0.1250
Temperature: 23 C
Pressure: 101.3 kPa
Origin: NIST, Anayltical Chemistry Division, 301-975-3108
cm-1	(micromol/mol)-1m-1 (base 10)
574.988	2.09669e-05
583.546	2.75117e-05
592.103	3.01658e-05
600.661	2.17445e-05
609.219	5.66931e-06
617.776	1.53958e-06
626.334	6.55422e-07
634.891	4.96984e-07
643.449	7.5723e-07
652.007	1.5371e-06
660.564	5.61721e-07
669.122	6.40636e-07
677.68	3.12174e-07
686.237	3.31894e-07
694.795	2.22332e-07
703.352	-3.03539e-08
711.91	5.64928e-07
720.468	7.99607e-07
729.025	3.03958e-06
737.583	7.42154e-06
746.141	1.54779e-05
754.698	2.11967e-05
763.256	1.94053e-05
771.813	1.09615e-05
780.371	3.45306e-06
788.929	1.53139e-06
797.486	1.03217e-06
806.044	6.1456e-07
814.602	5.34396e-07
823.159	2.88568e-07
831.717	5.12617e-07
840.274	3.96784e-07
848.832	3.66828e-07
857.39	5.67537e-07
865.947	7.54747e-07
874.505	1.09164e-06
883.063	1.77532e-06
891.62	2.66807e-06
900.178	4.64717e-06
908.735	9.5623e-06
917.293	1.84354e-05
925.851	3.19954e-05
934.408	4.85395e-05
942.966	5.29558e-05
951.524	4.85756e-05
960.081	3.16636e-05
968.639	2.05413e-05
977.196	1.70943e-05
985.754	1.54302e-05
994.312	1.35598e-05
1002.87	1.13537e-05
1011.43	6.80394e-06
1019.98	4.76939e-06
1028.54	3.48142e-06
1037.1	2.81014e-06
1045.66	3.322e-06
1054.22	4.53828e-06
1062.77	6.99567e-06
1071.33	1.14121e-05
1079.89	1.64125e-05
1088.45	1.49711e-05
1097	1.42198e-05
1105.56	1.00971e-05
1114.12	9.17538e-06
1122.68	1.03322e-05
1131.23	1.36482e-05
1139.79	2.54269e-05
1148.35	7.52353e-05
1156.91	0.000164954
1165.46	0.000243663
1174.02	0.00026761
1182.58	0.000193925
1191.14	0.000125214
1199.69	7.20208e-05
1208.25	4.94401e-05
1216.81	3.04836e-05
1225.37	1.59449e-05
1233.93	1.17728e-05
1242.48	1.17534e-05
1251.04	1.38251e-05
1259.6	1.43985e-05
1268.16	1.3507e-05
1276.71	1.08592e-05
1285.27	8.82584e-06
1293.83	9.59521e-06
1302.39	1.40329e-05
1310.94	2.09129e-05
1319.5	2.99634e-05
1328.06	4.31936e-05
1336.62	6.28328e-05
1345.17	9.43411e-05
1353.73	0.000178738
1362.29	0.000215761
1370.85	0.00021812
1379.4	0.00016797
1387.96	6.5758e-05
1396.52	5.83133e-05
1405.08	5.62314e-05
1413.64	7.22214e-05
1422.19	7.45014e-05
1430.75	8.95526e-05
1439.31	7.9552e-05
1447.87	7.97512e-05
1456.42	0.000112268
1464.98	6.86538e-05
1473.54	7.34617e-05
1482.1	4.40198e-05
1490.65	2.52495e-05
1499.21	1.76892e-05
1507.77	1.62773e-05
1516.33	1.62028e-05
1524.88	1.52566e-05
1533.44	1.38871e-05
1542	1.55313e-05
1550.56	9.7011e-06
1559.11	8.72635e-06
1567.67	6.95849e-06
1576.23	1.58078e-05
1584.79	5.21522e-06
1593.35	4.35733e-06
1601.9	3.65105e-06
1610.46	3.34002e-06
1619.02	3.18676e-06
1627.58	3.65451e-06
1636.13	3.96376e-06
1644.69	4.038e-06
1653.25	1.5058e-05
1661.81	5.47035e-06
1670.36	7.26746e-06
1678.92	1.09797e-05
1687.48	1.89827e-05
1696.04	3.99087e-05
1704.59	6.63447e-05
1713.15	0.00014055
1721.71	0.00030122
1730.27	0.000511682
1738.83	0.000451717
1747.38	0.000544954
1755.94	0.000302244
1764.5	0.000128793
1773.06	5.07946e-05
1781.61	2.22651e-05
1790.17	1.10077e-05
1798.73	7.34742e-06
1807.29	4.8302e-06
1815.84	2.41789e-06
1824.4	1.56398e-06
1832.96	1.37731e-06
1841.52	1.5172e-06
1850.07	1.66342e-06
1858.63	2.12765e-06
1867.19	2.51283e-06
1875.75	2.88087e-06
1884.3	2.93096e-06
1892.86	2.76776e-06
1901.42	2.04478e-06
1909.98	2.05887e-06
1918.54	1.474e-06
1927.09	1.33921e-06
1935.65	1.11192e-06
1944.21	1.15364e-06
1952.77	9.38688e-07
1961.32	7.83005e-07
1969.88	5.09304e-07
1978.44	4.7153e-07
1987	5.84513e-07
1995.55	6.26329e-07
2004.11	5.98204e-07
2012.67	3.02086e-07
2021.23	2.00725e-07
2029.78	1.02616e-07
2038.34	1.77566e-07
2046.9	1.81322e-07
2055.46	2.21252e-07
2064.01	4.95694e-07
2072.57	6.92072e-07
2081.13	1.0801e-06
2089.69	1.761e-06
2098.25	2.31153e-06
2106.8	3.01475e-06
2115.36	3.41216e-06
2123.92	3.07173e-06
2132.48	2.45972e-06
2141.03	1.31815e-06
2149.59	8.20268e-07
2158.15	6.06557e-07
2166.71	7.93069e-07
2175.26	6.26744e-07
2183.82	4.10017e-07
2192.38	1.34659e-07
2200.94	4.31785e-08
2209.49	-1.924e-08
2218.05	-6.82465e-08
2226.61	-5.58957e-08
2235.17	-1.19962e-07
2243.72	-2.06707e-07
2252.28	-8.93673e-08
2260.84	5.91571e-08
2269.4	3.74653e-07
2277.96	7.53345e-07
2286.51	1.18946e-06
2295.07	1.52642e-06
2303.63	1.306e-06
2312.19	1.15034e-06
2320.74	9.6331e-07
2329.3	7.36619e-07
2337.86	1.06225e-06
2346.42	8.5425e-07
2354.97	9.86811e-07
2363.53	1.11353e-06
2372.09	1.05947e-06
2380.65	9.06155e-07
2389.2	6.42887e-07
2397.76	5.06111e-07
2406.32	3.94656e-07
2414.88	3.30959e-07
2423.44	1.95113e-07
2431.99	2.3003e-07
2440.55	1.9506e-07
2449.11	1.54843e-07
2457.67	3.61661e-07
2466.22	4.93705e-07
2474.78	5.67886e-07
2483.34	4.60546e-07
2491.9	4.41164e-07
2500.45	7.29464e-07
2509.01	1.03875e-06
2517.57	1.33069e-06
2526.13	9.80948e-07
2534.68	8.15503e-07
2543.24	4.61954e-07
2551.8	2.86464e-07
2560.36	2.673e-07
2568.91	2.63274e-07
2577.47	1.71415e-07
2586.03	1.27508e-07
2594.59	8.701e-09
2603.15	7.54968e-08
2611.7	1.76571e-07
2620.26	1.96635e-07
2628.82	2.02117e-07
2637.38	1.75157e-08
2645.93	1.14393e-07
2654.49	3.74387e-07
2663.05	5.92544e-07
2671.61	8.25982e-07
2680.16	9.59418e-07
2688.72	8.60612e-07
2697.28	8.20731e-07
2705.84	7.8926e-07
2714.39	9.01083e-07
2722.95	1.23676e-06
2731.51	1.41492e-06
2740.07	2.01868e-06
2748.62	2.62286e-06
2757.18	2.90482e-06
2765.74	2.36924e-06
2774.3	2.17751e-06
2782.86	2.80441e-06
2791.41	4.34132e-06
2799.97	6.4086e-06
2808.53	9.05104e-06
2817.09	1.17128e-05
2825.64	1.3105e-05
2834.2	1.48858e-05
2842.76	1.48086e-05
2851.32	1.47647e-05
2859.87	1.53268e-05
2868.43	1.81206e-05
2876.99	3.651e-05
2885.55	5.99426e-05
2894.1	8.81171e-05
2902.66	0.000110078
2911.22	0.00011883
2919.78	0.000128542
2928.34	0.000107506
2936.89	0.000118743
2945.45	0.000120011
2954.01	0.000118115
2962.57	0.000126175
2971.12	0.000136042
2979.68	0.000179524
2988.24	0.000191989
2996.8	0.000189134
3005.35	0.000129437
3013.91	8.42294e-05
3022.47	5.31269e-05
3031.03	3.12281e-05
3039.58	2.18555e-05
3048.14	1.92533e-05
3056.7	1.74878e-05
3065.26	1.57348e-05
3073.81	1.33797e-05
3082.37	1.06763e-05
3090.93	8.04647e-06
3099.49	6.34466e-06
3108.05	4.89414e-06
3116.6	3.75454e-06
3125.16	2.95859e-06
3133.72	2.46526e-06
3142.28	2.11333e-06
3150.83	2.06644e-06
3159.39	2.35629e-06
3167.95	2.88492e-06
3176.51	2.7778e-06
3185.06	3.36723e-06
3193.62	2.2314e-06
3202.18	1.45758e-06
3210.74	6.97019e-07
3219.29	4.96899e-07
3227.85	5.26708e-07
3236.41	8.43656e-07
3244.97	7.31649e-07
3253.52	2.11942e-07
3262.08	-5.32728e-08
3270.64	-2.68805e-07
3279.2	-2.703e-07
3287.76	-5.22499e-07
3296.31	-3.06044e-07
3304.87	-1.27234e-07
3313.43	-2.81388e-07
3321.99	-2.00739e-07
3330.54	-2.36924e-07
3339.1	-2.84041e-07
3347.66	-3.68247e-07
3356.22	-2.04268e-07
3364.77	1.8752e-07
3373.33	3.26691e-07
3381.89	2.49245e-07
3390.45	4.73091e-07
3399	1.61352e-07
3407.56	2.27948e-07
3416.12	5.44113e-07
3424.68	1.72412e-06
3433.23	3.51154e-06
3441.79	6.66181e-06
3450.35	9.98973e-06
3458.91	9.54781e-06
3467.47	1.00238e-05
3476.02	5.3488e-06
3484.58	1.79472e-06
3493.14	2.9212e-07
3501.7	-4.09352e-07
3510.25	-7.21653e-07
3518.81	-7.06232e-07
3527.37	-7.05358e-07
3535.93	-7.46522e-07
3544.48	-7.01007e-07
3553.04	-6.86198e-07
3561.6	-2.31626e-07
3570.16	2.37599e-07
3578.71	5.6667e-08
3587.27	6.6342e-08
3595.83	2.35839e-07
3604.39	-2.76212e-07
3612.95	-5.27489e-08
3621.5	-3.09723e-07
3630.06	-4.59287e-09
3638.62	-2.31253e-07
3647.18	1.32143e-06
3655.73	9.61239e-08
3664.29	-7.50858e-08
3672.85	-1.84171e-07
3681.41	-1.40265e-07
3689.96	-1.64643e-07
3698.52	-1.65448e-07
3707.08	-3.45505e-07
3715.64	-2.16765e-07
3724.19	-3.7548e-07
3732.75	-3.47003e-08
3741.31	7.61227e-07
3749.87	8.2197e-07
3758.42	-2.3122e-07
3766.98	-2.37838e-07
3775.54	-3.62253e-07
3784.1	-2.81332e-07
3792.66	-3.54051e-07
3801.21	2.4112e-06
3809.77	-3.52226e-07
3818.33	-5.09045e-08
3826.89	8.33698e-07
3835.44	3.80777e-07
3844	6.76646e-07
3852.56	9.91887e-07
3861.12	7.42343e-07
3869.67	1.10253e-06
3878.23	4.60753e-07
3886.79	2.97358e-07
3895.35	2.36892e-08
3903.9	4.43765e-07
3912.46	1.64734e-08
3921.02	-2.96472e-07
3929.58	1.67369e-07
3938.13	4.12476e-08
3946.69	2.20411e-07
3955.25	4.8689e-08
3963.81	8.61105e-08
3972.37	4.10377e-07
