Infrared Spectrum: 2-Butanone
Formula: C H3 C H2 C O C H3
CAS: 78-93-3
State: gas
Melting point: -86.35 C
Boiling point: 79.6 C
Class: IUPAC A
Instrument: IFS66V (Bruker)
Instrument parameters: KBr Beam splitter; MCT Detector; Multipass cell
Sampling: 1 L/min Flow
Resolution: 0.2410
Temperature: 23 C
Pressure: 101.3 kPa
Origin: NIST, Anayltical Chemistry Division, 301-975-3108
cm-1	(micromol/mol)-1m-1 (base 10)
575.048	2.07342e-05
583.606	2.79944e-05
592.163	3.00367e-05
600.721	2.20957e-05
609.279	5.71265e-06
617.836	1.36166e-06
626.394	4.80936e-07
634.951	4.38534e-07
643.509	6.83549e-07
652.067	1.43637e-06
660.624	6.27854e-07
669.182	4.33445e-07
677.74	2.47332e-07
686.297	1.47765e-07
694.855	6.01776e-08
703.412	-6.04695e-08
711.97	5.57867e-07
720.528	7.30853e-07
729.085	2.97586e-06
737.643	7.68666e-06
746.201	1.56125e-05
754.758	2.11374e-05
763.316	1.92532e-05
771.873	1.07427e-05
780.431	3.35323e-06
788.989	1.61204e-06
797.546	1.0859e-06
806.104	6.73714e-07
814.662	4.2257e-07
823.219	2.04243e-07
831.777	5.93896e-07
840.334	2.76195e-07
848.892	3.56624e-07
857.45	5.78519e-07
866.007	7.5139e-07
874.565	1.18707e-06
883.123	1.77504e-06
891.68	2.64639e-06
900.238	4.70346e-06
908.795	9.56203e-06
917.353	1.85415e-05
925.911	3.21513e-05
934.468	4.87481e-05
943.026	5.28213e-05
951.584	4.85552e-05
960.141	3.15061e-05
968.699	2.05437e-05
977.256	1.71621e-05
985.814	1.54674e-05
994.372	1.35728e-05
1002.93	1.13683e-05
1011.49	6.77135e-06
1020.04	4.77822e-06
1028.6	3.35829e-06
1037.16	2.85111e-06
1045.72	3.36109e-06
1054.28	4.48681e-06
1062.83	7.029e-06
1071.39	1.15258e-05
1079.95	1.64613e-05
1088.51	1.49576e-05
1097.06	1.42065e-05
1105.62	1.00911e-05
1114.18	9.14287e-06
1122.74	1.02808e-05
1131.29	1.37068e-05
1139.85	2.55997e-05
1148.41	7.58294e-05
1156.97	0.000165503
1165.52	0.000244522
1174.08	0.000267544
1182.64	0.000193288
1191.2	0.000124796
1199.75	7.1893e-05
1208.31	4.93567e-05
1216.87	3.03681e-05
1225.43	1.58372e-05
1233.99	1.17565e-05
1242.54	1.18291e-05
1251.1	1.38007e-05
1259.66	1.43383e-05
1268.22	1.34935e-05
1276.77	1.08604e-05
1285.33	8.83608e-06
1293.89	9.67393e-06
1302.45	1.40591e-05
1311	2.0892e-05
1319.56	3.00415e-05
1328.12	4.3292e-05
1336.68	6.29688e-05
1345.23	9.47465e-05
1353.79	0.000179366
1362.35	0.000215776
1370.91	0.000218587
1379.46	0.000166933
1388.02	6.55743e-05
1396.58	5.81907e-05
1405.14	5.60342e-05
1413.7	7.2356e-05
1422.25	7.44479e-05
1430.81	8.96493e-05
1439.37	7.95522e-05
1447.93	8.00171e-05
1456.48	0.000112928
1465.04	6.78762e-05
1473.6	7.18483e-05
1482.16	4.3865e-05
1490.71	2.57519e-05
1499.27	1.76282e-05
1507.83	1.63315e-05
1516.39	1.60957e-05
1524.94	1.51806e-05
1533.5	1.38358e-05
1542.06	1.6225e-05
1550.62	9.65912e-06
1559.18	8.70707e-06
1567.73	6.93693e-06
1576.29	1.31222e-05
1584.85	5.28272e-06
1593.41	4.3504e-06
1601.96	3.72628e-06
1610.52	3.2887e-06
1619.08	3.17867e-06
1627.64	4.02791e-06
1636.19	3.86427e-06
1644.75	4.07432e-06
1653.31	1.40473e-05
1661.87	5.51331e-06
1670.42	7.23476e-06
1678.98	1.10274e-05
1687.54	1.90172e-05
1696.1	3.74981e-05
1704.65	6.63452e-05
1713.21	0.000141308
1721.77	0.000302748
1730.33	0.000512631
1738.89	0.000451667
1747.44	0.000543804
1756	0.00030074
1764.56	0.000127902
1773.12	5.03139e-05
1781.67	2.21582e-05
1790.23	1.09343e-05
1798.79	7.35014e-06
1807.35	4.83796e-06
1815.9	2.41556e-06
1824.46	1.591e-06
1833.02	1.39293e-06
1841.58	1.48596e-06
1850.13	1.68909e-06
1858.69	2.14128e-06
1867.25	2.49275e-06
1875.81	2.8461e-06
1884.36	2.93254e-06
1892.92	2.73692e-06
1901.48	2.1085e-06
1910.04	1.9571e-06
1918.6	1.48368e-06
1927.15	1.32079e-06
1935.71	1.12893e-06
1944.27	1.15343e-06
1952.83	8.58102e-07
1961.38	7.11717e-07
1969.94	4.97562e-07
1978.5	4.7379e-07
1987.06	5.72017e-07
1995.61	6.53997e-07
2004.17	6.08489e-07
2012.73	3.19039e-07
2021.29	2.03111e-07
2029.84	1.07396e-07
2038.4	1.45561e-07
2046.96	1.70013e-07
2055.52	2.34651e-07
2064.08	5.05623e-07
2072.63	7.2346e-07
2081.19	1.11163e-06
2089.75	1.7668e-06
2098.31	2.37253e-06
2106.86	3.03294e-06
2115.42	3.42762e-06
2123.98	3.04832e-06
2132.54	2.45369e-06
2141.09	1.30793e-06
2149.65	8.06314e-07
2158.21	6.37489e-07
2166.77	7.77083e-07
2175.32	6.28136e-07
2183.88	4.3186e-07
2192.44	1.36673e-07
2201	2.2526e-08
2209.55	-2.05706e-08
2218.11	-4.41716e-08
2226.67	-2.97036e-08
2235.23	-1.42228e-07
2243.79	-1.88741e-07
2252.34	-6.88003e-08
2260.9	7.47247e-08
2269.46	3.54096e-07
2278.02	7.95817e-07
2286.57	1.23467e-06
2295.13	1.47566e-06
2303.69	1.30954e-06
2312.25	1.15131e-06
2320.8	9.39293e-07
2329.36	7.25295e-07
2337.92	9.6974e-07
2346.48	8.05143e-07
2355.03	9.35823e-07
2363.59	1.09038e-06
2372.15	1.03091e-06
2380.71	9.41831e-07
2389.26	6.1115e-07
2397.82	4.55713e-07
2406.38	3.71976e-07
2414.94	3.24665e-07
2423.5	2.48154e-07
2432.05	2.54744e-07
2440.61	1.68778e-07
2449.17	2.00172e-07
2457.73	3.41717e-07
2466.28	4.51313e-07
2474.84	5.49478e-07
2483.4	4.64345e-07
2491.96	4.41543e-07
2500.51	7.68708e-07
2509.07	1.0749e-06
2517.63	1.30831e-06
2526.19	9.85036e-07
2534.74	8.06875e-07
2543.3	4.60342e-07
2551.86	2.783e-07
2560.42	2.68828e-07
2568.98	2.53657e-07
2577.53	1.76727e-07
2586.09	1.26372e-07
2594.65	3.53151e-08
2603.21	1.25108e-07
2611.76	1.89621e-07
2620.32	1.95504e-07
2628.88	1.90913e-07
2637.44	3.18873e-08
2645.99	7.74249e-08
2654.55	3.97295e-07
2663.11	5.86552e-07
2671.67	8.70411e-07
2680.22	9.29963e-07
2688.78	8.64443e-07
2697.34	7.90747e-07
2705.9	8.21361e-07
2714.45	8.88728e-07
2723.01	1.19173e-06
2731.57	1.3941e-06
2740.13	1.97514e-06
2748.69	2.57174e-06
2757.24	2.89064e-06
2765.8	2.3735e-06
2774.36	2.25547e-06
2782.92	2.79642e-06
2791.47	4.32016e-06
2800.03	6.44305e-06
2808.59	9.02402e-06
2817.15	1.16649e-05
2825.7	1.31493e-05
2834.26	1.49962e-05
2842.82	1.48315e-05
2851.38	1.47317e-05
2859.93	1.53456e-05
2868.49	1.80956e-05
2877.05	3.66914e-05
2885.61	5.9915e-05
2894.16	8.82961e-05
2902.72	0.000110192
2911.28	0.000118978
2919.84	0.000128407
2928.4	0.000107387
2936.95	0.0001192
2945.51	0.000119699
2954.07	0.000118444
2962.63	0.000126187
2971.18	0.000136255
2979.74	0.000180071
2988.3	0.000191933
2996.86	0.000188787
3005.41	0.000129174
3013.97	8.407e-05
3022.53	5.30374e-05
3031.09	3.12101e-05
3039.64	2.18013e-05
3048.2	1.93127e-05
3056.76	1.74325e-05
3065.32	1.5761e-05
3073.88	1.33419e-05
3082.43	1.06792e-05
3090.99	8.05304e-06
3099.55	6.27129e-06
3108.11	4.86454e-06
3116.66	3.65056e-06
3125.22	2.77757e-06
3133.78	2.34268e-06
3142.34	2.1802e-06
3150.89	2.11796e-06
3159.45	2.39651e-06
3168.01	2.89736e-06
3176.57	2.89612e-06
3185.12	3.36755e-06
3193.68	2.20422e-06
3202.24	1.44594e-06
3210.8	7.13455e-07
3219.35	5.29245e-07
3227.91	5.61511e-07
3236.47	7.10665e-07
3245.03	6.2203e-07
3253.59	1.40798e-07
3262.14	-3.55097e-08
3270.7	-3.24626e-07
3279.26	-2.10109e-07
3287.82	-4.0802e-07
3296.37	-3.38106e-07
3304.93	-1.5292e-07
3313.49	-1.72123e-07
3322.05	-3.11099e-07
3330.6	-2.33469e-07
3339.16	-2.24278e-07
3347.72	-2.83518e-07
3356.28	-4.89564e-08
3364.83	1.72741e-07
3373.39	3.88865e-07
3381.95	1.55322e-07
3390.51	5.20094e-07
3399.06	8.91727e-08
3407.62	2.69912e-07
3416.18	5.71552e-07
3424.74	1.76174e-06
3433.3	3.56978e-06
3441.85	6.57552e-06
3450.41	9.99522e-06
3458.97	9.56631e-06
3467.53	9.98198e-06
3476.08	5.34176e-06
3484.64	1.84351e-06
3493.2	3.04007e-07
3501.76	-4.18303e-07
3510.31	-6.74492e-07
3518.87	-7.38996e-07
3527.43	-6.43654e-07
3535.99	-7.03615e-07
3544.54	-7.35743e-07
3553.1	-6.00638e-07
3561.66	-2.33789e-07
3570.22	2.0792e-07
3578.78	-3.92868e-08
3587.33	1.03144e-08
3595.89	2.88593e-07
3604.45	-3.26899e-07
3613.01	-4.49047e-08
3621.56	-2.45722e-07
3630.12	-8.7442e-08
3638.68	-2.33632e-07
3647.24	1.04935e-06
3655.79	1.05037e-07
3664.35	2.31554e-09
3672.91	-3.59299e-08
3681.47	-1.78128e-07
3690.02	-1.3243e-07
3698.58	-2.12647e-07
3707.14	-3.67568e-07
3715.7	-2.9422e-07
3724.25	-3.04859e-07
3732.81	-7.856e-08
3741.37	5.02186e-07
3749.93	6.8193e-07
3758.49	-2.28926e-07
3767.04	-1.91735e-07
3775.6	-3.68622e-07
3784.16	-3.94067e-07
3792.72	-3.66208e-07
3801.27	4.34103e-06
3809.83	-3.56987e-07
3818.39	-6.28405e-08
3826.95	5.19358e-07
3835.5	3.14687e-07
3844.06	5.26274e-07
3852.62	8.1156e-07
3861.18	7.1136e-07
3869.73	1.15123e-06
3878.29	5.21354e-07
3886.85	2.13038e-07
3895.41	2.9057e-08
3903.96	8.53492e-07
3912.52	-1.09092e-08
3921.08	-2.3262e-07
3929.64	2.16083e-07
3938.2	6.49678e-08
3946.75	2.84748e-07
3955.31	1.5271e-07
3963.87	1.69801e-07
3972.43	4.77447e-07
