Infrared Spectrum: 2-Butanone
Formula: C H3 C H2 C O C H3
CAS: 78-93-3
State: gas
Melting point: -86.35 C
Boiling point: 79.6 C
Class: IUPAC A
Instrument: IFS66V (Bruker)
Instrument parameters: KBr Beam splitter; MCT Detector; Multipass cell
Sampling: 1 L/min Flow
Resolution: 0.4820
Temperature: 23 C
Pressure: 101.3 kPa
Origin: NIST, Anayltical Chemistry Division, 301-975-3108
cm-1	(micromol/mol)-1m-1 (base 10)
574.928	2.07927e-05
583.606	2.84033e-05
592.284	2.98582e-05
600.962	2.18223e-05
609.641	4.78358e-06
618.319	1.19725e-06
626.997	7.30899e-07
635.675	5.58794e-07
644.353	2.96212e-07
653.031	1.11786e-06
661.71	4.59057e-07
670.388	4.59854e-07
679.066	3.06672e-07
687.744	1.91491e-07
696.422	2.36293e-07
705.1	6.58363e-08
713.778	3.36578e-07
722.457	1.2393e-06
731.135	3.78163e-06
739.813	9.28047e-06
748.491	1.92571e-05
757.169	1.94535e-05
765.847	1.80497e-05
774.526	7.43046e-06
783.204	2.57522e-06
791.882	1.37044e-06
800.56	1.05754e-06
809.238	6.25941e-07
817.916	4.81832e-07
826.594	3.04921e-07
835.273	5.28355e-07
843.951	4.5364e-07
852.629	3.91728e-07
861.307	6.20398e-07
869.985	8.48212e-07
878.663	1.29871e-06
887.342	2.00594e-06
896.02	3.45287e-06
904.698	6.64779e-06
913.376	1.3994e-05
922.054	2.58912e-05
930.732	4.17708e-05
939.41	5.18521e-05
948.089	5.18842e-05
956.767	3.81755e-05
965.445	2.34579e-05
974.123	1.77526e-05
982.801	1.63903e-05
991.479	1.42987e-05
1000.16	1.23854e-05
1008.84	7.76185e-06
1017.51	5.19914e-06
1026.19	3.75943e-06
1034.87	2.93373e-06
1043.55	3.17224e-06
1052.23	4.00375e-06
1060.9	6.25361e-06
1069.58	1.0473e-05
1078.26	1.58553e-05
1086.94	1.55346e-05
1095.62	1.5133e-05
1104.3	1.04274e-05
1112.97	9.19992e-06
1121.65	1.00663e-05
1130.33	1.31159e-05
1139.01	2.35631e-05
1147.69	6.8824e-05
1156.36	0.000160637
1165.04	0.000239362
1173.72	0.000266888
1182.4	0.000195303
1191.08	0.000125777
1199.76	7.191e-05
1208.43	4.91855e-05
1217.11	2.97707e-05
1225.79	1.55572e-05
1234.47	1.16658e-05
1243.15	1.20324e-05
1251.82	1.38905e-05
1260.5	1.42267e-05
1269.18	1.32119e-05
1277.86	1.05288e-05
1286.54	8.78638e-06
1295.21	1.0185e-05
1303.89	1.50559e-05
1312.57	2.247e-05
1321.25	3.23557e-05
1329.93	4.67724e-05
1338.61	6.82301e-05
1347.28	0.000110834
1355.96	0.000199499
1364.64	0.000228331
1373.32	0.000230609
1382	0.000122384
1390.67	6.29427e-05
1399.35	5.61135e-05
1408.03	5.97839e-05
1416.71	7.71762e-05
1425.39	7.61139e-05
1434.07	8.64271e-05
1442.74	7.90887e-05
1451.42	7.82902e-05
1460.1	8.94987e-05
1468.78	7.06557e-05
1477.46	6.02896e-05
1486.13	3.2409e-05
1494.81	1.99799e-05
1503.49	1.61988e-05
1512.17	1.67278e-05
1520.85	1.69777e-05
1529.52	1.40312e-05
1538.2	1.27736e-05
1546.88	1.03022e-05
1555.56	8.68066e-06
1564.24	7.45751e-06
1572.92	6.29795e-06
1581.59	5.48004e-06
1590.27	4.69802e-06
1598.95	3.94387e-06
1607.63	3.49562e-06
1616.31	5.0334e-06
1624.98	3.29766e-06
1633.66	3.41723e-06
1642.34	3.8421e-06
1651.02	4.03245e-06
1659.7	4.89783e-06
1668.38	6.82346e-06
1677.05	9.84882e-06
1685.73	1.7198e-05
1694.41	2.90495e-05
1703.09	5.72847e-05
1711.77	0.000123812
1720.44	0.000271022
1729.12	0.000488727
1737.8	0.00046068
1746.48	0.000560349
1755.16	0.000324053
1763.84	0.000138476
1772.51	5.55921e-05
1781.19	2.32066e-05
1789.87	1.10067e-05
1798.55	7.43693e-06
1807.23	4.89892e-06
1815.9	2.42651e-06
1824.58	1.63063e-06
1833.26	1.45571e-06
1841.94	1.56241e-06
1850.62	1.72601e-06
1859.29	2.13278e-06
1867.97	2.92012e-06
1876.65	2.8676e-06
1885.33	2.8479e-06
1894.01	2.64311e-06
1902.69	2.06009e-06
1911.36	1.64119e-06
1920.04	1.38894e-06
1928.72	1.32146e-06
1937.4	1.1194e-06
1946.08	1.10729e-06
1954.75	9.48291e-07
1963.43	6.66478e-07
1972.11	3.83628e-07
1980.79	5.2162e-07
1989.47	5.6877e-07
1998.15	6.92986e-07
2006.82	4.27186e-07
2015.5	2.66915e-07
2024.18	1.13813e-07
2032.86	1.4661e-07
2041.54	2.07211e-07
2050.21	1.84843e-07
2058.89	3.31003e-07
2067.57	5.03902e-07
2076.25	8.59691e-07
2084.93	1.426e-06
2093.6	2.06686e-06
2102.28	2.714e-06
2110.96	3.27512e-06
2119.64	3.27521e-06
2128.32	2.77079e-06
2137	1.82558e-06
2145.67	9.32111e-07
2154.35	6.81938e-07
2163.03	6.59422e-07
2171.71	7.14098e-07
2180.39	4.8019e-07
2189.06	2.60035e-07
2197.74	5.61176e-08
2206.42	-4.75849e-08
2215.1	9.344e-09
2223.78	-7.3415e-08
2232.46	-9.57328e-08
2241.13	-1.36364e-07
2249.81	-1.01331e-07
2258.49	2.83694e-08
2267.17	3.18883e-07
2275.85	6.8699e-07
2284.52	1.12417e-06
2293.2	1.3771e-06
2301.88	1.33246e-06
2310.56	1.17697e-06
2319.24	1.19207e-06
2327.92	8.08212e-07
2336.59	7.83514e-07
2345.27	7.70963e-07
2353.95	9.45216e-07
2362.63	1.6777e-06
2371.31	1.31306e-06
2379.98	9.45235e-07
2388.66	6.59602e-07
2397.34	4.86427e-07
2406.02	4.32839e-07
2414.7	3.19941e-07
2423.37	2.47239e-07
2432.05	2.3049e-07
2440.73	1.62677e-07
2449.41	2.16037e-07
2458.09	3.90555e-07
2466.77	5.02791e-07
2475.44	6.03704e-07
2484.12	4.63244e-07
2492.8	4.40852e-07
2501.48	7.35382e-07
2510.16	9.83456e-07
2518.83	1.24347e-06
2527.51	9.64918e-07
2536.19	6.5496e-07
2544.87	4.27284e-07
2553.55	3.03585e-07
2562.23	2.8747e-07
2570.9	2.16135e-07
2579.58	9.50652e-08
2588.26	8.6055e-09
2596.94	5.83832e-08
2605.62	1.37382e-07
2614.29	1.68095e-07
2622.97	2.16647e-07
2631.65	8.48718e-08
2640.33	7.47729e-08
2649.01	1.84011e-07
2657.68	4.1852e-07
2666.36	7.42902e-07
2675.04	9.57577e-07
2683.72	9.66494e-07
2692.4	8.87067e-07
2701.08	8.16061e-07
2709.75	8.93878e-07
2718.43	9.92915e-07
2727.11	1.1786e-06
2735.79	1.7355e-06
2744.47	2.44634e-06
2753.14	2.71273e-06
2761.82	2.7671e-06
2770.5	2.17255e-06
2779.18	2.49355e-06
2787.86	3.55447e-06
2796.54	5.64088e-06
2805.21	7.68024e-06
2813.89	1.08496e-05
2822.57	1.24973e-05
2831.25	1.42395e-05
2839.93	1.52023e-05
2848.6	1.48319e-05
2857.28	1.50545e-05
2865.96	1.65682e-05
2874.64	2.87764e-05
2883.32	5.75463e-05
2892	8.49891e-05
2900.67	0.000108771
2909.35	0.000115773
2918.03	0.000139682
2926.71	0.000111098
2935.39	0.000113161
2944.06	0.000125773
2952.74	0.000117367
2961.42	0.000130108
2970.1	0.000134963
2978.78	0.000175656
2987.45	0.000193219
2996.13	0.000191476
3004.81	0.000133406
3013.49	8.48144e-05
3022.17	5.39027e-05
3030.85	3.16875e-05
3039.52	2.18753e-05
3048.2	1.9321e-05
3056.88	1.75367e-05
3065.56	1.5746e-05
3074.24	1.32463e-05
3082.91	1.0465e-05
3091.59	7.87878e-06
3100.27	6.07754e-06
3108.95	4.77095e-06
3117.63	3.67444e-06
3126.31	2.75143e-06
3134.98	2.35641e-06
3143.66	2.23761e-06
3152.34	2.33158e-06
3161.02	2.53217e-06
3169.7	3.09432e-06
3178.37	2.85837e-06
3187.05	2.90222e-06
3195.73	1.97177e-06
3204.41	1.21107e-06
3213.09	7.00342e-07
3221.77	5.00556e-07
3230.44	6.76068e-07
3239.12	5.87484e-07
3247.8	5.37804e-07
3256.48	1.78655e-07
3265.16	-1.42134e-07
3273.83	-1.93022e-07
3282.51	-3.24287e-07
3291.19	-3.33294e-07
3299.87	-2.50851e-07
3308.55	-1.89268e-07
3317.22	-2.04046e-07
3325.9	-1.96184e-07
3334.58	-1.53173e-07
3343.26	-2.7084e-07
3351.94	-1.67706e-07
3360.62	1.28592e-07
3369.29	2.06011e-07
3377.97	3.73682e-07
3386.65	4.57219e-07
3395.33	2.98312e-07
3404.01	2.34597e-07
3412.68	3.83035e-07
3421.36	1.13336e-06
3430.04	2.79236e-06
3438.72	5.25887e-06
3447.4	8.94074e-06
3456.08	1.02239e-05
3464.75	1.00099e-05
3473.43	7.21939e-06
3482.11	2.80318e-06
3490.79	5.01744e-07
3499.47	-4.47953e-07
3508.14	-7.52327e-07
3516.82	-8.78894e-07
3525.5	-7.95863e-07
3534.18	-8.09458e-07
3542.86	-8.5842e-07
3551.53	-4.95245e-07
3560.21	-2.34555e-07
3568.89	2.32705e-07
3577.57	9.43076e-08
3586.25	6.57409e-07
3594.93	2.62529e-07
3603.6	-1.73923e-07
3612.28	2.68313e-07
3620.96	-2.83925e-07
3629.64	2.63977e-06
3638.32	-1.55048e-07
3646.99	6.19659e-07
3655.67	1.9501e-07
3664.35	-6.8342e-08
3673.03	-3.52724e-08
3681.71	-2.09091e-07
3690.39	5.11492e-09
3699.06	-2.37926e-07
3707.74	-2.09293e-07
3716.42	-3.04245e-07
3725.1	1.13526e-07
3733.78	-1.31665e-07
3742.45	-9.62603e-08
3751.13	8.33275e-08
3759.81	7.99951e-07
3768.49	-2.73335e-07
3777.17	-3.54379e-07
3785.85	-3.38501e-07
3794.52	-2.85554e-07
3803.2	7.03556e-08
3811.88	-2.28305e-07
3820.56	1.33765e-06
3829.24	-4.98359e-08
3837.91	5.11294e-06
3846.59	2.28585e-07
3855.27	5.95002e-07
3863.95	6.60201e-07
3872.63	5.71493e-07
3881.3	6.32213e-07
3889.98	1.96267e-07
3898.66	2.02159e-07
3907.34	-3.53597e-08
3916.02	9.81547e-08
3924.7	1.17895e-07
3933.37	8.27836e-08
3942.05	1.82388e-07
3950.73	7.88847e-08
3959.41	2.17807e-07
3968.09	3.83971e-07
