Infrared Spectrum: 2-Butanone
Formula: C H3 C H2 C O C H3
CAS: 78-93-3
State: gas
Melting point: -86.35 C
Boiling point: 79.6 C
Class: IUPAC A
Instrument: IFS66V (Bruker)
Instrument parameters: KBr Beam splitter; MCT Detector; Multipass cell
Sampling: 1 L/min Flow
Resolution: 0.4820
Temperature: 23 C
Pressure: 101.3 kPa
Origin: NIST, Anayltical Chemistry Division, 301-975-3108
cm-1	(micromol/mol)-1m-1 (base 10)
574.928	2.0818e-05
583.606	2.82625e-05
592.284	2.96393e-05
600.962	2.18275e-05
609.641	4.8817e-06
618.319	1.26785e-06
626.997	7.63307e-07
635.675	5.64602e-07
644.353	3.21384e-07
653.031	1.14239e-06
661.71	4.86555e-07
670.388	4.39106e-07
679.066	2.89651e-07
687.744	2.07535e-07
696.422	2.31051e-07
705.1	8.15049e-08
713.778	3.63515e-07
722.457	1.27314e-06
731.135	3.81431e-06
739.813	9.31173e-06
748.491	1.92162e-05
757.169	1.94506e-05
765.847	1.79831e-05
774.526	7.48064e-06
783.204	2.61357e-06
791.882	1.38745e-06
800.56	1.08612e-06
809.238	6.76733e-07
817.916	4.93319e-07
826.594	3.3894e-07
835.273	5.49957e-07
843.951	4.68908e-07
852.629	3.88959e-07
861.307	6.39525e-07
869.985	8.77957e-07
878.663	1.32596e-06
887.342	2.04396e-06
896.02	3.49274e-06
904.698	6.68306e-06
913.376	1.40356e-05
922.054	2.58943e-05
930.732	4.16697e-05
939.41	5.16951e-05
948.089	5.17035e-05
956.767	3.81368e-05
965.445	2.34977e-05
974.123	1.78043e-05
982.801	1.64044e-05
991.479	1.43443e-05
1000.16	1.24046e-05
1008.84	7.79543e-06
1017.51	5.23715e-06
1026.19	3.7957e-06
1034.87	2.97686e-06
1043.55	3.22457e-06
1052.23	4.03918e-06
1060.9	6.29812e-06
1069.58	1.05106e-05
1078.26	1.58577e-05
1086.94	1.55416e-05
1095.62	1.515e-05
1104.3	1.05385e-05
1112.97	9.29942e-06
1121.65	1.02014e-05
1130.33	1.33277e-05
1139.01	2.38988e-05
1147.69	6.91303e-05
1156.36	0.000160281
1165.04	0.000238453
1173.72	0.000265712
1182.4	0.000195107
1191.08	0.000125767
1199.76	7.21061e-05
1208.43	4.9307e-05
1217.11	2.99237e-05
1225.79	1.57401e-05
1234.47	1.18144e-05
1243.15	1.21271e-05
1251.82	1.39343e-05
1260.5	1.42839e-05
1269.18	1.32676e-05
1277.86	1.0593e-05
1286.54	8.89421e-06
1295.21	1.03034e-05
1303.89	1.51687e-05
1312.57	2.25969e-05
1321.25	3.24871e-05
1329.93	4.69052e-05
1338.61	6.84272e-05
1347.28	0.000110984
1355.96	0.000198788
1364.64	0.000227837
1373.32	0.000229512
1382	0.000122623
1390.67	6.32938e-05
1399.35	5.63609e-05
1408.03	5.99436e-05
1416.71	7.71029e-05
1425.39	7.62312e-05
1434.07	8.63194e-05
1442.74	7.9082e-05
1451.42	7.84195e-05
1460.1	8.93369e-05
1468.78	7.06147e-05
1477.46	6.01864e-05
1486.13	3.25683e-05
1494.81	2.01307e-05
1503.49	1.63123e-05
1512.17	1.68527e-05
1520.85	1.65726e-05
1529.52	1.40828e-05
1538.2	1.29518e-05
1546.88	1.03662e-05
1555.56	8.79978e-06
1564.24	7.51907e-06
1572.92	6.36076e-06
1581.59	5.51601e-06
1590.27	4.74101e-06
1598.95	3.99721e-06
1607.63	3.53737e-06
1616.31	4.53837e-06
1624.98	3.37375e-06
1633.66	3.51473e-06
1642.34	3.94996e-06
1651.02	4.21729e-06
1659.7	5.04092e-06
1668.38	7.02843e-06
1677.05	1.00632e-05
1685.73	1.7549e-05
1694.41	2.94617e-05
1703.09	5.78068e-05
1711.77	0.000124369
1720.44	0.000271028
1729.12	0.000486709
1737.8	0.000460895
1746.48	0.000557271
1755.16	0.000323758
1763.84	0.000139079
1772.51	5.60971e-05
1781.19	2.35958e-05
1789.87	1.12963e-05
1798.55	7.63381e-06
1807.23	5.02554e-06
1815.9	2.54767e-06
1824.58	1.73043e-06
1833.26	1.53992e-06
1841.94	1.63379e-06
1850.62	1.77987e-06
1859.29	2.1746e-06
1867.97	2.98553e-06
1876.65	2.89172e-06
1885.33	2.88202e-06
1894.01	2.66623e-06
1902.69	2.08315e-06
1911.36	1.65765e-06
1920.04	1.40955e-06
1928.72	1.34332e-06
1937.4	1.13545e-06
1946.08	1.11887e-06
1954.75	9.63503e-07
1963.43	6.9256e-07
1972.11	3.99214e-07
1980.79	5.34573e-07
1989.47	5.79864e-07
1998.15	6.95659e-07
2006.82	4.32277e-07
2015.5	2.7653e-07
2024.18	1.23713e-07
2032.86	1.52756e-07
2041.54	2.1506e-07
2050.21	1.9875e-07
2058.89	3.45853e-07
2067.57	5.13063e-07
2076.25	8.65938e-07
2084.93	1.44047e-06
2093.6	2.06413e-06
2102.28	2.70923e-06
2110.96	3.27611e-06
2119.64	3.2711e-06
2128.32	2.76e-06
2137	1.82743e-06
2145.67	9.36089e-07
2154.35	6.99706e-07
2163.03	6.64058e-07
2171.71	7.12705e-07
2180.39	4.82261e-07
2189.06	2.65314e-07
2197.74	6.67386e-08
2206.42	-4.50056e-08
2215.1	1.02371e-08
2223.78	-6.94224e-08
2232.46	-8.1202e-08
2241.13	-1.34498e-07
2249.81	-9.94726e-08
2258.49	4.90683e-08
2267.17	3.32191e-07
2275.85	6.83723e-07
2284.52	1.11834e-06
2293.2	1.3808e-06
2301.88	1.32628e-06
2310.56	1.17843e-06
2319.24	1.21884e-06
2327.92	8.23233e-07
2336.59	8.08985e-07
2345.27	7.92378e-07
2353.95	9.0927e-07
2362.63	1.70128e-06
2371.31	1.35776e-06
2379.98	9.52348e-07
2388.66	6.64123e-07
2397.34	5.04166e-07
2406.02	4.42593e-07
2414.7	3.25266e-07
2423.37	2.45549e-07
2432.05	2.46458e-07
2440.73	1.6544e-07
2449.41	2.2156e-07
2458.09	4.02459e-07
2466.77	5.09643e-07
2475.44	6.09644e-07
2484.12	4.74748e-07
2492.8	4.50626e-07
2501.48	7.23138e-07
2510.16	9.77832e-07
2518.83	1.24078e-06
2527.51	9.68483e-07
2536.19	6.51441e-07
2544.87	4.40624e-07
2553.55	3.11611e-07
2562.23	2.98282e-07
2570.9	2.23881e-07
2579.58	1.0107e-07
2588.26	1.34485e-08
2596.94	6.46195e-08
2605.62	1.459e-07
2614.29	1.72168e-07
2622.97	2.25421e-07
2631.65	9.2053e-08
2640.33	8.06927e-08
2649.01	1.84647e-07
2657.68	4.27879e-07
2666.36	7.46824e-07
2675.04	9.7421e-07
2683.72	9.86809e-07
2692.4	8.83097e-07
2701.08	8.28518e-07
2709.75	9.24652e-07
2718.43	9.98334e-07
2727.11	1.20342e-06
2735.79	1.75418e-06
2744.47	2.44836e-06
2753.14	2.72698e-06
2761.82	2.78194e-06
2770.5	2.19992e-06
2779.18	2.5177e-06
2787.86	3.57319e-06
2796.54	5.65375e-06
2805.21	7.7235e-06
2813.89	1.08492e-05
2822.57	1.25257e-05
2831.25	1.42553e-05
2839.93	1.52218e-05
2848.6	1.48775e-05
2857.28	1.51352e-05
2865.96	1.67105e-05
2874.64	2.89456e-05
2883.32	5.74926e-05
2892	8.47227e-05
2900.67	0.000108511
2909.35	0.000115702
2918.03	0.000139121
2926.71	0.000111107
2935.39	0.000113224
2944.06	0.000125667
2952.74	0.000117672
2961.42	0.000129943
2970.1	0.000135016
2978.78	0.000175338
2987.45	0.000193235
2996.13	0.00019124
3004.81	0.000133291
3013.49	8.47373e-05
3022.17	5.39862e-05
3030.85	3.18786e-05
3039.52	2.20207e-05
3048.2	1.94063e-05
3056.88	1.75627e-05
3065.56	1.58064e-05
3074.24	1.32878e-05
3082.91	1.05031e-05
3091.59	7.93419e-06
3100.27	6.09427e-06
3108.95	4.77179e-06
3117.63	3.70298e-06
3126.31	2.77941e-06
3134.98	2.40062e-06
3143.66	2.25158e-06
3152.34	2.36093e-06
3161.02	2.54431e-06
3169.7	3.10897e-06
3178.37	2.87732e-06
3187.05	2.89256e-06
3195.73	1.99812e-06
3204.41	1.2468e-06
3213.09	7.18211e-07
3221.77	5.03878e-07
3230.44	7.03536e-07
3239.12	5.99436e-07
3247.8	5.50631e-07
3256.48	1.69713e-07
3265.16	-1.16132e-07
3273.83	-1.88422e-07
3282.51	-3.34115e-07
3291.19	-2.95134e-07
3299.87	-2.61727e-07
3308.55	-1.98379e-07
3317.22	-1.93728e-07
3325.9	-1.9876e-07
3334.58	-1.34602e-07
3343.26	-2.70522e-07
3351.94	-1.69018e-07
3360.62	1.21652e-07
3369.29	2.38481e-07
3377.97	3.69584e-07
3386.65	4.49219e-07
3395.33	3.38136e-07
3404.01	2.61385e-07
3412.68	4.08802e-07
3421.36	1.14075e-06
3430.04	2.82746e-06
3438.72	5.26817e-06
3447.4	8.89361e-06
3456.08	1.02196e-05
3464.75	9.96448e-06
3473.43	7.20453e-06
3482.11	2.85134e-06
3490.79	5.26408e-07
3499.47	-4.22063e-07
3508.14	-7.49469e-07
3516.82	-8.74007e-07
3525.5	-7.92369e-07
3534.18	-8.08988e-07
3542.86	-8.37641e-07
3551.53	-4.70749e-07
3560.21	-2.4127e-07
3568.89	2.36009e-07
3577.57	8.11638e-08
3586.25	5.75553e-07
3594.93	2.16229e-07
3603.6	-1.63701e-07
3612.28	1.4451e-07
3620.96	-2.72256e-07
3629.64	2.89843e-06
3638.32	-1.55381e-07
3646.99	6.05367e-07
3655.67	2.05851e-07
3664.35	-4.59997e-08
3673.03	2.80593e-08
3681.71	-2.07732e-07
3690.39	4.42535e-08
3699.06	-2.39117e-07
3707.74	-2.05934e-07
3716.42	-2.88639e-07
3725.1	1.41583e-07
3733.78	-1.20163e-07
3742.45	-3.4392e-08
3751.13	1.68101e-07
3759.81	8.95659e-07
3768.49	-2.61295e-07
3777.17	-3.44511e-07
3785.85	-3.32845e-07
3794.52	-2.61455e-07
3803.2	5.91908e-08
3811.88	-2.09822e-07
3820.56	1.32201e-06
3829.24	-5.0307e-08
3837.91	5.52467e-06
3846.59	2.26444e-07
3855.27	7.46334e-07
3863.95	6.52404e-07
3872.63	6.13603e-07
3881.3	6.11379e-07
3889.98	2.16672e-07
3898.66	2.01606e-07
3907.34	-3.09378e-08
3916.02	7.84245e-08
3924.7	5.64205e-08
3933.37	1.17333e-07
3942.05	1.92777e-07
3950.73	1.12743e-07
3959.41	2.17833e-07
3968.09	3.95844e-07
