Infrared Spectrum: 2-Butanone
Formula: C H3 C H2 C O C H3
CAS: 78-93-3
State: gas
Melting point: -86.35 C
Boiling point: 79.6 C
Class: IUPAC A
Instrument: IFS66V (Bruker)
Instrument parameters: KBr Beam splitter; MCT Detector; Multipass cell
Sampling: 1 L/min Flow
Resolution: 0.2410
Temperature: 23 C
Pressure: 101.3 kPa
Origin: NIST, Anayltical Chemistry Division, 301-975-3108
cm-1	(micromol/mol)-1m-1 (base 10)
575.048	2.06849e-05
583.606	2.80716e-05
592.163	2.99897e-05
600.721	2.21217e-05
609.279	5.66506e-06
617.836	1.35115e-06
626.394	4.89598e-07
634.951	4.25971e-07
643.509	6.68723e-07
652.067	1.43802e-06
660.624	6.45371e-07
669.182	4.63658e-07
677.74	2.63759e-07
686.297	1.24529e-07
694.855	6.88258e-08
703.412	-4.32076e-08
711.97	5.05724e-07
720.528	7.12252e-07
729.085	3.01476e-06
737.643	7.68116e-06
746.201	1.56546e-05
754.758	2.11148e-05
763.316	1.92898e-05
771.873	1.0727e-05
780.431	3.32058e-06
788.989	1.63662e-06
797.546	1.09318e-06
806.104	7.19843e-07
814.662	3.9637e-07
823.219	2.5161e-07
831.777	5.66819e-07
840.334	2.89154e-07
848.892	3.59733e-07
857.45	5.67201e-07
866.007	7.37729e-07
874.565	1.16224e-06
883.123	1.75699e-06
891.68	2.6456e-06
900.238	4.70007e-06
908.795	9.56545e-06
917.353	1.85663e-05
925.911	3.21587e-05
934.468	4.87376e-05
943.026	5.28134e-05
951.584	4.85425e-05
960.141	3.15054e-05
968.699	2.05106e-05
977.256	1.71496e-05
985.814	1.54753e-05
994.372	1.35777e-05
1002.93	1.13771e-05
1011.49	6.77314e-06
1020.04	4.77431e-06
1028.6	3.33928e-06
1037.16	2.87186e-06
1045.72	3.35233e-06
1054.28	4.48686e-06
1062.83	7.0235e-06
1071.39	1.15346e-05
1079.95	1.64532e-05
1088.51	1.49675e-05
1097.06	1.42043e-05
1105.62	1.0081e-05
1114.18	9.13054e-06
1122.74	1.02968e-05
1131.29	1.37054e-05
1139.85	2.56046e-05
1148.41	7.57945e-05
1156.97	0.000165554
1165.52	0.000244514
1174.08	0.000267512
1182.64	0.000193315
1191.2	0.000124789
1199.75	7.1895e-05
1208.31	4.93703e-05
1216.87	3.03728e-05
1225.43	1.58396e-05
1233.99	1.17503e-05
1242.54	1.18378e-05
1251.1	1.37978e-05
1259.66	1.43479e-05
1268.22	1.3502e-05
1276.77	1.08507e-05
1285.33	8.84836e-06
1293.89	9.65924e-06
1302.45	1.40511e-05
1311	2.08946e-05
1319.56	3.00485e-05
1328.12	4.33102e-05
1336.68	6.29211e-05
1345.23	9.47673e-05
1353.79	0.000179385
1362.35	0.000215767
1370.91	0.000218548
1379.46	0.000166935
1388.02	6.55945e-05
1396.58	5.81913e-05
1405.14	5.60655e-05
1413.7	7.23713e-05
1422.25	7.44669e-05
1430.81	8.96601e-05
1439.37	7.9557e-05
1447.93	7.98399e-05
1456.48	0.000112631
1465.04	6.79315e-05
1473.6	7.16356e-05
1482.16	4.38583e-05
1490.71	2.56848e-05
1499.27	1.7653e-05
1507.83	1.63166e-05
1516.39	1.60963e-05
1524.94	1.51816e-05
1533.5	1.39041e-05
1542.06	1.59928e-05
1550.62	9.65326e-06
1559.18	8.74455e-06
1567.73	6.93694e-06
1576.29	1.29065e-05
1584.85	5.26675e-06
1593.41	4.35277e-06
1601.96	3.70579e-06
1610.52	3.30952e-06
1619.08	3.17933e-06
1627.64	4.08371e-06
1636.19	3.88007e-06
1644.75	4.06675e-06
1653.31	1.32432e-05
1661.87	5.50639e-06
1670.42	7.23224e-06
1678.98	1.1034e-05
1687.54	1.9024e-05
1696.1	3.78359e-05
1704.65	6.64358e-05
1713.21	0.000141327
1721.77	0.000302736
1730.33	0.000512704
1738.89	0.000451736
1747.44	0.000543768
1756	0.000300707
1764.56	0.00012789
1773.12	5.04071e-05
1781.67	2.21482e-05
1790.23	1.09367e-05
1798.79	7.35493e-06
1807.35	4.84114e-06
1815.9	2.42251e-06
1824.46	1.59103e-06
1833.02	1.40103e-06
1841.58	1.48676e-06
1850.13	1.68569e-06
1858.69	2.13918e-06
1867.25	2.49583e-06
1875.81	2.84138e-06
1884.36	2.92903e-06
1892.92	2.74919e-06
1901.48	2.11422e-06
1910.04	1.93351e-06
1918.6	1.48585e-06
1927.15	1.32952e-06
1935.71	1.13329e-06
1944.27	1.14453e-06
1952.83	8.59928e-07
1961.38	7.18612e-07
1969.94	4.87845e-07
1978.5	4.74176e-07
1987.06	5.73703e-07
1995.61	6.6428e-07
2004.17	5.98708e-07
2012.73	3.14458e-07
2021.29	1.98476e-07
2029.84	1.17712e-07
2038.4	1.44387e-07
2046.96	1.66916e-07
2055.52	2.42266e-07
2064.08	4.90343e-07
2072.63	7.19079e-07
2081.19	1.104e-06
2089.75	1.77799e-06
2098.31	2.38133e-06
2106.86	3.03589e-06
2115.42	3.43644e-06
2123.98	3.0465e-06
2132.54	2.4489e-06
2141.09	1.30482e-06
2149.65	8.06788e-07
2158.21	6.45006e-07
2166.77	7.68737e-07
2175.32	6.32107e-07
2183.88	4.27263e-07
2192.44	1.35379e-07
2201	2.44295e-08
2209.55	-1.93046e-08
2218.11	-4.38642e-08
2226.67	-3.97943e-08
2235.23	-1.4081e-07
2243.79	-1.78836e-07
2252.34	-8.02116e-08
2260.9	7.73267e-08
2269.46	3.63883e-07
2278.02	7.96383e-07
2286.57	1.22746e-06
2295.13	1.46698e-06
2303.69	1.30133e-06
2312.25	1.15824e-06
2320.8	9.52345e-07
2329.36	7.38475e-07
2337.92	1.03186e-06
2346.48	8.07275e-07
2355.03	9.33372e-07
2363.59	1.09129e-06
2372.15	1.02875e-06
2380.71	9.22503e-07
2389.26	6.13962e-07
2397.82	4.58177e-07
2406.38	3.73391e-07
2414.94	3.28708e-07
2423.5	2.48193e-07
2432.05	2.5265e-07
2440.61	1.6459e-07
2449.17	1.98349e-07
2457.73	3.59283e-07
2466.28	4.61554e-07
2474.84	5.47979e-07
2483.4	4.5257e-07
2491.96	4.42978e-07
2500.51	7.64721e-07
2509.07	1.0658e-06
2517.63	1.30071e-06
2526.19	9.94663e-07
2534.74	8.02077e-07
2543.3	4.65244e-07
2551.86	2.8169e-07
2560.42	2.71663e-07
2568.98	2.61661e-07
2577.53	1.64357e-07
2586.09	1.20384e-07
2594.65	2.81502e-08
2603.21	1.31592e-07
2611.76	1.90169e-07
2620.32	2.02381e-07
2628.88	1.79666e-07
2637.44	3.72787e-08
2645.99	9.2576e-08
2654.55	3.92063e-07
2663.11	6.07448e-07
2671.67	8.63574e-07
2680.22	9.30115e-07
2688.78	8.74061e-07
2697.34	7.95491e-07
2705.9	8.23834e-07
2714.45	8.96321e-07
2723.01	1.15805e-06
2731.57	1.3953e-06
2740.13	1.99634e-06
2748.69	2.56424e-06
2757.24	2.87222e-06
2765.8	2.37623e-06
2774.36	2.25037e-06
2782.92	2.80862e-06
2791.47	4.32448e-06
2800.03	6.43882e-06
2808.59	9.00727e-06
2817.15	1.16697e-05
2825.7	1.31392e-05
2834.26	1.50041e-05
2842.82	1.48471e-05
2851.38	1.47339e-05
2859.93	1.53458e-05
2868.49	1.80981e-05
2877.05	3.6705e-05
2885.61	5.98783e-05
2894.16	8.82604e-05
2902.72	0.000110195
2911.28	0.000118927
2919.84	0.000128423
2928.4	0.000107423
2936.95	0.00011923
2945.51	0.000119712
2954.07	0.000118478
2962.63	0.000126215
2971.18	0.000136275
2979.74	0.000180077
2988.3	0.00019205
2996.86	0.000188753
3005.41	0.00012916
3013.97	8.40353e-05
3022.53	5.30302e-05
3031.09	3.1198e-05
3039.64	2.17989e-05
3048.2	1.93227e-05
3056.76	1.7449e-05
3065.32	1.57658e-05
3073.88	1.33491e-05
3082.43	1.06511e-05
3090.99	8.03404e-06
3099.55	6.27531e-06
3108.11	4.87055e-06
3116.66	3.66521e-06
3125.22	2.76949e-06
3133.78	2.35141e-06
3142.34	2.18709e-06
3150.89	2.13371e-06
3159.45	2.41985e-06
3168.01	2.89375e-06
3176.57	2.89809e-06
3185.12	3.36458e-06
3193.68	2.19124e-06
3202.24	1.44901e-06
3210.8	7.40068e-07
3219.35	5.11422e-07
3227.91	5.67247e-07
3236.47	6.98893e-07
3245.03	6.07008e-07
3253.59	1.57677e-07
3262.14	-2.99655e-08
3270.7	-3.10208e-07
3279.26	-2.38698e-07
3287.82	-3.8929e-07
3296.37	-3.39731e-07
3304.93	-1.70134e-07
3313.49	-2.08993e-07
3322.05	-2.84085e-07
3330.6	-2.41745e-07
3339.16	-2.2568e-07
3347.72	-2.77272e-07
3356.28	-6.7839e-08
3364.83	1.71939e-07
3373.39	4.1324e-07
3381.95	1.68073e-07
3390.51	4.99317e-07
3399.06	8.34266e-08
3407.62	2.47212e-07
3416.18	5.90481e-07
3424.74	1.73645e-06
3433.3	3.55505e-06
3441.85	6.60076e-06
3450.41	9.96275e-06
3458.97	9.61667e-06
3467.53	9.95789e-06
3476.08	5.38174e-06
3484.64	1.85577e-06
3493.2	3.03149e-07
3501.76	-4.4932e-07
3510.31	-6.51029e-07
3518.87	-7.3215e-07
3527.43	-6.67387e-07
3535.99	-6.91003e-07
3544.54	-7.181e-07
3553.1	-6.09738e-07
3561.66	-2.20167e-07
3570.22	1.84304e-07
3578.78	-5.89943e-08
3587.33	5.26343e-08
3595.89	2.71034e-07
3604.45	-3.17543e-07
3613.01	-6.32552e-08
3621.56	-2.6637e-07
3630.12	-7.07666e-08
3638.68	-2.34434e-07
3647.24	1.02982e-06
3655.79	1.32288e-07
3664.35	-1.88553e-08
3672.91	-3.44256e-08
3681.47	-1.9251e-07
3690.02	-1.02708e-07
3698.58	-2.33224e-07
3707.14	-3.4196e-07
3715.7	-3.01735e-07
3724.25	-2.9089e-07
3732.81	-7.1979e-08
3741.37	4.61586e-07
3749.93	7.53342e-07
3758.49	-2.06846e-07
3767.04	-2.10139e-07
3775.6	-3.87674e-07
3784.16	-3.74055e-07
3792.72	-3.54789e-07
3801.27	4.42621e-06
3809.83	-3.3392e-07
3818.39	-8.04926e-08
3826.95	5.46876e-07
3835.5	3.10217e-07
3844.06	5.65095e-07
3852.62	8.36319e-07
3861.18	6.95842e-07
3869.73	1.20292e-06
3878.29	5.21136e-07
3886.85	2.22673e-07
3895.41	5.52782e-08
3903.96	9.85683e-07
3912.52	-1.44862e-08
3921.08	-2.19466e-07
3929.64	2.03697e-07
3938.2	6.6895e-08
3946.75	2.9238e-07
3955.31	1.56258e-07
3963.87	1.78372e-07
3972.43	4.74694e-07
