Infrared Spectrum: 2-Butanone
Formula: C H3 C H2 C O C H3
CAS: 78-93-3
State: gas
Melting point: -86.35 C
Boiling point: 79.6 C
Class: IUPAC A
Instrument: IFS66V (Bruker)
Instrument parameters: KBr Beam splitter; MCT Detector; Multipass cell
Sampling: 1 L/min Flow
Resolution: 0.2410
Temperature: 23 C
Pressure: 101.3 kPa
Origin: NIST, Anayltical Chemistry Division, 301-975-3108
cm-1	(micromol/mol)-1m-1 (base 10)
575.048	2.08551e-05
583.606	2.80507e-05
592.163	3.00302e-05
600.721	2.20868e-05
609.279	5.70525e-06
617.836	1.37967e-06
626.394	5.07849e-07
634.951	4.42467e-07
643.509	7.14697e-07
652.067	1.43213e-06
660.624	6.49799e-07
669.182	4.43097e-07
677.74	2.62813e-07
686.297	1.62337e-07
694.855	7.18662e-08
703.412	-4.17051e-08
711.97	5.5303e-07
720.528	7.58658e-07
729.085	2.9695e-06
737.643	7.69853e-06
746.201	1.56175e-05
754.758	2.11109e-05
763.316	1.92193e-05
771.873	1.07497e-05
780.431	3.38107e-06
788.989	1.62087e-06
797.546	1.10419e-06
806.104	6.6868e-07
814.662	4.42853e-07
823.219	2.31551e-07
831.777	5.83349e-07
840.334	2.88067e-07
848.892	3.78363e-07
857.45	5.81954e-07
866.007	7.60418e-07
874.565	1.19388e-06
883.123	1.77574e-06
891.68	2.66165e-06
900.238	4.72689e-06
908.795	9.57328e-06
917.353	1.85748e-05
925.911	3.21383e-05
934.468	4.8637e-05
943.026	5.27611e-05
951.584	4.84757e-05
960.141	3.15039e-05
968.699	2.05622e-05
977.256	1.71815e-05
985.814	1.54902e-05
994.372	1.35876e-05
1002.93	1.13779e-05
1011.49	6.7842e-06
1020.04	4.80285e-06
1028.6	3.38123e-06
1037.16	2.8711e-06
1045.72	3.37693e-06
1054.28	4.50113e-06
1062.83	7.04242e-06
1071.39	1.15464e-05
1079.95	1.64526e-05
1088.51	1.49787e-05
1097.06	1.42257e-05
1105.62	1.01314e-05
1114.18	9.20575e-06
1122.74	1.03578e-05
1131.29	1.3819e-05
1139.85	2.5785e-05
1148.41	7.59504e-05
1156.97	0.000165316
1165.52	0.000244045
1174.08	0.000266944
1182.64	0.000193182
1191.2	0.000124791
1199.75	7.19959e-05
1208.31	4.94166e-05
1216.87	3.0439e-05
1225.43	1.59277e-05
1233.99	1.18287e-05
1242.54	1.18841e-05
1251.1	1.38348e-05
1259.66	1.43611e-05
1268.22	1.35058e-05
1276.77	1.08991e-05
1285.33	8.89095e-06
1293.89	9.72975e-06
1302.45	1.41168e-05
1311	2.0958e-05
1319.56	3.01062e-05
1328.12	4.33685e-05
1336.68	6.30311e-05
1345.23	9.49063e-05
1353.79	0.000179103
1362.35	0.000215627
1370.91	0.000218468
1379.46	0.000166729
1388.02	6.58933e-05
1396.58	5.83069e-05
1405.14	5.60886e-05
1413.7	7.235e-05
1422.25	7.44914e-05
1430.81	8.95393e-05
1439.37	7.95684e-05
1447.93	7.98874e-05
1456.48	0.000112296
1465.04	6.79494e-05
1473.6	7.15092e-05
1482.16	4.38987e-05
1490.71	2.5714e-05
1499.27	1.77327e-05
1507.83	1.64408e-05
1516.39	1.61359e-05
1524.94	1.52276e-05
1533.5	1.39366e-05
1542.06	1.58872e-05
1550.62	9.7086e-06
1559.18	8.92771e-06
1567.73	6.97673e-06
1576.29	1.25757e-05
1584.85	5.30178e-06
1593.41	4.37665e-06
1601.96	3.75981e-06
1610.52	3.32072e-06
1619.08	3.22716e-06
1627.64	4.00409e-06
1636.19	4.00101e-06
1644.75	4.13424e-06
1653.31	1.34534e-05
1661.87	5.58845e-06
1670.42	7.33529e-06
1678.98	1.11475e-05
1687.54	1.91649e-05
1696.1	3.72729e-05
1704.65	6.6551e-05
1713.21	0.000141599
1721.77	0.000302622
1730.33	0.000511412
1738.89	0.000452145
1747.44	0.000542396
1756	0.000300689
1764.56	0.000128232
1773.12	5.07458e-05
1781.67	2.23677e-05
1790.23	1.10619e-05
1798.79	7.45636e-06
1807.35	4.92038e-06
1815.9	2.47306e-06
1824.46	1.65074e-06
1833.02	1.42934e-06
1841.58	1.52214e-06
1850.13	1.72016e-06
1858.69	2.15539e-06
1867.25	2.52757e-06
1875.81	2.86114e-06
1884.36	2.9427e-06
1892.92	2.74653e-06
1901.48	2.1239e-06
1910.04	1.9471e-06
1918.6	1.51135e-06
1927.15	1.32464e-06
1935.71	1.13565e-06
1944.27	1.1605e-06
1952.83	8.71879e-07
1961.38	7.17755e-07
1969.94	5.03409e-07
1978.5	4.84812e-07
1987.06	5.80355e-07
1995.61	6.57988e-07
2004.17	6.07359e-07
2012.73	3.23375e-07
2021.29	2.02126e-07
2029.84	1.11591e-07
2038.4	1.51348e-07
2046.96	1.72358e-07
2055.52	2.38737e-07
2064.08	5.09839e-07
2072.63	7.26803e-07
2081.19	1.11893e-06
2089.75	1.76812e-06
2098.31	2.38221e-06
2106.86	3.0319e-06
2115.42	3.42298e-06
2123.98	3.04776e-06
2132.54	2.45067e-06
2141.09	1.31123e-06
2149.65	8.11245e-07
2158.21	6.44144e-07
2166.77	7.74229e-07
2175.32	6.27393e-07
2183.88	4.31368e-07
2192.44	1.41049e-07
2201	2.73481e-08
2209.55	-2.01386e-08
2218.11	-4.27865e-08
2226.67	-2.83167e-08
2235.23	-1.37549e-07
2243.79	-1.83428e-07
2252.34	-6.39646e-08
2260.9	7.81016e-08
2269.46	3.59596e-07
2278.02	7.96665e-07
2286.57	1.23293e-06
2295.13	1.46946e-06
2303.69	1.31142e-06
2312.25	1.15613e-06
2320.8	9.58867e-07
2329.36	7.51599e-07
2337.92	9.66916e-07
2346.48	8.18968e-07
2355.03	9.63941e-07
2363.59	1.12732e-06
2372.15	1.05963e-06
2380.71	9.41862e-07
2389.26	6.13961e-07
2397.82	4.61007e-07
2406.38	3.76599e-07
2414.94	3.23087e-07
2423.5	2.55977e-07
2432.05	2.50771e-07
2440.61	1.74344e-07
2449.17	2.02106e-07
2457.73	3.43809e-07
2466.28	4.54422e-07
2474.84	5.55253e-07
2483.4	4.69154e-07
2491.96	4.4724e-07
2500.51	7.64945e-07
2509.07	1.07389e-06
2517.63	1.30117e-06
2526.19	9.90533e-07
2534.74	8.05928e-07
2543.3	4.62905e-07
2551.86	2.859e-07
2560.42	2.75102e-07
2568.98	2.50696e-07
2577.53	1.74504e-07
2586.09	1.21552e-07
2594.65	4.64662e-08
2603.21	1.28698e-07
2611.76	1.8798e-07
2620.32	1.95807e-07
2628.88	1.91469e-07
2637.44	3.79781e-08
2645.99	8.53965e-08
2654.55	3.97327e-07
2663.11	5.95377e-07
2671.67	8.78653e-07
2680.22	9.35421e-07
2688.78	8.73576e-07
2697.34	7.97229e-07
2705.9	8.22214e-07
2714.45	8.99224e-07
2723.01	1.19086e-06
2731.57	1.40228e-06
2740.13	1.98378e-06
2748.69	2.57854e-06
2757.24	2.88982e-06
2765.8	2.38826e-06
2774.36	2.26198e-06
2782.92	2.81534e-06
2791.47	4.33761e-06
2800.03	6.45404e-06
2808.59	9.0216e-06
2817.15	1.16834e-05
2825.7	1.31629e-05
2834.26	1.50057e-05
2842.82	1.48522e-05
2851.38	1.47649e-05
2859.93	1.53827e-05
2868.49	1.819e-05
2877.05	3.67566e-05
2885.61	5.99525e-05
2894.16	8.82931e-05
2902.72	0.000110108
2911.28	0.00011891
2919.84	0.000128365
2928.4	0.000107451
2936.95	0.000119168
2945.51	0.000119767
2954.07	0.000118553
2962.63	0.000126238
2971.18	0.000136321
2979.74	0.000179907
2988.3	0.00019213
2996.86	0.000188571
3005.41	0.000129128
3013.97	8.39349e-05
3022.53	5.30808e-05
3031.09	3.1294e-05
3039.64	2.18626e-05
3048.2	1.93504e-05
3056.76	1.74788e-05
3065.32	1.57831e-05
3073.88	1.33555e-05
3082.43	1.06881e-05
3090.99	8.06674e-06
3099.55	6.27611e-06
3108.11	4.88183e-06
3116.66	3.67583e-06
3125.22	2.8051e-06
3133.78	2.35795e-06
3142.34	2.1926e-06
3150.89	2.13867e-06
3159.45	2.41755e-06
3168.01	2.90411e-06
3176.57	2.89591e-06
3185.12	3.35362e-06
3193.68	2.19302e-06
3202.24	1.4467e-06
3210.8	7.27303e-07
3219.35	5.3613e-07
3227.91	5.67134e-07
3236.47	7.02613e-07
3245.03	6.14551e-07
3253.59	1.61986e-07
3262.14	-3.76816e-08
3270.7	-3.09606e-07
3279.26	-2.04116e-07
3287.82	-3.95324e-07
3296.37	-3.32043e-07
3304.93	-1.50301e-07
3313.49	-1.61405e-07
3322.05	-3.11967e-07
3330.6	-2.39092e-07
3339.16	-2.1896e-07
3347.72	-2.75026e-07
3356.28	-4.53394e-08
3364.83	1.75906e-07
3373.39	3.97588e-07
3381.95	1.77382e-07
3390.51	5.13105e-07
3399.06	1.10264e-07
3407.62	2.76788e-07
3416.18	5.74665e-07
3424.74	1.75866e-06
3433.3	3.55926e-06
3441.85	6.5776e-06
3450.41	9.96823e-06
3458.97	9.56836e-06
3467.53	9.96187e-06
3476.08	5.35403e-06
3484.64	1.86227e-06
3493.2	2.98171e-07
3501.76	-4.1965e-07
3510.31	-6.79765e-07
3518.87	-7.57095e-07
3527.43	-6.55702e-07
3535.99	-7.12459e-07
3544.54	-7.18814e-07
3553.1	-5.80145e-07
3561.66	-2.32807e-07
3570.22	2.12522e-07
3578.78	-2.83912e-08
3587.33	4.82143e-08
3595.89	2.97047e-07
3604.45	-3.08321e-07
3613.01	-1.21416e-08
3621.56	-2.39997e-07
3630.12	-4.51739e-09
3638.68	-2.2714e-07
3647.24	1.0098e-06
3655.79	1.64227e-07
3664.35	-3.57789e-09
3672.91	-1.78731e-08
3681.47	-1.75216e-07
3690.02	-1.08194e-07
3698.58	-2.11137e-07
3707.14	-3.58286e-07
3715.7	-2.8997e-07
3724.25	-2.89738e-07
3732.81	-6.72015e-09
3741.37	4.69661e-07
3749.93	8.00897e-07
3758.49	-2.08979e-07
3767.04	-1.9321e-07
3775.6	-3.60906e-07
3784.16	-3.73912e-07
3792.72	-3.53997e-07
3801.27	3.98863e-06
3809.83	-3.41373e-07
3818.39	-3.98898e-08
3826.95	4.80996e-07
3835.5	3.59136e-07
3844.06	5.30247e-07
3852.62	9.37162e-07
3861.18	7.35673e-07
3869.73	1.28073e-06
3878.29	5.1628e-07
3886.85	2.35918e-07
3895.41	3.93914e-08
3903.96	8.34874e-07
3912.52	-2.42922e-09
3921.08	-2.00783e-07
3929.64	2.11727e-07
3938.2	7.16215e-08
3946.75	2.81228e-07
3955.31	1.58273e-07
3963.87	1.85581e-07
3972.43	4.93994e-07
