Infrared Spectrum: 2-Butanone
Formula: C H3 C H2 C O C H3
CAS: 78-93-3
State: gas
Melting point: -86.35 C
Boiling point: 79.6 C
Class: IUPAC A
Instrument: IFS66V (Bruker)
Instrument parameters: KBr Beam splitter; MCT Detector; Multipass cell
Sampling: 1 L/min Flow
Resolution: 1.9290
Temperature: 23 C
Pressure: 101.3 kPa
Origin: NIST, Anayltical Chemistry Division, 301-975-3108
cm-1	(micromol/mol)-1m-1 (base 10)
574.687	2.05499e-05
583.365	2.86414e-05
592.043	3.02697e-05
600.721	2.23316e-05
609.4	5.15506e-06
618.078	1.21074e-06
626.756	6.42416e-07
635.434	4.93178e-07
644.112	5.47953e-07
652.79	1.16499e-06
661.469	6.53751e-07
670.147	4.88574e-07
678.825	3.40161e-07
687.503	1.90264e-07
696.181	1.67066e-07
704.859	1.43431e-07
713.537	3.65973e-07
722.216	1.15692e-06
730.894	3.67329e-06
739.572	9.20727e-06
748.25	1.88438e-05
756.928	1.96727e-05
765.606	1.81638e-05
774.285	7.76808e-06
782.963	2.65776e-06
791.641	1.42919e-06
800.319	1.05223e-06
808.997	6.51181e-07
817.675	4.39176e-07
826.353	3.6183e-07
835.032	4.25646e-07
843.71	4.06907e-07
852.388	4.05607e-07
861.066	5.61129e-07
869.744	8.01487e-07
878.422	1.29309e-06
887.101	1.99473e-06
895.779	3.41674e-06
904.457	6.51581e-06
913.135	1.37432e-05
921.813	2.53613e-05
930.491	4.12677e-05
939.169	5.17274e-05
947.848	5.17584e-05
956.526	3.87478e-05
965.204	2.38358e-05
973.882	1.78344e-05
982.56	1.64678e-05
991.238	1.44132e-05
999.917	1.24359e-05
1008.59	7.93481e-06
1017.27	5.30518e-06
1025.95	3.77536e-06
1034.63	2.9556e-06
1043.31	3.13999e-06
1051.99	4.05714e-06
1060.66	6.14512e-06
1069.34	1.03345e-05
1078.02	1.56489e-05
1086.7	1.56379e-05
1095.38	1.52561e-05
1104.05	1.04589e-05
1112.73	9.23352e-06
1121.41	1.00393e-05
1130.09	1.29996e-05
1138.77	2.31615e-05
1147.45	6.68128e-05
1156.12	0.000158313
1164.8	0.0002366
1173.48	0.000265936
1182.16	0.000196983
1190.84	0.000128
1199.51	7.283e-05
1208.19	4.9622e-05
1216.87	3.04016e-05
1225.55	1.57733e-05
1234.23	1.17137e-05
1242.9	1.19783e-05
1251.58	1.38852e-05
1260.26	1.42662e-05
1268.94	1.32591e-05
1277.62	1.06194e-05
1286.3	8.8142e-06
1294.97	1.00592e-05
1303.65	1.4912e-05
1312.33	2.22094e-05
1321.01	3.1969e-05
1329.69	4.63399e-05
1338.36	6.74865e-05
1347.04	0.000108904
1355.72	0.000197325
1364.4	0.00022654
1373.08	0.000229428
1381.76	0.000126535
1390.43	6.30342e-05
1399.11	5.583e-05
1407.79	5.93591e-05
1416.47	7.69182e-05
1425.15	7.58044e-05
1433.82	8.6921e-05
1442.5	7.91889e-05
1451.18	7.81618e-05
1459.86	9.09875e-05
1468.54	7.13155e-05
1477.22	6.1202e-05
1485.89	3.30548e-05
1494.57	2.02603e-05
1503.25	1.62763e-05
1511.93	1.60797e-05
1520.61	1.71563e-05
1529.28	1.42398e-05
1537.96	1.31642e-05
1546.64	1.04821e-05
1555.32	9.20022e-06
1564	7.59408e-06
1572.67	6.31792e-06
1581.35	5.51799e-06
1590.03	4.74568e-06
1598.71	3.93962e-06
1607.39	3.52792e-06
1616.07	4.688e-06
1624.74	3.49578e-06
1633.42	3.46019e-06
1642.1	3.81204e-06
1650.78	4.18264e-06
1659.46	4.87976e-06
1668.13	6.79573e-06
1676.81	9.90666e-06
1685.49	1.87102e-05
1694.17	2.88063e-05
1702.85	5.61418e-05
1711.53	0.000121321
1720.2	0.000265766
1728.88	0.000483159
1737.56	0.000466333
1746.24	0.000562267
1754.92	0.000331116
1763.59	0.000142424
1772.27	5.58682e-05
1780.95	2.38616e-05
1789.63	1.12159e-05
1798.31	7.59966e-06
1806.98	5.02018e-06
1815.66	2.46452e-06
1824.34	1.73333e-06
1833.02	1.39659e-06
1841.7	1.49231e-06
1850.38	1.70535e-06
1859.05	2.11599e-06
1867.73	2.72076e-06
1876.41	2.85532e-06
1885.09	2.89689e-06
1893.77	2.68137e-06
1902.44	2.08068e-06
1911.12	1.6768e-06
1919.8	1.40753e-06
1928.48	1.30482e-06
1937.16	1.1244e-06
1945.84	1.10203e-06
1954.51	9.08571e-07
1963.19	6.62543e-07
1971.87	4.02117e-07
1980.55	5.20729e-07
1989.23	5.93156e-07
1997.9	6.83711e-07
2006.58	4.43358e-07
2015.26	2.51368e-07
2023.94	1.18799e-07
2032.62	1.09684e-07
2041.3	1.90324e-07
2049.97	1.9924e-07
2058.65	3.23106e-07
2067.33	5.06549e-07
2076.01	8.42533e-07
2084.69	1.37633e-06
2093.36	2.05131e-06
2102.04	2.70423e-06
2110.72	3.26701e-06
2119.4	3.30351e-06
2128.08	2.80366e-06
2136.75	1.86503e-06
2145.43	9.56224e-07
2154.11	6.6441e-07
2162.79	6.60827e-07
2171.47	7.34288e-07
2180.15	4.85182e-07
2188.82	2.49026e-07
2197.5	4.51248e-08
2206.18	-3.57453e-08
2214.86	7.86791e-09
2223.54	-5.95209e-08
2232.21	-1.05082e-07
2240.89	-1.41153e-07
2249.57	-9.50434e-08
2258.25	1.26645e-08
2266.93	2.76604e-07
2275.61	6.72852e-07
2284.28	1.13159e-06
2292.96	1.38611e-06
2301.64	1.37921e-06
2310.32	1.19619e-06
2319	1.03657e-06
2327.67	1.01283e-06
2336.35	1.02893e-06
2345.03	9.11385e-07
2353.71	1.06947e-06
2362.39	1.43243e-06
2371.06	1.21414e-06
2379.74	9.25014e-07
2388.42	6.76331e-07
2397.1	4.78437e-07
2405.78	4.15463e-07
2414.46	3.25276e-07
2423.13	2.78885e-07
2431.81	2.17179e-07
2440.49	2.00229e-07
2449.17	1.99732e-07
2457.85	3.65385e-07
2466.52	4.86449e-07
2475.2	5.86557e-07
2483.88	4.43211e-07
2492.56	4.44404e-07
2501.24	7.55786e-07
2509.92	1.03989e-06
2518.59	1.24402e-06
2527.27	9.92531e-07
2535.95	6.95825e-07
2544.63	4.35162e-07
2553.31	3.20287e-07
2561.98	2.84621e-07
2570.66	2.20248e-07
2579.34	9.62203e-08
2588.02	2.67132e-08
2596.7	7.27548e-08
2605.38	1.24478e-07
2614.05	1.75778e-07
2622.73	1.72843e-07
2631.41	1.05009e-07
2640.09	1.08292e-07
2648.77	1.95696e-07
2657.44	4.18518e-07
2666.12	7.48601e-07
2674.8	9.46195e-07
2683.48	9.66658e-07
2692.16	8.96984e-07
2700.83	8.00168e-07
2709.51	8.40618e-07
2718.19	1.00011e-06
2726.87	1.18174e-06
2735.55	1.71985e-06
2744.23	2.43227e-06
2752.9	2.73945e-06
2761.58	2.76376e-06
2770.26	2.15659e-06
2778.94	2.47897e-06
2787.62	3.54282e-06
2796.29	5.60511e-06
2804.97	7.62212e-06
2813.65	1.07845e-05
2822.33	1.24528e-05
2831.01	1.42124e-05
2839.69	1.52592e-05
2848.36	1.484e-05
2857.04	1.50658e-05
2865.72	1.65039e-05
2874.4	2.81702e-05
2883.08	5.69091e-05
2891.75	8.36439e-05
2900.43	0.000108342
2909.11	0.000115385
2917.79	0.00014011
2926.47	0.000111688
2935.14	0.000112316
2943.82	0.000126517
2952.5	0.000118549
2961.18	0.000130418
2969.86	0.000134538
2978.54	0.000174316
2987.21	0.000194278
2995.89	0.00019217
3004.57	0.000135159
3013.25	8.48678e-05
3021.93	5.44186e-05
3030.6	3.21814e-05
3039.28	2.19682e-05
3047.96	1.93521e-05
3056.64	1.76701e-05
3065.32	1.57238e-05
3074	1.33191e-05
3082.67	1.04939e-05
3091.35	7.8847e-06
3100.03	6.13614e-06
3108.71	4.81838e-06
3117.39	3.66525e-06
3126.06	2.77186e-06
3134.74	2.33994e-06
3143.42	2.20026e-06
3152.1	2.33413e-06
3160.78	2.56885e-06
3169.46	3.04673e-06
3178.13	2.87189e-06
3186.81	2.99474e-06
3195.49	1.93432e-06
3204.17	1.24861e-06
3212.85	6.86006e-07
3221.52	4.79654e-07
3230.2	6.43089e-07
3238.88	5.69711e-07
3247.56	4.64913e-07
3256.24	1.64796e-07
3264.91	-1.306e-07
3273.59	-1.69171e-07
3282.27	-3.10496e-07
3290.95	-3.16837e-07
3299.63	-2.48096e-07
3308.31	-2.02084e-07
3316.98	-1.84574e-07
3325.66	-2.09811e-07
3334.34	-1.82799e-07
3343.02	-2.05637e-07
3351.7	-1.4978e-07
3360.37	3.77134e-08
3369.05	2.72556e-07
3377.73	3.99802e-07
3386.41	4.61174e-07
3395.09	3.07059e-07
3403.77	2.02565e-07
3412.44	3.50721e-07
3421.12	1.15668e-06
3429.8	2.66297e-06
3438.48	5.21532e-06
3447.16	8.823e-06
3455.83	1.03049e-05
3464.51	9.98974e-06
3473.19	7.33862e-06
3481.87	2.8242e-06
3490.55	5.38536e-07
3499.22	-4.34926e-07
3507.9	-7.28667e-07
3516.58	-9.16348e-07
3525.26	-8.00119e-07
3533.94	-8.48728e-07
3542.62	-7.8822e-07
3551.29	-5.61222e-07
3559.97	-3.18632e-07
3568.65	4.54062e-07
3577.33	6.44803e-08
3586.01	5.18937e-07
3594.68	2.81007e-07
3603.36	-1.35042e-07
3612.04	-2.27261e-08
3620.72	-1.06908e-07
3629.4	1.20921e-06
3638.08	-2.51309e-07
3646.75	4.0046e-07
3655.43	4.38771e-07
3664.11	-1.1537e-07
3672.79	-4.29602e-08
3681.47	-2.4733e-07
3690.14	1.37921e-07
3698.82	-2.68326e-07
3707.5	-2.47013e-07
3716.18	-2.91868e-07
3724.86	-8.83851e-08
3733.54	2.02387e-07
3742.21	-2.93753e-08
3750.89	6.90077e-07
3759.57	2.18346e-07
3768.25	-2.55144e-07
3776.93	-3.41254e-07
3785.6	-2.24929e-07
3794.28	-2.84559e-07
3802.96	1.79264e-07
3811.64	-1.73451e-07
3820.32	7.28674e-07
3828.99	9.36946e-09
3837.67	2.07191e-06
3846.35	2.63711e-07
3855.03	2.32965e-06
3863.71	7.65552e-07
3872.39	5.61055e-07
3881.06	8.22823e-07
3889.74	2.95055e-07
3898.42	4.51603e-07
3907.1	1.05226e-07
3915.78	8.44152e-08
3924.45	2.0294e-07
3933.13	1.99223e-07
3941.81	1.75083e-07
3950.49	6.15909e-08
3959.17	2.61295e-07
3967.85	3.97702e-07
