Infrared Spectrum: 2-Butanone
Formula: C H3 C H2 C O C H3
CAS: 78-93-3
State: gas
Melting point: -86.35 C
Boiling point: 79.6 C
Class: IUPAC A
Instrument: IFS66V (Bruker)
Instrument parameters: KBr Beam splitter; MCT Detector; Multipass cell
Sampling: 1 L/min Flow
Resolution: 1.9290
Temperature: 23 C
Pressure: 101.3 kPa
Origin: NIST, Anayltical Chemistry Division, 301-975-3108
cm-1	(micromol/mol)-1m-1 (base 10)
574.687	2.03527e-05
583.365	2.83769e-05
592.043	2.98516e-05
600.721	2.20023e-05
609.4	5.43307e-06
618.078	1.39352e-06
626.756	7.49987e-07
635.434	5.7485e-07
644.112	6.03178e-07
652.79	1.17345e-06
661.469	7.03644e-07
670.147	5.39226e-07
678.825	3.88402e-07
687.503	2.4474e-07
696.181	2.16187e-07
704.859	2.05871e-07
713.537	4.40105e-07
722.216	1.26568e-06
730.894	3.78838e-06
739.572	9.25255e-06
748.25	1.86476e-05
756.928	1.95823e-05
765.606	1.78849e-05
774.285	7.87298e-06
782.963	2.80092e-06
791.641	1.5326e-06
800.319	1.12219e-06
808.997	7.19469e-07
817.675	5.01857e-07
826.353	4.2274e-07
835.032	4.84934e-07
843.71	4.72502e-07
852.388	4.79736e-07
861.066	6.43222e-07
869.744	8.94904e-07
878.422	1.40114e-06
887.101	2.12739e-06
895.779	3.5844e-06
904.457	6.73475e-06
913.135	1.39062e-05
921.813	2.53765e-05
930.491	4.09227e-05
939.169	5.11598e-05
947.848	5.11315e-05
956.526	3.85369e-05
965.204	2.4006e-05
973.882	1.80037e-05
982.56	1.65216e-05
991.238	1.44637e-05
999.917	1.24557e-05
1008.59	8.0773e-06
1017.27	5.45495e-06
1025.95	3.93449e-06
1034.63	3.12735e-06
1043.31	3.31433e-06
1051.99	4.24449e-06
1060.66	6.33265e-06
1069.34	1.04587e-05
1078.02	1.56167e-05
1086.7	1.57139e-05
1095.38	1.52919e-05
1104.05	1.07861e-05
1112.73	9.65177e-06
1121.41	1.0579e-05
1130.09	1.38087e-05
1138.77	2.44835e-05
1147.45	6.79498e-05
1156.12	0.000156967
1164.8	0.000233187
1173.48	0.00026169
1182.16	0.000195998
1190.84	0.000127888
1199.51	7.35933e-05
1208.19	5.01228e-05
1216.87	3.09426e-05
1225.55	1.64549e-05
1234.23	1.22384e-05
1242.9	1.23648e-05
1251.58	1.41244e-05
1260.26	1.4469e-05
1268.94	1.34657e-05
1277.62	1.09277e-05
1286.3	9.21472e-06
1294.97	1.0509e-05
1303.65	1.53448e-05
1312.33	2.26546e-05
1321.01	3.24563e-05
1329.69	4.68754e-05
1338.36	6.81422e-05
1347.04	0.000109519
1355.72	0.000194756
1364.4	0.000224117
1373.08	0.000225716
1381.76	0.00012702
1390.43	6.44877e-05
1399.11	5.66806e-05
1407.79	5.99744e-05
1416.47	7.66643e-05
1425.15	7.6134e-05
1433.82	8.64793e-05
1442.5	7.91383e-05
1451.18	7.86053e-05
1459.86	9.01681e-05
1468.54	7.10133e-05
1477.22	6.07534e-05
1485.89	3.34964e-05
1494.57	2.07391e-05
1503.25	1.67111e-05
1511.93	1.63475e-05
1520.61	1.72024e-05
1529.28	1.4395e-05
1537.96	1.32678e-05
1546.64	1.06511e-05
1555.32	9.43685e-06
1564	7.77667e-06
1572.67	6.57168e-06
1581.35	5.72031e-06
1590.03	4.92145e-06
1598.71	4.14227e-06
1607.39	3.74051e-06
1616.07	4.78975e-06
1624.74	3.72477e-06
1633.42	3.7724e-06
1642.1	4.14616e-06
1650.78	4.67013e-06
1659.46	5.38548e-06
1668.13	7.3808e-06
1676.81	1.06531e-05
1685.49	1.95364e-05
1694.17	3.01775e-05
1702.85	5.81446e-05
1711.53	0.000123425
1720.2	0.000265717
1728.88	0.000475672
1737.56	0.000465328
1746.24	0.000550776
1754.92	0.000329498
1763.59	0.000144594
1772.27	5.81526e-05
1780.95	2.54835e-05
1789.63	1.24063e-05
1798.31	8.36131e-06
1806.98	5.57241e-06
1815.66	2.94455e-06
1824.34	2.09493e-06
1833.02	1.72148e-06
1841.7	1.7759e-06
1850.38	1.9171e-06
1859.05	2.29158e-06
1867.73	2.8369e-06
1876.41	2.97476e-06
1885.09	2.99651e-06
1893.77	2.76819e-06
1902.44	2.17718e-06
1911.12	1.76849e-06
1919.8	1.49323e-06
1928.48	1.38013e-06
1937.16	1.20029e-06
1945.84	1.16699e-06
1954.51	9.64681e-07
1963.19	7.23966e-07
1971.87	4.67733e-07
1980.55	5.76249e-07
1989.23	6.45169e-07
1997.9	7.20856e-07
2006.58	4.88004e-07
2015.26	2.97374e-07
2023.94	1.66544e-07
2032.62	1.55679e-07
2041.3	2.29106e-07
2049.97	2.41833e-07
2058.65	3.64143e-07
2067.33	5.49406e-07
2076.01	8.81477e-07
2084.69	1.40695e-06
2093.36	2.07095e-06
2102.04	2.714e-06
2110.72	3.26158e-06
2119.4	3.29442e-06
2128.08	2.7994e-06
2136.75	1.88244e-06
2145.43	9.95526e-07
2154.11	7.02458e-07
2162.79	6.89838e-07
2171.47	7.49911e-07
2180.15	5.08423e-07
2188.82	2.7417e-07
2197.5	7.3024e-08
2206.18	-8.44543e-09
2214.86	2.87778e-08
2223.54	-3.61155e-08
2232.21	-8.11966e-08
2240.89	-1.14538e-07
2249.57	-6.93388e-08
2258.25	3.98825e-08
2266.93	3.01516e-07
2275.61	6.90945e-07
2284.28	1.13805e-06
2292.96	1.3902e-06
2301.64	1.38383e-06
2310.32	1.21198e-06
2319	1.05197e-06
2327.67	1.03269e-06
2336.35	1.04117e-06
2345.03	9.32277e-07
2353.71	1.08354e-06
2362.39	1.42966e-06
2371.06	1.22358e-06
2379.74	9.4012e-07
2388.42	6.94825e-07
2397.1	4.99131e-07
2405.78	4.35093e-07
2414.46	3.44315e-07
2423.13	2.94959e-07
2431.81	2.37251e-07
2440.49	2.20621e-07
2449.17	2.24973e-07
2457.85	3.85256e-07
2466.52	5.00945e-07
2475.2	5.98596e-07
2483.88	4.67202e-07
2492.56	4.71663e-07
2501.24	7.72751e-07
2509.92	1.05063e-06
2518.59	1.24421e-06
2527.27	1.00385e-06
2535.95	7.15023e-07
2544.63	4.58443e-07
2553.31	3.4579e-07
2561.98	3.07129e-07
2570.66	2.42338e-07
2579.34	1.24864e-07
2588.02	5.71317e-08
2596.7	1.02525e-07
2605.38	1.52557e-07
2614.05	2.03017e-07
2622.73	2.00551e-07
2631.41	1.38438e-07
2640.09	1.4146e-07
2648.77	2.32439e-07
2657.44	4.54702e-07
2666.12	7.77968e-07
2674.8	9.75265e-07
2683.48	9.98421e-07
2692.16	9.34352e-07
2700.83	8.46497e-07
2709.51	8.90344e-07
2718.19	1.05209e-06
2726.87	1.24358e-06
2735.55	1.77515e-06
2744.23	2.47538e-06
2752.9	2.78775e-06
2761.58	2.81868e-06
2770.26	2.26466e-06
2778.94	2.59671e-06
2787.62	3.66765e-06
2796.29	5.70275e-06
2804.97	7.73837e-06
2813.65	1.08365e-05
2822.33	1.25434e-05
2831.01	1.43038e-05
2839.69	1.53683e-05
2848.36	1.50485e-05
2857.04	1.53918e-05
2865.72	1.70672e-05
2874.4	2.88199e-05
2883.08	5.67227e-05
2891.75	8.30457e-05
2900.43	0.000107455
2909.11	0.000115008
2917.79	0.000137971
2926.47	0.000111758
2935.14	0.000112519
2943.82	0.000126008
2952.5	0.000119309
2961.18	0.000129991
2969.86	0.000134671
2978.54	0.000173167
2987.21	0.000193806
2995.89	0.000191299
3004.57	0.000134698
3013.25	8.50327e-05
3021.93	5.47878e-05
3030.6	3.28327e-05
3039.28	2.25005e-05
3047.96	1.96805e-05
3056.64	1.78803e-05
3065.32	1.58818e-05
3074	1.34497e-05
3082.67	1.06334e-05
3091.35	8.03319e-06
3100.03	6.26984e-06
3108.71	4.93801e-06
3117.39	3.7752e-06
3126.06	2.88201e-06
3134.74	2.43958e-06
3143.42	2.29297e-06
3152.1	2.40608e-06
3160.78	2.62777e-06
3169.46	3.0748e-06
3178.13	2.91074e-06
3186.81	2.99649e-06
3195.49	1.9759e-06
3204.17	1.2945e-06
3212.85	7.41201e-07
3221.52	5.32387e-07
3230.2	6.75486e-07
3238.88	6.03361e-07
3247.56	4.95233e-07
3256.24	1.9555e-07
3264.91	-9.46905e-08
3273.59	-1.41715e-07
3282.27	-2.7757e-07
3290.95	-2.84548e-07
3299.63	-2.21482e-07
3308.31	-1.80337e-07
3316.98	-1.6317e-07
3325.66	-1.87673e-07
3334.34	-1.61279e-07
3343.02	-1.79104e-07
3351.7	-1.18422e-07
3360.37	6.38419e-08
3369.05	2.89505e-07
3377.73	4.21804e-07
3386.41	4.81014e-07
3395.09	3.37587e-07
3403.77	2.46577e-07
3412.44	4.0097e-07
3421.12	1.20346e-06
3429.8	2.70031e-06
3438.48	5.22489e-06
3447.16	8.72817e-06
3455.83	1.01757e-05
3464.51	9.85983e-06
3473.19	7.26144e-06
3481.87	2.87553e-06
3490.55	6.05865e-07
3499.22	-3.73043e-07
3507.9	-6.85024e-07
3516.58	-8.75837e-07
3525.26	-7.77053e-07
3533.94	-8.16206e-07
3542.62	-7.61747e-07
3551.29	-5.38685e-07
3559.97	-2.96295e-07
3568.65	4.35217e-07
3577.33	9.27224e-08
3586.01	5.21583e-07
3594.68	2.68787e-07
3603.36	-1.11625e-07
3612.04	1.35722e-08
3620.72	-1.02083e-07
3629.4	1.08903e-06
3638.08	-2.26404e-07
3646.75	4.21531e-07
3655.43	3.99896e-07
3664.11	-7.30585e-08
3672.79	2.965e-08
3681.47	-1.81809e-07
3690.14	8.27681e-08
3698.82	-2.24846e-07
3707.5	-2.20131e-07
3716.18	-2.59746e-07
3724.86	-6.9105e-08
3733.54	2.03898e-07
3742.21	7.42063e-08
3750.89	5.659e-07
3759.57	2.25004e-07
3768.25	-2.42252e-07
3776.93	-2.96443e-07
3785.6	-2.24117e-07
3794.28	-2.41371e-07
3802.96	1.40984e-07
3811.64	-1.25197e-07
3820.32	6.70918e-07
3828.99	7.23055e-08
3837.67	1.98101e-06
3846.35	3.09934e-07
3855.03	2.21556e-06
3863.71	7.52104e-07
3872.39	6.093e-07
3881.06	8.11682e-07
3889.74	2.90886e-07
3898.42	4.49008e-07
3907.1	1.46263e-07
3915.78	8.71828e-08
3924.45	2.03964e-07
3933.13	1.97747e-07
3941.81	1.82193e-07
3950.49	8.44452e-08
3959.17	2.67602e-07
3967.85	4.06455e-07
