Infrared Spectrum: 2-Butanone
Formula: C H3 C H2 C O C H3
CAS: 78-93-3
State: gas
Melting point: -86.35 C
Boiling point: 79.6 C
Class: IUPAC A
Instrument: IFS66V (Bruker)
Instrument parameters: KBr Beam splitter; MCT Detector; Multipass cell
Sampling: 1 L/min Flow
Resolution: 0.1250
Temperature: 23 C
Pressure: 101.3 kPa
Origin: NIST, Anayltical Chemistry Division, 301-975-3108
cm-1	(micromol/mol)-1m-1 (base 10)
574.988	2.10399e-05
583.546	2.72113e-05
592.103	3.01524e-05
600.661	2.15728e-05
609.219	5.67871e-06
617.776	1.5964e-06
626.334	6.38109e-07
634.891	5.13428e-07
643.449	7.76895e-07
652.007	1.53969e-06
660.564	4.8851e-07
669.122	7.35593e-07
677.68	2.75686e-07
686.237	3.97647e-07
694.795	2.36864e-07
703.352	-1.8226e-08
711.91	6.20512e-07
720.468	8.21521e-07
729.025	2.98588e-06
737.583	7.35973e-06
746.141	1.54206e-05
754.698	2.12255e-05
763.256	1.93943e-05
771.813	1.0987e-05
780.371	3.5015e-06
788.929	1.48858e-06
797.486	1.03511e-06
806.044	5.84424e-07
814.602	5.65959e-07
823.159	2.88734e-07
831.717	5.25165e-07
840.274	4.29875e-07
848.832	3.7138e-07
857.39	5.91891e-07
865.947	7.7663e-07
874.505	1.08421e-06
883.063	1.79747e-06
891.62	2.64943e-06
900.178	4.64779e-06
908.735	9.59118e-06
917.293	1.84098e-05
925.851	3.19683e-05
934.408	4.85036e-05
942.966	5.30286e-05
951.524	4.85591e-05
960.081	3.16598e-05
968.639	2.05567e-05
977.196	1.70724e-05
985.754	1.54088e-05
994.312	1.35617e-05
1002.87	1.13141e-05
1011.43	6.79915e-06
1019.98	4.78233e-06
1028.54	3.51589e-06
1037.1	2.7714e-06
1045.66	3.3063e-06
1054.22	4.53929e-06
1062.77	6.99976e-06
1071.33	1.13717e-05
1079.89	1.64205e-05
1088.45	1.49463e-05
1097	1.42122e-05
1105.56	1.01153e-05
1114.12	9.18061e-06
1122.68	1.03469e-05
1131.23	1.3648e-05
1139.79	2.54218e-05
1148.35	7.52672e-05
1156.91	0.000164888
1165.46	0.000243614
1174.02	0.000267663
1182.58	0.000193939
1191.14	0.000125197
1199.69	7.20039e-05
1208.25	4.94252e-05
1216.81	3.04661e-05
1225.37	1.59638e-05
1233.93	1.17705e-05
1242.48	1.17502e-05
1251.04	1.38389e-05
1259.6	1.44169e-05
1268.16	1.35071e-05
1276.71	1.08542e-05
1285.27	8.81478e-06
1293.83	9.59501e-06
1302.39	1.40555e-05
1310.94	2.09149e-05
1319.5	2.99563e-05
1328.06	4.31879e-05
1336.62	6.28479e-05
1345.17	9.43113e-05
1353.73	0.000178713
1362.29	0.000215801
1370.85	0.000218084
1379.4	0.00016797
1387.96	6.57433e-05
1396.52	5.83242e-05
1405.08	5.62431e-05
1413.64	7.22171e-05
1422.19	7.44736e-05
1430.75	8.95385e-05
1439.31	7.95636e-05
1447.87	7.97471e-05
1456.42	0.00011223
1464.98	6.86863e-05
1473.54	7.38181e-05
1482.1	4.4023e-05
1490.65	2.52063e-05
1499.21	1.76919e-05
1507.77	1.62663e-05
1516.33	1.62466e-05
1524.88	1.5253e-05
1533.44	1.3884e-05
1542	1.55077e-05
1550.56	9.71232e-06
1559.11	8.69237e-06
1567.67	6.94816e-06
1576.23	1.6177e-05
1584.79	5.20157e-06
1593.35	4.36307e-06
1601.9	3.63859e-06
1610.46	3.35339e-06
1619.02	3.19345e-06
1627.58	3.63264e-06
1636.13	3.9609e-06
1644.69	4.02824e-06
1653.25	1.55781e-05
1661.81	5.44884e-06
1670.36	7.28365e-06
1678.92	1.09731e-05
1687.48	1.89996e-05
1696.04	3.97135e-05
1704.59	6.62914e-05
1713.15	0.000140542
1721.71	0.000301214
1730.27	0.000511668
1738.83	0.000451683
1747.38	0.000544985
1755.94	0.000302238
1764.5	0.000128823
1773.06	5.07599e-05
1781.61	2.22583e-05
1790.17	1.10031e-05
1798.73	7.3484e-06
1807.29	4.81892e-06
1815.84	2.40708e-06
1824.4	1.55157e-06
1832.96	1.37907e-06
1841.52	1.53694e-06
1850.07	1.65265e-06
1858.63	2.12364e-06
1867.19	2.51693e-06
1875.75	2.89254e-06
1884.3	2.93147e-06
1892.86	2.77826e-06
1901.42	2.02658e-06
1909.98	2.0802e-06
1918.54	1.46869e-06
1927.09	1.33763e-06
1935.65	1.11088e-06
1944.21	1.15833e-06
1952.77	9.62245e-07
1961.32	7.99702e-07
1969.88	5.16531e-07
1978.44	4.71979e-07
1987	5.91046e-07
1995.55	6.13452e-07
2004.11	5.89979e-07
2012.67	3.01387e-07
2021.23	2.0188e-07
2029.78	9.40948e-08
2038.34	1.7854e-07
2046.9	1.88582e-07
2055.46	2.16366e-07
2064.01	5.0717e-07
2072.57	6.95365e-07
2081.13	1.07103e-06
2089.69	1.75962e-06
2098.25	2.29121e-06
2106.8	3.01135e-06
2115.36	3.41467e-06
2123.92	3.07396e-06
2132.48	2.4648e-06
2141.03	1.32237e-06
2149.59	8.32604e-07
2158.15	5.86867e-07
2166.71	7.898e-07
2175.26	6.26437e-07
2183.82	4.23229e-07
2192.38	1.31083e-07
2200.94	5.13765e-08
2209.49	-2.49552e-08
2218.05	-7.06757e-08
2226.61	-6.49269e-08
2235.17	-1.1787e-07
2243.72	-2.17174e-07
2252.28	-8.16167e-08
2260.84	4.81406e-08
2269.4	3.83688e-07
2277.96	7.34958e-07
2286.51	1.16609e-06
2295.07	1.55172e-06
2303.63	1.30285e-06
2312.19	1.14164e-06
2320.74	9.86615e-07
2329.3	7.28578e-07
2337.86	1.02793e-06
2346.42	8.69368e-07
2354.97	9.9736e-07
2363.53	1.12687e-06
2372.09	1.07459e-06
2380.65	9.0423e-07
2389.2	6.51119e-07
2397.76	5.25556e-07
2406.32	3.93216e-07
2414.88	3.21673e-07
2423.44	1.74276e-07
2431.99	2.12877e-07
2440.55	2.11284e-07
2449.11	1.37426e-07
2457.67	3.56657e-07
2466.22	4.99354e-07
2474.78	5.57136e-07
2483.34	4.78346e-07
2491.9	4.37123e-07
2500.45	7.39197e-07
2509.01	1.02842e-06
2517.57	1.33019e-06
2526.13	9.67919e-07
2534.68	8.05984e-07
2543.24	4.46989e-07
2551.8	2.95517e-07
2560.36	2.53828e-07
2568.91	2.64309e-07
2577.47	1.7562e-07
2586.03	1.2448e-07
2594.59	5.26043e-09
2603.15	5.40922e-08
2611.7	1.7741e-07
2620.26	1.86963e-07
2628.82	2.08897e-07
2637.38	2.81657e-08
2645.93	1.08079e-07
2654.49	3.80969e-07
2663.05	5.92073e-07
2671.61	8.13855e-07
2680.16	9.67993e-07
2688.72	8.57139e-07
2697.28	8.27288e-07
2705.84	7.72008e-07
2714.39	8.9506e-07
2722.95	1.25012e-06
2731.51	1.42109e-06
2740.07	2.04838e-06
2748.62	2.66837e-06
2757.18	2.90588e-06
2765.74	2.37614e-06
2774.3	2.17288e-06
2782.86	2.81537e-06
2791.41	4.34984e-06
2799.97	6.41631e-06
2808.53	9.06227e-06
2817.09	1.17089e-05
2825.64	1.30902e-05
2834.2	1.48384e-05
2842.76	1.4803e-05
2851.32	1.4781e-05
2859.87	1.53121e-05
2868.43	1.81542e-05
2876.99	3.65138e-05
2885.55	5.99931e-05
2894.1	8.81312e-05
2902.66	0.000110106
2911.22	0.000118819
2919.78	0.000128494
2928.34	0.000107497
2936.89	0.0001187
2945.45	0.000120013
2954.01	0.000118039
2962.57	0.000126171
2971.12	0.000136
2979.68	0.000179522
2988.24	0.000191999
2996.8	0.000189134
3005.35	0.000129388
3013.91	8.42404e-05
3022.47	5.31135e-05
3031.03	3.11999e-05
3039.58	2.18523e-05
3048.14	1.92264e-05
3056.7	1.75047e-05
3065.26	1.57328e-05
3073.81	1.3413e-05
3082.37	1.06826e-05
3090.93	8.03007e-06
3099.49	6.36986e-06
3108.05	4.88765e-06
3116.6	3.77146e-06
3125.16	3.03122e-06
3133.72	2.52302e-06
3142.28	2.07657e-06
3150.83	2.05573e-06
3159.39	2.33716e-06
3167.95	2.88983e-06
3176.51	2.76628e-06
3185.06	3.37028e-06
3193.62	2.22175e-06
3202.18	1.46772e-06
3210.74	6.76021e-07
3219.29	4.90905e-07
3227.85	5.23152e-07
3236.41	8.95912e-07
3244.97	7.66107e-07
3253.52	2.2789e-07
3262.08	-7.3184e-08
3270.64	-2.76613e-07
3279.2	-2.71596e-07
3287.76	-5.75115e-07
3296.31	-2.94896e-07
3304.87	-1.16734e-07
3313.43	-3.00459e-07
3321.99	-2.02309e-07
3330.54	-2.18668e-07
3339.1	-2.90542e-07
3347.66	-4.37702e-07
3356.22	-2.16137e-07
3364.77	2.17756e-07
3373.33	3.17757e-07
3381.89	2.50503e-07
3390.45	4.83864e-07
3399	1.88965e-07
3407.56	2.43219e-07
3416.12	5.40108e-07
3424.68	1.70937e-06
3433.23	3.52419e-06
3441.79	6.70559e-06
3450.35	9.99728e-06
3458.91	9.48744e-06
3467.47	1.00183e-05
3476.02	5.30632e-06
3484.58	1.78589e-06
3493.14	3.10757e-07
3501.7	-4.02553e-07
3510.25	-7.57701e-07
3518.81	-7.08234e-07
3527.37	-7.0923e-07
3535.93	-7.5985e-07
3544.48	-7.09586e-07
3553.04	-7.24562e-07
3561.6	-2.50286e-07
3570.16	2.67785e-07
3578.71	9.70843e-08
3587.27	5.01787e-08
3595.83	2.30366e-07
3604.39	-2.6666e-07
3612.95	-1.07816e-07
3621.5	-2.88356e-07
3630.06	-1.14867e-08
3638.62	-2.27158e-07
3647.18	1.3768e-06
3655.73	9.52216e-08
3664.29	-7.89274e-08
3672.85	-2.23961e-07
3681.41	-1.23895e-07
3689.96	-1.57802e-07
3698.52	-1.04299e-07
3707.08	-3.39937e-07
3715.64	-1.82904e-07
3724.19	-4.06699e-07
3732.75	-5.14984e-08
3741.31	8.31475e-07
3749.87	7.89681e-07
3758.42	-2.59741e-07
3766.98	-2.26836e-07
3775.54	-3.55625e-07
3784.1	-2.38832e-07
3792.66	-3.27162e-07
3801.21	2.29231e-06
3809.77	-3.42711e-07
3818.33	-4.00108e-08
3826.89	8.36029e-07
3835.44	3.86004e-07
3844	6.77762e-07
3852.56	1.031e-06
3861.12	7.61489e-07
3869.67	1.08598e-06
3878.23	4.2571e-07
3886.79	3.16344e-07
3895.35	3.05494e-09
3903.9	4.2435e-07
3912.46	2.90233e-08
3921.02	-2.95152e-07
3929.58	1.62499e-07
3938.13	2.4656e-09
3946.69	1.89042e-07
3955.25	2.8283e-08
3963.81	8.58413e-08
3972.37	3.87136e-07
