Infrared Spectrum: 2-Butanone
Formula: C H3 C H2 C O C H3
CAS: 78-93-3
State: gas
Melting point: -86.35 C
Boiling point: 79.6 C
Class: IUPAC A
Instrument: IFS66V (Bruker)
Instrument parameters: KBr Beam splitter; MCT Detector; Multipass cell
Sampling: 1 L/min Flow
Resolution: 0.4820
Temperature: 23 C
Pressure: 101.3 kPa
Origin: NIST, Anayltical Chemistry Division, 301-975-3108
cm-1	(micromol/mol)-1m-1 (base 10)
574.928	2.07761e-05
583.606	2.82824e-05
592.284	2.97003e-05
600.962	2.18799e-05
609.641	4.78856e-06
618.319	1.21751e-06
626.997	7.41079e-07
635.675	5.53149e-07
644.353	2.58806e-07
653.031	1.14293e-06
661.71	4.43459e-07
670.388	4.32189e-07
679.066	2.81837e-07
687.744	1.95837e-07
696.422	2.36977e-07
705.1	5.3904e-08
713.778	3.30435e-07
722.457	1.24803e-06
731.135	3.77718e-06
739.813	9.28224e-06
748.491	1.92556e-05
757.169	1.9448e-05
765.847	1.80595e-05
774.526	7.43165e-06
783.204	2.57434e-06
791.882	1.35549e-06
800.56	1.07463e-06
809.238	6.56618e-07
817.916	4.8368e-07
826.594	3.1541e-07
835.273	5.53097e-07
843.951	4.63708e-07
852.629	3.72344e-07
861.307	6.28653e-07
869.985	8.56821e-07
878.663	1.29769e-06
887.342	2.00651e-06
896.02	3.45077e-06
904.698	6.63291e-06
913.376	1.39938e-05
922.054	2.59071e-05
930.732	4.17656e-05
939.41	5.18007e-05
948.089	5.18855e-05
956.767	3.8175e-05
965.445	2.34471e-05
974.123	1.77592e-05
982.801	1.63913e-05
991.479	1.43213e-05
1000.16	1.23962e-05
1008.84	7.75243e-06
1017.51	5.18943e-06
1026.19	3.7592e-06
1034.87	2.93268e-06
1043.55	3.18192e-06
1052.23	3.9846e-06
1060.9	6.25431e-06
1069.58	1.04749e-05
1078.26	1.58799e-05
1086.94	1.55192e-05
1095.62	1.51396e-05
1104.3	1.04569e-05
1112.97	9.1915e-06
1121.65	1.00628e-05
1130.33	1.31172e-05
1139.01	2.35437e-05
1147.69	6.88189e-05
1156.36	0.000160659
1165.04	0.000239355
1173.72	0.000266889
1182.4	0.000195345
1191.08	0.000125767
1199.76	7.19081e-05
1208.43	4.91877e-05
1217.11	2.97772e-05
1225.79	1.55678e-05
1234.47	1.16778e-05
1243.15	1.20324e-05
1251.82	1.3873e-05
1260.5	1.42318e-05
1269.18	1.32162e-05
1277.86	1.05151e-05
1286.54	8.79032e-06
1295.21	1.01928e-05
1303.89	1.50536e-05
1312.57	2.24864e-05
1321.25	3.23708e-05
1329.93	4.67653e-05
1338.61	6.82592e-05
1347.28	0.000110809
1355.96	0.000199506
1364.64	0.000228285
1373.32	0.000230621
1382	0.000122399
1390.67	6.29424e-05
1399.35	5.6214e-05
1408.03	5.97859e-05
1416.71	7.7158e-05
1425.39	7.61073e-05
1434.07	8.64204e-05
1442.74	7.9094e-05
1451.42	7.82653e-05
1460.1	8.94903e-05
1468.78	7.06255e-05
1477.46	6.02869e-05
1486.13	3.24268e-05
1494.81	1.99853e-05
1503.49	1.61977e-05
1512.17	1.68576e-05
1520.85	1.65997e-05
1529.52	1.40249e-05
1538.2	1.27854e-05
1546.88	1.0296e-05
1555.56	8.68351e-06
1564.24	7.44248e-06
1572.92	6.29114e-06
1581.59	5.4728e-06
1590.27	4.69721e-06
1598.95	3.94782e-06
1607.63	3.48286e-06
1616.31	4.64579e-06
1624.98	3.29458e-06
1633.66	3.41315e-06
1642.34	3.85747e-06
1651.02	4.01003e-06
1659.7	4.91397e-06
1668.38	6.86467e-06
1677.05	9.8493e-06
1685.73	1.71415e-05
1694.41	2.90611e-05
1703.09	5.7268e-05
1711.77	0.000123793
1720.44	0.000271026
1729.12	0.00048873
1737.8	0.000460618
1746.48	0.000560371
1755.16	0.000324048
1763.84	0.000138467
1772.51	5.56779e-05
1781.19	2.31789e-05
1789.87	1.09988e-05
1798.55	7.43197e-06
1807.23	4.88504e-06
1815.9	2.43063e-06
1824.58	1.60995e-06
1833.26	1.4687e-06
1841.94	1.56503e-06
1850.62	1.72666e-06
1859.29	2.13162e-06
1867.97	2.96871e-06
1876.65	2.86425e-06
1885.33	2.84928e-06
1894.01	2.64242e-06
1902.69	2.05993e-06
1911.36	1.6327e-06
1920.04	1.38681e-06
1928.72	1.32759e-06
1937.4	1.11785e-06
1946.08	1.10496e-06
1954.75	9.5602e-07
1963.43	6.78378e-07
1972.11	3.80377e-07
1980.79	5.20008e-07
1989.47	5.65695e-07
1998.15	6.88713e-07
2006.82	4.20737e-07
2015.5	2.66491e-07
2024.18	1.1164e-07
2032.86	1.4636e-07
2041.54	2.08672e-07
2050.21	1.86536e-07
2058.89	3.36596e-07
2067.57	5.01812e-07
2076.25	8.59687e-07
2084.93	1.4363e-06
2093.6	2.06086e-06
2102.28	2.70847e-06
2110.96	3.27725e-06
2119.64	3.2727e-06
2128.32	2.76127e-06
2137	1.82269e-06
2145.67	9.27035e-07
2154.35	6.91311e-07
2163.03	6.57708e-07
2171.71	7.0664e-07
2180.39	4.76761e-07
2189.06	2.62071e-07
2197.74	6.06359e-08
2206.42	-5.29872e-08
2215.1	5.87251e-09
2223.78	-7.60871e-08
2232.46	-8.70354e-08
2241.13	-1.40481e-07
2249.81	-1.07285e-07
2258.49	4.15632e-08
2267.17	3.28084e-07
2275.85	6.80744e-07
2284.52	1.11441e-06
2293.2	1.37629e-06
2301.88	1.31979e-06
2310.56	1.17315e-06
2319.24	1.23276e-06
2327.92	7.92311e-07
2336.59	7.6883e-07
2345.27	7.64945e-07
2353.95	9.00905e-07
2362.63	1.73828e-06
2371.31	1.36661e-06
2379.98	9.50848e-07
2388.66	6.5971e-07
2397.34	4.98885e-07
2406.02	4.39765e-07
2414.7	3.21323e-07
2423.37	2.37584e-07
2432.05	2.41959e-07
2440.73	1.54981e-07
2449.41	2.18763e-07
2458.09	4.00681e-07
2466.77	5.06809e-07
2475.44	6.08116e-07
2484.12	4.70866e-07
2492.8	4.43948e-07
2501.48	7.18735e-07
2510.16	9.68253e-07
2518.83	1.24163e-06
2527.51	9.59829e-07
2536.19	6.44446e-07
2544.87	4.33632e-07
2553.55	3.02963e-07
2562.23	2.91852e-07
2570.9	2.18705e-07
2579.58	9.35173e-08
2588.26	3.09223e-09
2596.94	5.46352e-08
2605.62	1.39705e-07
2614.29	1.63414e-07
2622.97	2.22095e-07
2631.65	8.17068e-08
2640.33	6.81e-08
2649.01	1.75521e-07
2657.68	4.15727e-07
2666.36	7.38519e-07
2675.04	9.67089e-07
2683.72	9.7624e-07
2692.4	8.74992e-07
2701.08	8.18109e-07
2709.75	9.1645e-07
2718.43	9.86093e-07
2727.11	1.1832e-06
2735.79	1.73925e-06
2744.47	2.43952e-06
2753.14	2.71246e-06
2761.82	2.77179e-06
2770.5	2.17391e-06
2779.18	2.48956e-06
2787.86	3.53793e-06
2796.54	5.62844e-06
2805.21	7.69045e-06
2813.89	1.08371e-05
2822.57	1.25001e-05
2831.25	1.42311e-05
2839.93	1.51892e-05
2848.6	1.4827e-05
2857.28	1.50495e-05
2865.96	1.65609e-05
2874.64	2.87737e-05
2883.32	5.75693e-05
2892	8.4989e-05
2900.67	0.00010876
2909.35	0.000115796
2918.03	0.000139738
2926.71	0.000111074
2935.39	0.000113173
2944.06	0.000125795
2952.74	0.000117331
2961.42	0.000130081
2970.1	0.000134994
2978.78	0.000175652
2987.45	0.000193204
2996.13	0.00019152
3004.81	0.000133395
3013.49	8.48161e-05
3022.17	5.39052e-05
3030.85	3.17104e-05
3039.52	2.18905e-05
3048.2	1.93268e-05
3056.88	1.75059e-05
3065.56	1.57767e-05
3074.24	1.32596e-05
3082.91	1.04778e-05
3091.59	7.9029e-06
3100.27	6.06179e-06
3108.95	4.74544e-06
3117.63	3.68049e-06
3126.31	2.74941e-06
3134.98	2.37418e-06
3143.66	2.23707e-06
3152.34	2.33784e-06
3161.02	2.5234e-06
3169.7	3.10589e-06
3178.37	2.86505e-06
3187.05	2.88763e-06
3195.73	1.99183e-06
3204.41	1.22599e-06
3213.09	7.06861e-07
3221.77	4.94777e-07
3230.44	6.96037e-07
3239.12	5.92245e-07
3247.8	5.53026e-07
3256.48	1.68837e-07
3265.16	-1.26831e-07
3273.83	-1.95316e-07
3282.51	-3.40032e-07
3291.19	-3.10152e-07
3299.87	-2.68014e-07
3308.55	-2.01834e-07
3317.22	-2.03901e-07
3325.9	-2.04378e-07
3334.58	-1.39514e-07
3343.26	-2.87197e-07
3351.94	-1.76141e-07
3360.62	1.27354e-07
3369.29	2.19855e-07
3377.97	3.63629e-07
3386.65	4.47056e-07
3395.33	3.26058e-07
3404.01	2.50632e-07
3412.68	3.91716e-07
3421.36	1.12302e-06
3430.04	2.82227e-06
3438.72	5.26086e-06
3447.4	8.92441e-06
3456.08	1.02397e-05
3464.75	9.9989e-06
3473.43	7.22443e-06
3482.11	2.84383e-06
3490.79	5.10213e-07
3499.47	-4.45949e-07
3508.14	-7.64958e-07
3516.82	-8.8073e-07
3525.5	-7.97072e-07
3534.18	-8.12002e-07
3542.86	-8.58276e-07
3551.53	-4.73491e-07
3560.21	-2.35071e-07
3568.89	2.22874e-07
3577.57	8.69236e-08
3586.25	6.12762e-07
3594.93	2.22533e-07
3603.6	-1.74237e-07
3612.28	2.05092e-07
3620.96	-2.94689e-07
3629.64	3.10124e-06
3638.32	-1.42775e-07
3646.99	6.26147e-07
3655.67	1.53327e-07
3664.35	-4.51148e-08
3673.03	-1.39614e-08
3681.71	-2.18952e-07
3690.39	1.44325e-08
3699.06	-2.36445e-07
3707.74	-2.10691e-07
3716.42	-3.00369e-07
3725.1	1.59077e-07
3733.78	-1.69884e-07
3742.45	-7.97796e-08
3751.13	7.73531e-08
3759.81	9.56927e-07
3768.49	-2.85292e-07
3777.17	-3.58106e-07
3785.85	-3.50938e-07
3794.52	-2.74558e-07
3803.2	3.19537e-08
3811.88	-2.38117e-07
3820.56	1.39787e-06
3829.24	-6.79427e-08
3837.91	5.92926e-06
3846.59	2.15942e-07
3855.27	5.41034e-07
3863.95	6.15339e-07
3872.63	5.9714e-07
3881.3	6.12678e-07
3889.98	1.76752e-07
3898.66	1.4697e-07
3907.34	-5.37239e-08
3916.02	7.20827e-08
3924.7	5.96946e-08
3933.37	9.2646e-08
3942.05	1.86372e-07
3950.73	1.00559e-07
3959.41	2.12199e-07
3968.09	3.91252e-07
