Infrared Spectrum: 2-Butanone
Formula: C H3 C H2 C O C H3
CAS: 78-93-3
State: gas
Melting point: -86.35 C
Boiling point: 79.6 C
Class: IUPAC A
Instrument: IFS66V (Bruker)
Instrument parameters: KBr Beam splitter; MCT Detector; Multipass cell
Sampling: 1 L/min Flow
Resolution: 0.9640
Temperature: 23 C
Pressure: 101.3 kPa
Origin: NIST, Anayltical Chemistry Division, 301-975-3108
cm-1	(micromol/mol)-1m-1 (base 10)
575.169	2.15932e-05
583.847	2.89035e-05
592.525	2.95678e-05
601.203	2.1115e-05
609.882	4.5868e-06
618.56	1.20283e-06
627.238	7.37181e-07
635.916	5.52382e-07
644.594	5.55036e-07
653.272	9.94254e-07
661.951	6.25796e-07
670.629	5.0232e-07
679.307	3.40638e-07
687.985	1.87005e-07
696.663	1.87063e-07
705.341	1.92359e-07
714.019	4.29051e-07
722.698	1.30891e-06
731.376	3.99423e-06
740.054	9.5762e-06
748.732	1.97072e-05
757.41	1.94313e-05
766.088	1.77131e-05
774.767	7.29953e-06
783.445	2.57238e-06
792.123	1.47577e-06
800.801	9.84514e-07
809.479	6.52054e-07
818.157	4.9283e-07
826.835	3.31849e-07
835.514	4.8403e-07
844.192	4.44984e-07
852.87	4.27427e-07
861.548	6.12564e-07
870.226	8.78122e-07
878.904	1.36453e-06
887.583	2.09892e-06
896.261	3.61902e-06
904.939	6.9118e-06
913.617	1.43424e-05
922.295	2.62779e-05
930.973	4.20489e-05
939.651	5.23559e-05
948.33	5.15213e-05
957.008	3.76058e-05
965.686	2.3345e-05
974.364	1.7784e-05
983.042	1.63655e-05
991.72	1.42358e-05
1000.4	1.23546e-05
1009.08	7.75212e-06
1017.75	5.25584e-06
1026.43	3.77027e-06
1035.11	3.00116e-06
1043.79	3.26868e-06
1052.47	4.15792e-06
1061.15	6.41188e-06
1069.82	1.06845e-05
1078.5	1.58516e-05
1087.18	1.54811e-05
1095.86	1.50351e-05
1104.54	1.04955e-05
1113.21	9.41094e-06
1121.89	1.04195e-05
1130.57	1.36951e-05
1139.25	2.48638e-05
1147.93	7.16233e-05
1156.61	0.000161915
1165.28	0.000240063
1173.96	0.000264908
1182.64	0.00019293
1191.32	0.000123712
1200	7.14717e-05
1208.67	4.89318e-05
1217.35	2.94526e-05
1226.03	1.56854e-05
1234.71	1.18655e-05
1243.39	1.22699e-05
1252.07	1.40773e-05
1260.74	1.42739e-05
1269.42	1.32422e-05
1278.1	1.06387e-05
1286.78	8.99164e-06
1295.46	1.04951e-05
1304.13	1.54662e-05
1312.81	2.29286e-05
1321.49	3.28461e-05
1330.17	4.75546e-05
1338.85	6.93142e-05
1347.52	0.000113367
1356.2	0.000199881
1364.88	0.000231007
1373.56	0.000228817
1382.24	0.000119037
1390.92	6.35128e-05
1399.59	5.58706e-05
1408.27	6.05404e-05
1416.95	7.74411e-05
1425.63	7.70192e-05
1434.31	8.57678e-05
1442.98	7.89188e-05
1451.66	7.91313e-05
1460.34	8.78956e-05
1469.02	7.03583e-05
1477.7	5.9374e-05
1486.38	3.2126e-05
1495.05	2.01412e-05
1503.73	1.6412e-05
1512.41	1.6526e-05
1521.09	1.82609e-05
1529.77	1.41106e-05
1538.44	1.36039e-05
1547.12	1.03466e-05
1555.8	8.88504e-06
1564.48	7.76245e-06
1573.16	6.40424e-06
1581.83	5.57291e-06
1590.51	4.75521e-06
1599.19	4.01921e-06
1607.87	3.57915e-06
1616.55	6.48858e-06
1625.23	3.46941e-06
1633.9	3.67645e-06
1642.58	4.02311e-06
1651.26	4.448e-06
1659.94	5.19816e-06
1668.62	7.32576e-06
1677.29	1.04192e-05
1685.97	1.79917e-05
1694.65	3.04851e-05
1703.33	5.95467e-05
1712.01	0.00012773
1720.69	0.00027654
1729.36	0.000489764
1738.04	0.000458219
1746.72	0.000550681
1755.4	0.000316716
1764.08	0.000136119
1772.75	5.51725e-05
1781.43	2.34896e-05
1790.11	1.14911e-05
1798.79	7.78965e-06
1807.47	5.14964e-06
1816.15	2.60709e-06
1824.82	2.09985e-06
1833.5	1.58152e-06
1842.18	1.67849e-06
1850.86	1.83693e-06
1859.54	2.22152e-06
1868.21	2.86424e-06
1876.89	2.94623e-06
1885.57	2.90742e-06
1894.25	2.66879e-06
1902.93	2.07617e-06
1911.6	1.68721e-06
1920.28	1.44125e-06
1928.96	1.34597e-06
1937.64	1.16091e-06
1946.32	1.13053e-06
1955	9.5708e-07
1963.67	6.69399e-07
1972.35	4.13891e-07
1981.03	5.63411e-07
1989.71	6.00306e-07
1998.39	6.99429e-07
2007.06	4.5648e-07
2015.74	2.8089e-07
2024.42	1.50903e-07
2033.1	1.57584e-07
2041.78	1.98279e-07
2050.46	2.07265e-07
2059.13	3.42409e-07
2067.81	5.35011e-07
2076.49	8.86445e-07
2085.17	1.424e-06
2093.85	2.1142e-06
2102.52	2.7421e-06
2111.2	3.27313e-06
2119.88	3.24811e-06
2128.56	2.75188e-06
2137.24	1.8134e-06
2145.91	9.46606e-07
2154.59	6.76519e-07
2163.27	6.74682e-07
2171.95	7.27408e-07
2180.63	5.00072e-07
2189.31	2.59265e-07
2197.98	5.64087e-08
2206.66	-2.49952e-08
2215.34	1.38805e-08
2224.02	-4.68137e-08
2232.7	-8.71255e-08
2241.37	-1.17149e-07
2250.05	-7.74004e-08
2258.73	3.07586e-08
2267.41	3.27649e-07
2276.09	7.05626e-07
2284.77	1.1573e-06
2293.44	1.38513e-06
2302.12	1.35936e-06
2310.8	1.22184e-06
2319.48	1.07244e-06
2328.16	9.87548e-07
2336.83	8.3087e-07
2345.51	8.60837e-07
2354.19	1.18648e-06
2362.87	1.62418e-06
2371.55	1.25444e-06
2380.23	9.29065e-07
2388.9	6.5818e-07
2397.58	4.86041e-07
2406.26	4.12104e-07
2414.94	3.29477e-07
2423.62	2.90818e-07
2432.29	2.22837e-07
2440.97	2.05897e-07
2449.65	2.19029e-07
2458.33	3.8417e-07
2467.01	5.09452e-07
2475.68	6.18334e-07
2484.36	4.59466e-07
2493.04	4.43136e-07
2501.72	7.8524e-07
2510.4	1.03528e-06
2519.08	1.24902e-06
2527.75	9.92519e-07
2536.43	6.77645e-07
2545.11	4.36733e-07
2553.79	3.21148e-07
2562.47	2.98872e-07
2571.14	2.20809e-07
2579.82	1.06898e-07
2588.5	3.99143e-08
2597.18	9.34345e-08
2605.86	1.50147e-07
2614.54	2.06463e-07
2623.21	1.9568e-07
2631.89	1.20135e-07
2640.57	1.02631e-07
2649.25	2.149e-07
2657.93	4.68483e-07
2666.6	7.72041e-07
2675.28	9.70151e-07
2683.96	9.88213e-07
2692.64	9.09852e-07
2701.32	8.60448e-07
2709.99	8.87232e-07
2718.67	1.03729e-06
2727.35	1.22278e-06
2736.03	1.79381e-06
2744.71	2.47455e-06
2753.39	2.74671e-06
2762.06	2.7501e-06
2770.74	2.24229e-06
2779.42	2.58888e-06
2788.1	3.70042e-06
2796.78	5.74935e-06
2805.45	7.80987e-06
2814.13	1.09594e-05
2822.81	1.25767e-05
2831.49	1.43521e-05
2840.17	1.52611e-05
2848.85	1.49384e-05
2857.52	1.52493e-05
2866.2	1.70048e-05
2874.88	2.98064e-05
2883.56	5.77801e-05
2892.24	8.51247e-05
2900.91	0.000108586
2909.59	0.000115974
2918.27	0.00013724
2926.95	0.00011064
2935.63	0.000114124
2944.31	0.000124645
2952.98	0.000117857
2961.66	0.000129381
2970.34	0.000135223
2979.02	0.000176132
2987.7	0.000192801
2996.37	0.000189952
3005.05	0.000131514
3013.73	8.41751e-05
3022.41	5.34878e-05
3031.09	3.15196e-05
3039.76	2.19938e-05
3048.44	1.9403e-05
3057.12	1.76565e-05
3065.8	1.56896e-05
3074.48	1.32098e-05
3083.16	1.04104e-05
3091.83	7.84692e-06
3100.51	6.12447e-06
3109.19	4.85763e-06
3117.87	3.69117e-06
3126.55	2.77271e-06
3135.22	2.3624e-06
3143.9	2.26165e-06
3152.58	2.40617e-06
3161.26	2.55494e-06
3169.94	3.11874e-06
3178.62	2.89508e-06
3187.29	2.84585e-06
3195.97	1.95632e-06
3204.65	1.21317e-06
3213.33	7.19248e-07
3222.01	4.96952e-07
3230.68	6.77218e-07
3239.36	6.09794e-07
3248.04	4.94918e-07
3256.72	1.69199e-07
3265.4	-1.68655e-07
3274.07	-1.65976e-07
3282.75	-2.67554e-07
3291.43	-3.25748e-07
3300.11	-2.09225e-07
3308.79	-1.70223e-07
3317.47	-1.48474e-07
3326.14	-1.54415e-07
3334.82	-1.8024e-07
3343.5	-2.30721e-07
3352.18	-1.659e-07
3360.86	1.49066e-07
3369.53	2.80662e-07
3378.21	4.12605e-07
3386.89	4.71653e-07
3395.57	2.76049e-07
3404.25	2.71054e-07
3412.93	4.14216e-07
3421.6	1.19966e-06
3430.28	2.82977e-06
3438.96	5.36361e-06
3447.64	8.96155e-06
3456.32	1.01237e-05
3464.99	9.9661e-06
3473.67	7.01085e-06
3482.35	2.67303e-06
3491.03	4.95147e-07
3499.71	-3.92856e-07
3508.39	-7.35845e-07
3517.06	-8.14317e-07
3525.74	-8.06085e-07
3534.42	-8.08723e-07
3543.1	-7.45687e-07
3551.78	-4.58105e-07
3560.45	-2.62003e-07
3569.13	2.19805e-07
3577.81	7.90702e-08
3586.49	7.7101e-07
3595.17	4.07704e-07
3603.84	-2.01256e-07
3612.52	4.14074e-07
3621.2	-2.02205e-07
3629.88	1.30198e-06
3638.56	-2.04084e-07
3647.24	7.96142e-07
3655.91	9.10057e-07
3664.59	-8.28973e-08
3673.27	3.3236e-08
3681.95	-1.90272e-07
3690.63	1.2582e-07
3699.3	-2.42198e-07
3707.98	-1.3427e-07
3716.66	-2.96435e-07
3725.34	-1.56058e-08
3734.02	1.95416e-07
3742.7	1.15922e-08
3751.37	3.81981e-07
3760.05	3.7673e-07
3768.73	-2.33966e-07
3777.41	-3.50744e-07
3786.09	-3.07775e-07
3794.76	-2.69792e-07
3803.44	-5.38412e-08
3812.12	-1.90807e-07
3820.8	1.20128e-06
3829.48	2.99792e-08
3838.16	2.84509e-06
3846.83	2.72535e-07
3855.51	6.60685e-07
3864.19	8.04886e-07
3872.87	5.97384e-07
3881.55	5.59119e-07
3890.22	2.69798e-07
3898.9	6.50346e-07
3907.58	3.97943e-08
3916.26	1.40147e-07
3924.94	2.60294e-07
3933.61	8.20014e-08
3942.29	2.65961e-07
3950.97	9.01449e-08
3959.65	2.49366e-07
3968.33	3.71882e-07
