Infrared Spectrum: 2-Butanone
Formula: C H3 C H2 C O C H3
CAS: 78-93-3
State: gas
Melting point: -86.35 C
Boiling point: 79.6 C
Class: IUPAC A
Instrument: IFS66V (Bruker)
Instrument parameters: KBr Beam splitter; MCT Detector; Multipass cell
Sampling: 1 L/min Flow
Resolution: 0.9640
Temperature: 23 C
Pressure: 101.3 kPa
Origin: NIST, Anayltical Chemistry Division, 301-975-3108
cm-1	(micromol/mol)-1m-1 (base 10)
575.169	2.15555e-05
583.847	2.84306e-05
592.525	2.94547e-05
601.203	2.12936e-05
609.882	4.1241e-06
618.56	1.08789e-06
627.238	8.22305e-07
635.916	4.59866e-07
644.594	4.91216e-07
653.272	8.79464e-07
661.951	6.13926e-07
670.629	5.07166e-07
679.307	2.54228e-07
687.985	1.27469e-07
696.663	1.05244e-07
705.341	1.72159e-07
714.019	2.79128e-07
722.698	1.21088e-06
731.376	3.96964e-06
740.054	9.53196e-06
748.732	1.98667e-05
757.41	1.93764e-05
766.088	1.78672e-05
774.767	7.23464e-06
783.445	2.45543e-06
792.123	1.37984e-06
800.801	8.70155e-07
809.479	5.73536e-07
818.157	5.27812e-07
826.835	2.55492e-07
835.514	4.74518e-07
844.192	4.0355e-07
852.87	3.63165e-07
861.548	5.50958e-07
870.226	8.25259e-07
878.904	1.32745e-06
887.583	1.98542e-06
896.261	3.55814e-06
904.939	6.8119e-06
913.617	1.42792e-05
922.295	2.64011e-05
930.973	4.22156e-05
939.651	5.24388e-05
948.33	5.19743e-05
957.008	3.7658e-05
965.686	2.32492e-05
974.364	1.76819e-05
983.042	1.63276e-05
991.72	1.41554e-05
1000.4	1.23668e-05
1009.08	7.70024e-06
1017.75	5.12839e-06
1026.43	3.69653e-06
1035.11	2.88879e-06
1043.79	3.19772e-06
1052.47	4.01467e-06
1061.15	6.28974e-06
1069.82	1.06395e-05
1078.5	1.5914e-05
1087.18	1.54036e-05
1095.86	1.50575e-05
1104.54	1.03417e-05
1113.21	9.15432e-06
1121.89	1.01519e-05
1130.57	1.33063e-05
1139.25	2.414e-05
1147.93	7.09798e-05
1156.61	0.000162757
1165.28	0.00024197
1173.96	0.000267129
1182.64	0.00019329
1191.32	0.000123672
1200	7.10767e-05
1208.67	4.86908e-05
1217.35	2.91075e-05
1226.03	1.5324e-05
1234.71	1.15509e-05
1243.39	1.20877e-05
1252.07	1.39447e-05
1260.74	1.41091e-05
1269.42	1.31453e-05
1278.1	1.0434e-05
1286.78	8.80101e-06
1295.46	1.0258e-05
1304.13	1.52271e-05
1312.81	2.26949e-05
1321.49	3.2557e-05
1330.17	4.7191e-05
1338.85	6.88686e-05
1347.52	0.000113031
1356.2	0.000201349
1364.88	0.000232005
1373.56	0.000231594
1382.24	0.000118476
1390.92	6.27772e-05
1399.59	5.54344e-05
1408.27	6.02454e-05
1416.95	7.74692e-05
1425.63	7.68068e-05
1434.31	8.5972e-05
1442.98	7.89749e-05
1451.66	7.87978e-05
1460.34	8.83166e-05
1469.02	7.04531e-05
1477.7	5.9599e-05
1486.38	3.18306e-05
1495.05	2.01825e-05
1503.73	1.61051e-05
1512.41	1.69501e-05
1521.09	1.94643e-05
1529.77	1.39441e-05
1538.44	1.19094e-05
1547.12	1.03327e-05
1555.8	8.31104e-06
1564.48	7.91928e-06
1573.16	6.63975e-06
1581.83	5.50112e-06
1590.51	4.68609e-06
1599.19	4.01159e-06
1607.87	3.49873e-06
1616.55	8.41041e-06
1625.23	3.04796e-06
1633.9	3.29725e-06
1642.58	4.01531e-06
1651.26	4.82542e-06
1659.94	4.70652e-06
1668.62	6.37754e-06
1677.29	1.00025e-05
1685.97	1.80095e-05
1694.65	3.00824e-05
1703.33	5.84373e-05
1712.01	0.000126512
1720.69	0.000276643
1729.36	0.000494011
1738.04	0.000456742
1746.72	0.000556782
1755.4	0.000317104
1764.08	0.000134903
1772.75	5.55178e-05
1781.43	2.24601e-05
1790.11	1.0811e-05
1798.79	7.27014e-06
1807.47	4.97662e-06
1816.15	2.4135e-06
1824.82	1.87868e-06
1833.5	1.49057e-06
1842.18	1.6899e-06
1850.86	1.72075e-06
1859.54	2.12578e-06
1868.21	2.95033e-06
1876.89	2.8906e-06
1885.57	2.82798e-06
1894.25	2.57585e-06
1902.93	1.99597e-06
1911.6	1.58205e-06
1920.28	1.43917e-06
1928.96	1.30856e-06
1937.64	1.1204e-06
1946.32	1.1399e-06
1955	9.60479e-07
1963.67	6.16907e-07
1972.35	3.62568e-07
1981.03	5.50537e-07
1989.71	5.83253e-07
1998.39	6.64531e-07
2007.06	4.30254e-07
2015.74	2.72286e-07
2024.42	1.34708e-07
2033.1	1.47321e-07
2041.78	1.51762e-07
2050.46	1.89341e-07
2059.13	3.11031e-07
2067.81	5.19018e-07
2076.49	8.61328e-07
2085.17	1.41966e-06
2093.85	2.12772e-06
2102.52	2.73125e-06
2111.2	3.25197e-06
2119.88	3.25315e-06
2128.56	2.74837e-06
2137.24	1.82016e-06
2145.91	9.37758e-07
2154.59	6.28237e-07
2163.27	6.71008e-07
2171.95	6.84162e-07
2180.63	5.15558e-07
2189.31	2.45785e-07
2197.98	2.35865e-08
2206.66	-5.37293e-08
2215.34	2.19912e-09
2224.02	-6.73534e-08
2232.7	-7.49484e-08
2241.37	-1.38665e-07
2250.05	-8.45498e-08
2258.73	5.06671e-09
2267.41	3.38699e-07
2276.09	6.78197e-07
2284.77	1.15772e-06
2293.44	1.35271e-06
2302.12	1.33701e-06
2310.8	1.20479e-06
2319.48	1.0382e-06
2328.16	9.42154e-07
2336.83	5.64835e-07
2345.51	8.11735e-07
2354.19	1.28785e-06
2362.87	2.10457e-06
2371.55	1.49568e-06
2380.23	9.27879e-07
2388.9	6.5992e-07
2397.58	4.6595e-07
2406.26	4.09766e-07
2414.94	3.23146e-07
2423.62	2.75186e-07
2432.29	1.93211e-07
2440.97	1.84302e-07
2449.65	2.38245e-07
2458.33	3.56272e-07
2467.01	5.18886e-07
2475.68	6.4621e-07
2484.36	4.35162e-07
2493.04	4.19228e-07
2501.72	7.9028e-07
2510.4	1.00793e-06
2519.08	1.26074e-06
2527.75	9.90739e-07
2536.43	6.5122e-07
2545.11	4.10771e-07
2553.79	3.06399e-07
2562.47	3.08694e-07
2571.14	1.97092e-07
2579.82	7.32686e-08
2588.5	1.80595e-08
2597.18	8.6075e-08
2605.86	1.5166e-07
2614.54	1.76236e-07
2623.21	1.62469e-07
2631.89	1.20693e-07
2640.57	5.7038e-08
2649.25	1.90477e-07
2657.93	4.57387e-07
2666.6	7.48428e-07
2675.28	9.52339e-07
2683.96	9.74802e-07
2692.64	8.76907e-07
2701.32	8.51615e-07
2709.99	8.90457e-07
2718.67	1.02003e-06
2727.35	1.17303e-06
2736.03	1.78485e-06
2744.71	2.43912e-06
2753.39	2.67648e-06
2762.06	2.72548e-06
2770.74	2.23213e-06
2779.42	2.54608e-06
2788.1	3.61057e-06
2796.78	5.71368e-06
2805.45	7.72436e-06
2814.13	1.08795e-05
2822.81	1.25209e-05
2831.49	1.43218e-05
2840.17	1.52041e-05
2848.85	1.48701e-05
2857.52	1.5024e-05
2866.2	1.67219e-05
2874.88	2.94654e-05
2883.56	5.79943e-05
2892.24	8.55785e-05
2900.91	0.000109122
2909.59	0.000116162
2918.27	0.000138494
2926.95	0.000110475
2935.63	0.000114141
2944.31	0.000124897
2952.98	0.000117227
2961.66	0.000129734
2970.34	0.0001351
2979.02	0.000176769
2987.7	0.000192352
2996.37	0.000190697
3005.05	0.000131725
3013.73	8.46102e-05
3022.41	5.33163e-05
3031.09	3.12004e-05
3039.76	2.17272e-05
3048.44	1.92883e-05
3057.12	1.75768e-05
3065.8	1.56142e-05
3074.48	1.3131e-05
3083.16	1.03134e-05
3091.83	7.8005e-06
3100.51	6.09965e-06
3109.19	4.84773e-06
3117.87	3.64955e-06
3126.55	2.63287e-06
3135.22	2.35759e-06
3143.9	2.25387e-06
3152.58	2.3793e-06
3161.26	2.4816e-06
3169.94	3.16867e-06
3178.62	2.87769e-06
3187.29	2.73583e-06
3195.97	1.99352e-06
3204.65	1.19784e-06
3213.33	7.24589e-07
3222.01	4.24475e-07
3230.68	6.54767e-07
3239.36	6.34529e-07
3248.04	5.04372e-07
3256.72	1.92496e-07
3265.4	-1.81204e-07
3274.07	-2.09922e-07
3282.75	-2.85025e-07
3291.43	-3.63155e-07
3300.11	-2.45781e-07
3308.79	-1.9072e-07
3317.47	-1.65487e-07
3326.14	-1.75412e-07
3334.82	-2.11435e-07
3343.5	-3.22732e-07
3352.18	-1.9807e-07
3360.86	2.13564e-07
3369.53	1.73759e-07
3378.21	3.79479e-07
3386.89	4.74709e-07
3395.57	2.07155e-07
3404.25	2.06839e-07
3412.93	3.75697e-07
3421.6	1.19869e-06
3430.28	2.76506e-06
3438.96	5.36991e-06
3447.64	9.0243e-06
3456.32	1.01316e-05
3464.99	1.00316e-05
3473.67	7.04781e-06
3482.35	2.68409e-06
3491.03	4.94999e-07
3499.71	-4.09731e-07
3508.39	-8.00837e-07
3517.06	-8.36441e-07
3525.74	-8.38363e-07
3534.42	-7.78475e-07
3543.1	-7.42529e-07
3551.78	-4.90427e-07
3560.45	-1.87222e-07
3569.13	2.66884e-07
3577.81	9.83493e-08
3586.49	1.2938e-06
3595.17	5.64968e-07
3603.84	-2.5851e-07
3612.52	1.03225e-06
3621.2	-2.75986e-07
3629.88	1.72858e-06
3638.56	-1.84027e-07
3647.24	1.28519e-06
3655.91	7.14355e-07
3664.59	-1.9067e-07
3673.27	-5.88037e-07
3681.95	-2.9863e-07
3690.63	-2.33063e-08
3699.3	-1.8712e-07
3707.98	-1.20379e-08
3716.66	-3.939e-07
3725.34	2.99837e-08
3734.02	-2.51488e-07
3742.7	-5.56684e-08
3751.37	-2.68607e-07
3760.05	7.75062e-07
3768.73	-7.95777e-08
3777.41	-3.95755e-07
3786.09	-4.21353e-07
3794.76	-4.29345e-07
3803.44	-1.27622e-07
3812.12	-3.65011e-08
3820.8	1.97176e-06
3829.48	-7.26302e-08
3838.16	3.88889e-06
3846.83	3.5277e-07
3855.51	5.19735e-07
3864.19	8.47848e-07
3872.87	4.15001e-07
3881.55	6.10367e-07
3890.22	3.68058e-07
3898.9	3.34448e-07
3907.58	-3.43947e-08
3916.26	3.23283e-07
3924.94	3.54791e-07
3933.61	2.84986e-08
3942.29	2.1201e-07
3950.97	8.59604e-08
3959.65	2.56991e-07
3968.33	3.7357e-07
