Infrared Spectrum: 2-Butanone
Formula: C H3 C H2 C O C H3
CAS: 78-93-3
State: gas
Melting point: -86.35 C
Boiling point: 79.6 C
Class: IUPAC A
Instrument: IFS66V (Bruker)
Instrument parameters: KBr Beam splitter; MCT Detector; Multipass cell
Sampling: 1 L/min Flow
Resolution: 0.9640
Temperature: 23 C
Pressure: 101.3 kPa
Origin: NIST, Anayltical Chemistry Division, 301-975-3108
cm-1	(micromol/mol)-1m-1 (base 10)
575.169	2.17028e-05
583.847	2.89998e-05
592.525	2.97622e-05
601.203	2.12686e-05
609.882	4.42742e-06
618.56	1.11536e-06
627.238	6.87109e-07
635.916	5.29995e-07
644.594	4.78703e-07
653.272	9.67013e-07
661.951	5.95483e-07
670.629	4.7286e-07
679.307	3.23772e-07
687.985	1.57695e-07
696.663	1.67226e-07
705.341	1.55928e-07
714.019	3.8873e-07
722.698	1.25769e-06
731.376	3.94028e-06
740.054	9.5482e-06
748.732	1.98149e-05
757.41	1.94435e-05
766.088	1.78601e-05
774.767	7.22713e-06
783.445	2.50726e-06
792.123	1.42906e-06
800.801	9.38658e-07
809.479	6.11533e-07
818.157	4.64224e-07
826.835	2.97625e-07
835.514	4.66198e-07
844.192	4.17593e-07
852.87	3.87564e-07
861.548	5.76158e-07
870.226	8.31407e-07
878.904	1.30491e-06
887.583	2.03151e-06
896.261	3.5321e-06
904.939	6.79944e-06
913.617	1.42612e-05
922.295	2.62939e-05
930.973	4.22397e-05
939.651	5.27362e-05
948.33	5.18859e-05
957.008	3.76878e-05
965.686	2.32448e-05
974.364	1.77013e-05
983.042	1.63389e-05
991.72	1.41931e-05
1000.4	1.23505e-05
1009.08	7.66956e-06
1017.75	5.17481e-06
1026.43	3.68948e-06
1035.11	2.9088e-06
1043.79	3.18152e-06
1052.47	4.05698e-06
1061.15	6.31927e-06
1069.82	1.06219e-05
1078.5	1.58762e-05
1087.18	1.54318e-05
1095.86	1.50146e-05
1104.54	1.03254e-05
1113.21	9.19843e-06
1121.89	1.01406e-05
1130.57	1.32725e-05
1139.25	2.41603e-05
1147.93	7.10633e-05
1156.61	0.000162647
1165.28	0.000241981
1173.96	0.000267247
1182.64	0.000193364
1191.32	0.000123699
1200	7.10726e-05
1208.67	4.86883e-05
1217.35	2.91514e-05
1226.03	1.53395e-05
1234.71	1.16025e-05
1243.39	1.20779e-05
1252.07	1.39576e-05
1260.74	1.41665e-05
1269.42	1.31334e-05
1278.1	1.04851e-05
1286.78	8.78754e-06
1295.46	1.02702e-05
1304.13	1.52441e-05
1312.81	2.27087e-05
1321.49	3.25918e-05
1330.17	4.72781e-05
1338.85	6.89721e-05
1347.52	0.000113082
1356.2	0.000201292
1364.88	0.000232402
1373.56	0.000231053
1382.24	0.00011852
1390.92	6.28552e-05
1399.59	5.54585e-05
1408.27	6.02387e-05
1416.95	7.76125e-05
1425.63	7.68468e-05
1434.31	8.59382e-05
1442.98	7.89352e-05
1451.66	7.88576e-05
1460.34	8.82113e-05
1469.02	7.04172e-05
1477.7	5.9551e-05
1486.38	3.18696e-05
1495.05	1.98235e-05
1503.73	1.61797e-05
1512.41	1.64434e-05
1521.09	1.83641e-05
1529.77	1.39862e-05
1538.44	1.36611e-05
1547.12	1.0239e-05
1555.8	8.6402e-06
1564.48	7.70284e-06
1573.16	6.30993e-06
1581.83	5.48108e-06
1590.51	4.66897e-06
1599.19	3.92481e-06
1607.87	3.47675e-06
1616.55	6.65071e-06
1625.23	3.29623e-06
1633.9	3.46929e-06
1642.58	3.85224e-06
1651.26	4.12403e-06
1659.94	4.92345e-06
1668.62	7.0791e-06
1677.29	9.99207e-06
1685.97	1.73828e-05
1694.65	2.9629e-05
1703.33	5.85001e-05
1712.01	0.000126621
1720.69	0.000276641
1729.36	0.000493932
1738.04	0.000457602
1746.72	0.000556604
1755.4	0.000317218
1764.08	0.000134905
1772.75	5.40981e-05
1781.43	2.26798e-05
1790.11	1.0918e-05
1798.79	7.41827e-06
1807.47	4.88255e-06
1816.15	2.36688e-06
1824.82	1.95561e-06
1833.5	1.42839e-06
1842.18	1.55115e-06
1850.86	1.73143e-06
1859.54	2.13889e-06
1868.21	2.79829e-06
1876.89	2.89051e-06
1885.57	2.85483e-06
1894.25	2.62e-06
1902.93	2.02525e-06
1911.6	1.63703e-06
1920.28	1.39038e-06
1928.96	1.31397e-06
1937.64	1.12503e-06
1946.32	1.09768e-06
1955	9.33332e-07
1963.67	6.36398e-07
1972.35	3.78452e-07
1981.03	5.38172e-07
1989.71	5.70317e-07
1998.39	6.79231e-07
2007.06	4.32557e-07
2015.74	2.5602e-07
2024.42	1.25698e-07
2033.1	1.37447e-07
2041.78	1.79547e-07
2050.46	1.83289e-07
2059.13	3.20499e-07
2067.81	5.13787e-07
2076.49	8.67908e-07
2085.17	1.40926e-06
2093.85	2.10593e-06
2102.52	2.7381e-06
2111.2	3.2743e-06
2119.88	3.24764e-06
2128.56	2.75162e-06
2137.24	1.80259e-06
2145.91	9.27652e-07
2154.59	6.56844e-07
2163.27	6.57391e-07
2171.95	7.19805e-07
2180.63	4.8631e-07
2189.31	2.48668e-07
2197.98	4.1184e-08
2206.66	-3.88575e-08
2215.34	2.00177e-09
2224.02	-5.75874e-08
2232.7	-1.00179e-07
2241.37	-1.27871e-07
2250.05	-8.96174e-08
2258.73	1.54684e-08
2267.41	3.16588e-07
2276.09	6.99238e-07
2284.77	1.15398e-06
2293.44	1.38264e-06
2302.12	1.35621e-06
2310.8	1.21365e-06
2319.48	1.06108e-06
2328.16	9.79215e-07
2336.83	8.18906e-07
2345.51	8.44469e-07
2354.19	1.1786e-06
2362.87	1.60465e-06
2371.55	1.24015e-06
2380.23	9.18948e-07
2388.9	6.46969e-07
2397.58	4.74984e-07
2406.26	3.99368e-07
2414.94	3.21159e-07
2423.62	2.81296e-07
2432.29	2.12931e-07
2440.97	1.95989e-07
2449.65	2.06933e-07
2458.33	3.75504e-07
2467.01	5.03477e-07
2475.68	6.15498e-07
2484.36	4.49954e-07
2493.04	4.27678e-07
2501.72	7.78531e-07
2510.4	1.02814e-06
2519.08	1.24933e-06
2527.75	9.8797e-07
2536.43	6.64321e-07
2545.11	4.26611e-07
2553.79	3.08035e-07
2562.47	2.86172e-07
2571.14	2.07369e-07
2579.82	9.38247e-08
2588.5	2.10345e-08
2597.18	7.95231e-08
2605.86	1.3669e-07
2614.54	1.96292e-07
2623.21	1.85307e-07
2631.89	1.03493e-07
2640.57	8.44643e-08
2649.25	1.97273e-07
2657.93	4.48867e-07
2666.6	7.5533e-07
2675.28	9.54813e-07
2683.96	9.72056e-07
2692.64	8.96175e-07
2701.32	8.39003e-07
2709.99	8.61419e-07
2718.67	1.0127e-06
2727.35	1.19271e-06
2736.03	1.76638e-06
2744.71	2.45486e-06
2753.39	2.71653e-06
2762.06	2.72328e-06
2770.74	2.18999e-06
2779.42	2.53095e-06
2788.1	3.63698e-06
2796.78	5.69907e-06
2805.45	7.74992e-06
2814.13	1.09337e-05
2822.81	1.25316e-05
2831.49	1.4304e-05
2840.17	1.52011e-05
2848.85	1.48295e-05
2857.52	1.50818e-05
2866.2	1.67055e-05
2874.88	2.94741e-05
2883.56	5.78895e-05
2892.24	8.55915e-05
2900.91	0.000109043
2909.59	0.000116171
2918.27	0.000138268
2926.95	0.000110569
2935.63	0.000114066
2944.31	0.000124814
2952.98	0.000117283
2961.66	0.000129567
2970.34	0.000135116
2979.02	0.000176759
2987.7	0.000192644
2996.37	0.00019057
3005.05	0.00013171
3013.73	8.43367e-05
3022.41	5.33202e-05
3031.09	3.11825e-05
3039.76	2.17333e-05
3048.44	1.9243e-05
3057.12	1.75536e-05
3065.8	1.56142e-05
3074.48	1.31376e-05
3083.16	1.03409e-05
3091.83	7.77494e-06
3100.51	6.06411e-06
3109.19	4.80205e-06
3117.87	3.63709e-06
3126.55	2.71772e-06
3135.22	2.30874e-06
3143.9	2.21557e-06
3152.58	2.37254e-06
3161.26	2.52135e-06
3169.94	3.11479e-06
3178.62	2.8745e-06
3187.29	2.8376e-06
3195.97	1.93971e-06
3204.65	1.18815e-06
3213.33	6.9716e-07
3222.01	4.74615e-07
3230.68	6.63572e-07
3239.36	5.95749e-07
3248.04	4.85469e-07
3256.72	1.55718e-07
3265.4	-1.97928e-07
3274.07	-1.8215e-07
3282.75	-2.81318e-07
3291.43	-3.45803e-07
3300.11	-2.13568e-07
3308.79	-1.78628e-07
3317.47	-1.57918e-07
3326.14	-1.61985e-07
3334.82	-1.84832e-07
3343.5	-2.4162e-07
3352.18	-1.8866e-07
3360.86	1.47766e-07
3369.53	2.60203e-07
3378.21	4.01245e-07
3386.89	4.55399e-07
3395.57	2.54859e-07
3404.25	2.49108e-07
3412.93	3.86766e-07
3421.6	1.17186e-06
3430.28	2.81896e-06
3438.96	5.35055e-06
3447.64	9.01749e-06
3456.32	1.01805e-05
3464.99	1.00402e-05
3473.67	7.04265e-06
3482.35	2.64236e-06
3491.03	4.646e-07
3499.71	-4.19195e-07
3508.39	-7.60292e-07
3517.06	-8.27098e-07
3525.74	-8.21177e-07
3534.42	-8.28952e-07
3543.1	-7.5964e-07
3551.78	-4.58539e-07
3560.45	-2.71799e-07
3569.13	2.10472e-07
3577.81	6.79154e-08
3586.49	8.03881e-07
3595.17	4.218e-07
3603.84	-2.196e-07
3612.52	4.5813e-07
3621.2	-2.54938e-07
3629.88	1.38134e-06
3638.56	-2.05151e-07
3647.24	8.52388e-07
3655.91	9.94405e-07
3664.59	-1.08283e-07
3673.27	-8.35276e-08
3681.95	-2.24161e-07
3690.63	1.47559e-07
3699.3	-2.56227e-07
3707.98	-1.76558e-07
3716.66	-3.28121e-07
3725.34	-3.72168e-08
3734.02	1.52937e-07
3742.7	-9.36355e-08
3751.37	4.01594e-07
3760.05	4.18989e-07
3768.73	-2.66381e-07
3777.41	-3.66559e-07
3786.09	-3.25473e-07
3794.76	-3.01776e-07
3803.44	-7.99497e-08
3812.12	-2.00608e-07
3820.8	1.27692e-06
3829.48	-5.33137e-09
3838.16	3.06795e-06
3846.83	2.55813e-07
3855.51	4.78858e-07
3864.19	8.17763e-07
3872.87	5.4442e-07
3881.55	5.30646e-07
3890.22	2.30438e-07
3898.9	6.99884e-07
3907.58	8.24898e-09
3916.26	1.32646e-07
3924.94	2.71372e-07
3933.61	6.85493e-08
3942.29	2.81556e-07
3950.97	7.61799e-08
3959.65	2.42947e-07
3968.33	3.63738e-07
