Infrared Spectrum: TRIPHENYLSILANE
Formula: C18 H16 Si
CAS: 789-25-3
State: SOLUTION (10% IN CCl4 FOR 3800-1300, 2% IN CS2 FOR 1300-650, AND 10% IN CCl4 FOR 650-250)
Melting point: 43-44 C
Class: COBLENTZ II
Instrument: PERKIN-ELMER 521 (GRATING)
Instrument parameters: FILTERS AT 3150, 2500, 2000, 1150, 700, 410. GRATING CHANGES: 2000, 630 CM^-^1
Sampling: TRANSMISSION
Path length: 0.011 CM, 0.011 CM, AND 0.020 CM
Resolution: 2
Origin: DOW CORNING CORP.
1/CM	TRANSMITTANCE
261.91	0.821
271.116	0.821
280.322	0.807
289.528	0.807
298.734	0.819
307.94	0.822
317.146	0.83
326.352	0.837
335.558	0.834
344.764	0.825
353.97	0.817
363.176	0.788
372.382	0.741
381.588	0.682
390.794	0.668
400	0.683
409.206	0.608
418.412	0.417
427.618	0.435
436.824	0.629
446.03	0.658
455.236	0.6
464.442	0.342
473.648	0.113
482.854	0.061
492.06	0.058
501.266	0.188
510.472	0.543
519.678	0.622
528.884	0.751
538.09	0.776
547.296	0.775
556.502	0.789
565.708	0.791
574.914	0.796
584.12	0.799
593.326	0.802
602.532	0.809
611.738	0.784
620.944	0.796
630.15	0.78
639.356	0.773
648.562	0.783
657.768	0.82
666.974	0.799
676.18	0.775
685.386	0.781
694.592	0.5079
703.798	0.558
713.004	0.738
722.21	0.609
731.416	0.341
740.622	0.6401
749.828	0.811
759.034	0.814
768.24	0.81
777.446	0.791
786.652	0.725
795.858	0.458
805.064	0.27
814.27	0.61
823.476	0.774
832.682	0.805
841.888	0.809
851.094	0.815
860.3	0.83
869.506	0.831
878.712	0.837
887.918	0.836
897.124	0.831
906.33	0.832
915.536	0.834
924.742	0.834
933.948	0.836
943.154	0.836
952.36	0.834
961.566	0.83
970.772	0.829
979.978	0.824
989.184	0.812
998.39	0.806
1007.6	0.801
1016.8	0.796
1026.01	0.765
1035.21	0.795
1044.42	0.796
1053.63	0.784
1062.83	0.768
1072.04	0.779
1081.24	0.769
1090.45	0.745
1099.66	0.69
1108.86	0.553
1118.07	0.576
1127.27	0.748
1136.48	0.795
1145.69	0.798
1154.89	0.8
1164.1	0.809
1173.3	0.8
1182.51	0.794
1191.72	0.824
1200.92	0.834
1210.13	0.835
1219.33	0.835
1228.54	0.835
1237.75	0.835
1246.95	0.827
1256.16	0.812
1265.36	0.807
1274.57	0.82
1283.78	0.83
1292.98	0.807
1302.19	0.81
1311.39	0.815
1320.6	0.763
1329.81	0.7761
1339.01	0.855
1348.22	0.859
1357.42	0.86
1366.63	0.819
1375.84	0.834
1385.04	0.861
1394.25	0.864
1403.45	0.856
1412.66	0.817
1421.87	0.5518
1431.07	0.345
1440.28	0.835
1449.48	0.845
1458.69	0.841
1467.9	0.831
1477.1	0.753
1486.31	0.6641
1495.51	0.857
1504.72	0.867
1513.93	0.866
1523.13	0.866
1532.34	0.862
1541.54	0.857
1550.75	0.851
1559.96	0.8359
1569.16	0.83
1578.37	0.794
1587.57	0.6242
1596.78	0.845
1605.99	0.839
1615.19	0.842
1624.4	0.861
1633.6	0.849
1642.81	0.816
1652.02	0.83
1661.22	0.855
1670.43	0.86
1679.63	0.865
1688.84	0.866
1698.05	0.866
1707.25	0.865
1716.46	0.864
1725.66	0.865
1734.87	0.865
1744.08	0.864
1753.28	0.851
1762.49	0.826
1771.69	0.834
1780.9	0.861
1790.11	0.861
1799.31	0.85
1808.52	0.821
1817.72	0.766
1826.93	0.821
1836.14	0.846
1845.34	0.866
1854.55	0.866
1863.75	0.861
1872.96	0.8299
1882.17	0.771
1891.37	0.8
1900.58	0.811
1909.78	0.861
1918.99	0.87
1928.2	0.867
1937.4	0.857
1946.61	0.804
1955.81	0.79
1965.02	0.802
1974.23	0.856
1983.43	0.867
1992.64	0.874
2001.84	0.86
2011.05	0.869
2020.26	0.872
2029.46	0.872
2038.67	0.872
2047.87	0.8709
2057.08	0.8688
2066.29	0.8646
2075.49	0.8536
2084.7	0.8384
2093.9	0.8054
2103.11	0.7127
2112.32	0.5757
2121.52	0.2818
2130.73	0.2485
2139.93	0.3113
2149.14	0.5081
2158.35	0.652
2167.55	0.7668
2176.76	0.8016
2185.96	0.8347
2195.17	0.8497
2204.38	0.8564
2213.58	0.8514
2222.79	0.8582
2232	0.8577
2241.2	0.865
2250.41	0.8645
2259.61	0.861
2268.82	0.866
2278.03	0.8645
2287.23	0.8631
2296.44	0.865
2305.64	0.864
2314.85	0.856
2324.06	0.8628
2333.26	0.865
2342.47	0.862
2351.67	0.8633
2360.88	0.868
2370.09	0.865
2379.29	0.865
2388.5	0.865
2397.7	0.866
2406.91	0.8658
2416.12	0.869
2425.32	0.865
2434.53	0.8686
2443.73	0.8662
2452.94	0.8687
2462.15	0.869
2471.35	0.8651
2480.56	0.8669
2489.76	0.8641
2498.97	0.862
2508.18	0.8641
2517.38	0.865
2526.59	0.865
2535.79	0.862
2545	0.8601
2554.21	0.8639
2563.41	0.861
2572.62	0.864
2581.82	0.852
2591.03	0.859
2600.24	0.8624
2609.44	0.8567
2618.65	0.8575
2627.85	0.865
2637.06	0.8658
2646.27	0.8642
2655.47	0.8658
2664.68	0.864
2673.88	0.861
2683.09	0.8547
2692.3	0.854
2701.5	0.856
2710.71	0.8597
2719.91	0.864
2729.12	0.8654
2738.33	0.865
2747.53	0.8654
2756.74	0.8666
2765.94	0.866
2775.15	0.865
2784.36	0.8645
2793.56	0.864
2802.77	0.8605
2811.97	0.859
2821.18	0.8605
2830.39	0.8631
2839.59	0.861
2848.8	0.8606
2858	0.864
2867.21	0.8614
2876.42	0.8604
2885.62	0.856
2894.83	0.8513
2904.03	0.8356
2913.24	0.8364
2922.45	0.854
2931.65	0.855
2940.86	0.8525
2950.06	0.8474
2959.27	0.8366
2968.48	0.8262
2977.68	0.8107
2986.89	0.7841
2996.09	0.6895
3005.3	0.5
3014.51	0.502
3023.71	0.5216
3032.92	0.662
3042.12	0.5972
3051.33	0.4156
3060.54	0.3992
3069.74	0.3538
3078.95	0.4458
3088.15	0.619
3097.36	0.7278
3106.57	0.8551
3115.77	0.859
3124.98	0.8508
3134.18	0.8118
3143.39	0.8582
3152.6	0.872
3161.8	0.874
3171.01	0.874
3180.21	0.877
3189.42	0.88
3198.63	0.882
3207.83	0.882
3217.04	0.885
3226.24	0.885
3235.45	0.885
3244.66	0.8853
3253.86	0.886
3263.07	0.887
3272.27	0.887
3281.48	0.886
3290.69	0.886
3299.89	0.886
3309.1	0.886
3318.3	0.885
3327.51	0.885
3336.72	0.885
3345.92	0.884
3355.13	0.884
3364.33	0.884
3373.54	0.882
3382.75	0.8804
3391.95	0.8806
3401.16	0.882
3410.36	0.8804
3419.57	0.88
3428.78	0.881
3437.98	0.881
3447.19	0.88
3456.39	0.881
3465.6	0.882
3474.81	0.884
3484.01	0.884
3493.22	0.882
3502.42	0.882
3511.63	0.882
3520.84	0.881
3530.04	0.882
3539.25	0.884
3548.45	0.882
3557.66	0.882
3566.87	0.886
3576.07	0.89
3585.28	0.894
3594.48	0.885
3603.69	0.879
3612.9	0.877
3622.1	0.881
3631.31	0.8769
3640.51	0.8791
3649.72	0.881
3658.93	0.8788
3668.13	0.8791
3677.34	0.8767
3686.54	0.874
3695.75	0.871
3704.96	0.872
3714.16	0.8774
3723.37	0.882
3732.57	0.884
3741.78	0.884
3750.99	0.881
3760.19	0.88
3769.4	0.88
3778.6	0.881
3787.81	0.8827
3797.02	0.886
