Infrared Spectrum: 2-Butanone
Formula: C H3 C H2 C O C H3
CAS: 78-93-3
State: gas
Melting point: -86.35 C
Boiling point: 79.6 C
Class: IUPAC A
Instrument: IFS66V (Bruker)
Instrument parameters: KBr Beam splitter; MCT Detector; Multipass cell
Sampling: 1 L/min Flow
Resolution: 0.9640
Temperature: 23 C
Pressure: 101.3 kPa
Origin: NIST, Anayltical Chemistry Division, 301-975-3108
cm-1	(micromol/mol)-1m-1 (base 10)
575.169	2.17058e-05
583.847	2.9001e-05
592.525	2.97697e-05
601.203	2.12689e-05
609.882	4.42929e-06
618.56	1.1166e-06
627.238	6.86651e-07
635.916	5.29276e-07
644.594	4.79913e-07
653.272	9.65634e-07
661.951	5.97972e-07
670.629	4.73643e-07
679.307	3.23973e-07
687.985	1.5958e-07
696.663	1.65975e-07
705.341	1.55815e-07
714.019	3.87541e-07
722.698	1.25622e-06
731.376	3.93912e-06
740.054	9.54944e-06
748.732	1.98166e-05
757.41	1.94443e-05
766.088	1.78583e-05
774.767	7.22771e-06
783.445	2.50856e-06
792.123	1.42802e-06
800.801	9.38891e-07
809.479	6.11202e-07
818.157	4.62973e-07
826.835	2.98906e-07
835.514	4.65197e-07
844.192	4.17273e-07
852.87	3.87635e-07
861.548	5.75484e-07
870.226	8.30805e-07
878.904	1.30511e-06
887.583	2.03084e-06
896.261	3.53205e-06
904.939	6.79917e-06
913.617	1.42613e-05
922.295	2.62907e-05
930.973	4.22383e-05
939.651	5.27267e-05
948.33	5.18827e-05
957.008	3.76892e-05
965.686	2.32455e-05
974.364	1.77015e-05
983.042	1.63389e-05
991.72	1.41949e-05
1000.4	1.23508e-05
1009.08	7.67062e-06
1017.75	5.17598e-06
1026.43	3.68952e-06
1035.11	2.90883e-06
1043.79	3.1815e-06
1052.47	4.05794e-06
1061.15	6.31861e-06
1069.82	1.06222e-05
1078.5	1.58767e-05
1087.18	1.5432e-05
1095.86	1.50148e-05
1104.54	1.03255e-05
1113.21	9.19782e-06
1121.89	1.01407e-05
1130.57	1.32732e-05
1139.25	2.41624e-05
1147.93	7.10688e-05
1156.61	0.000162642
1165.28	0.000241991
1173.96	0.000267239
1182.64	0.000193363
1191.32	0.000123699
1200	7.1074e-05
1208.67	4.86884e-05
1217.35	2.91524e-05
1226.03	1.53403e-05
1234.71	1.16025e-05
1243.39	1.20779e-05
1252.07	1.3957e-05
1260.74	1.41665e-05
1269.42	1.31339e-05
1278.1	1.04846e-05
1286.78	8.78735e-06
1295.46	1.02696e-05
1304.13	1.52443e-05
1312.81	2.27081e-05
1321.49	3.25906e-05
1330.17	4.72773e-05
1338.85	6.89697e-05
1347.52	0.000113086
1356.2	0.000201285
1364.88	0.000232417
1373.56	0.000231035
1382.24	0.000118527
1390.92	6.28545e-05
1399.59	5.54535e-05
1408.27	6.02402e-05
1416.95	7.76083e-05
1425.63	7.68509e-05
1434.31	8.59401e-05
1442.98	7.89369e-05
1451.66	7.88612e-05
1460.34	8.82115e-05
1469.02	7.04233e-05
1477.7	5.9552e-05
1486.38	3.18766e-05
1495.05	1.98443e-05
1503.73	1.61779e-05
1512.41	1.64357e-05
1521.09	1.83415e-05
1529.77	1.39888e-05
1538.44	1.36462e-05
1547.12	1.02404e-05
1555.8	8.63721e-06
1564.48	7.70368e-06
1573.16	6.31408e-06
1581.83	5.4814e-06
1590.51	4.67009e-06
1599.19	3.9257e-06
1607.87	3.47799e-06
1616.55	6.6191e-06
1625.23	3.29185e-06
1633.9	3.47303e-06
1642.58	3.85415e-06
1651.26	4.16205e-06
1659.94	4.92074e-06
1668.62	7.0806e-06
1677.29	9.99286e-06
1685.97	1.7427e-05
1694.65	2.96617e-05
1703.33	5.85071e-05
1712.01	0.000126626
1720.69	0.000276648
1729.36	0.000493921
1738.04	0.000457658
1746.72	0.000556575
1755.4	0.000317226
1764.08	0.000134913
1772.75	5.40819e-05
1781.43	2.26814e-05
1790.11	1.09181e-05
1798.79	7.42149e-06
1807.47	4.88312e-06
1816.15	2.36821e-06
1824.82	1.95048e-06
1833.5	1.42814e-06
1842.18	1.55179e-06
1850.86	1.73143e-06
1859.54	2.13877e-06
1868.21	2.80273e-06
1876.89	2.89017e-06
1885.57	2.85593e-06
1894.25	2.62111e-06
1902.93	2.02545e-06
1911.6	1.63628e-06
1920.28	1.39133e-06
1928.96	1.31351e-06
1937.64	1.12522e-06
1946.32	1.09756e-06
1955	9.32522e-07
1963.67	6.36146e-07
1972.35	3.78852e-07
1981.03	5.3822e-07
1989.71	5.71021e-07
1998.39	6.79091e-07
2007.06	4.32443e-07
2015.74	2.5677e-07
2024.42	1.25522e-07
2033.1	1.37115e-07
2041.78	1.79149e-07
2050.46	1.84083e-07
2059.13	3.20571e-07
2067.81	5.14201e-07
2076.49	8.67504e-07
2085.17	1.4095e-06
2093.85	2.10579e-06
2102.52	2.73798e-06
2111.2	3.27431e-06
2119.88	3.24784e-06
2128.56	2.75143e-06
2137.24	1.80244e-06
2145.91	9.2797e-07
2154.59	6.56557e-07
2163.27	6.57255e-07
2171.95	7.19449e-07
2180.63	4.85801e-07
2189.31	2.48387e-07
2197.98	4.0782e-08
2206.66	-3.87766e-08
2215.34	1.72437e-09
2224.02	-5.76274e-08
2232.7	-9.99655e-08
2241.37	-1.28014e-07
2250.05	-8.97438e-08
2258.73	1.54111e-08
2267.41	3.16263e-07
2276.09	6.99235e-07
2284.77	1.15382e-06
2293.44	1.38256e-06
2302.12	1.35645e-06
2310.8	1.21275e-06
2319.48	1.0585e-06
2328.16	9.80762e-07
2336.83	8.25345e-07
2345.51	8.46203e-07
2354.19	1.17655e-06
2362.87	1.60455e-06
2371.55	1.24248e-06
2380.23	9.18909e-07
2388.9	6.47197e-07
2397.58	4.75093e-07
2406.26	3.99616e-07
2414.94	3.21096e-07
2423.62	2.81249e-07
2432.29	2.12466e-07
2440.97	1.96071e-07
2449.65	2.07289e-07
2458.33	3.7546e-07
2467.01	5.02872e-07
2475.68	6.1526e-07
2484.36	4.49346e-07
2493.04	4.2864e-07
2501.72	7.788e-07
2510.4	1.029e-06
2519.08	1.24914e-06
2527.75	9.88205e-07
2536.43	6.64472e-07
2545.11	4.26054e-07
2553.79	3.08307e-07
2562.47	2.86004e-07
2571.14	2.07192e-07
2579.82	9.35528e-08
2588.5	2.14819e-08
2597.18	7.98287e-08
2605.86	1.3669e-07
2614.54	1.95295e-07
2623.21	1.84568e-07
2631.89	1.03961e-07
2640.57	8.45607e-08
2649.25	1.97428e-07
2657.93	4.48349e-07
2666.6	7.55254e-07
2675.28	9.53951e-07
2683.96	9.7204e-07
2692.64	8.96057e-07
2701.32	8.38221e-07
2709.99	8.61224e-07
2718.67	1.0125e-06
2727.35	1.19286e-06
2736.03	1.76658e-06
2744.71	2.45491e-06
2753.39	2.71659e-06
2762.06	2.72362e-06
2770.74	2.18917e-06
2779.42	2.53098e-06
2788.1	3.6364e-06
2796.78	5.69932e-06
2805.45	7.75077e-06
2814.13	1.09336e-05
2822.81	1.25312e-05
2831.49	1.43051e-05
2840.17	1.52009e-05
2848.85	1.48296e-05
2857.52	1.50814e-05
2866.2	1.67057e-05
2874.88	2.94756e-05
2883.56	5.78859e-05
2892.24	8.55804e-05
2900.91	0.000109039
2909.59	0.00011617
2918.27	0.000138256
2926.95	0.000110568
2935.63	0.000114068
2944.31	0.000124811
2952.98	0.000117299
2961.66	0.000129559
2970.34	0.000135119
2979.02	0.000176756
2987.7	0.000192666
2996.37	0.000190564
3005.05	0.000131712
3013.73	8.43138e-05
3022.41	5.33193e-05
3031.09	3.11832e-05
3039.76	2.17339e-05
3048.44	1.92441e-05
3057.12	1.75543e-05
3065.8	1.56132e-05
3074.48	1.31383e-05
3083.16	1.034e-05
3091.83	7.77537e-06
3100.51	6.06415e-06
3109.19	4.80081e-06
3117.87	3.63594e-06
3126.55	2.71742e-06
3135.22	2.30975e-06
3143.9	2.21556e-06
3152.58	2.37294e-06
3161.26	2.52308e-06
3169.94	3.11406e-06
3178.62	2.87492e-06
3187.29	2.83725e-06
3195.97	1.93982e-06
3204.65	1.18889e-06
3213.33	6.97255e-07
3222.01	4.74546e-07
3230.68	6.62539e-07
3239.36	5.96553e-07
3248.04	4.85427e-07
3256.72	1.55596e-07
3265.4	-1.96673e-07
3274.07	-1.82216e-07
3282.75	-2.81513e-07
3291.43	-3.44213e-07
3300.11	-2.14379e-07
3308.79	-1.79201e-07
3317.47	-1.58242e-07
3326.14	-1.62595e-07
3334.82	-1.84302e-07
3343.5	-2.41129e-07
3352.18	-1.87795e-07
3360.86	1.46665e-07
3369.53	2.60527e-07
3378.21	4.01284e-07
3386.89	4.54821e-07
3395.57	2.5585e-07
3404.25	2.47576e-07
3412.93	3.86889e-07
3421.6	1.17325e-06
3430.28	2.81809e-06
3438.96	5.3524e-06
3447.64	9.01684e-06
3456.32	1.01819e-05
3464.99	1.00404e-05
3473.67	7.04267e-06
3482.35	2.64308e-06
3491.03	4.65173e-07
3499.71	-4.19507e-07
3508.39	-7.5852e-07
3517.06	-8.29524e-07
3525.74	-8.21367e-07
3534.42	-8.29393e-07
3543.1	-7.58592e-07
3551.78	-4.61086e-07
3560.45	-2.71859e-07
3569.13	2.16538e-07
3577.81	6.74288e-08
3586.49	8.0076e-07
3595.17	4.19555e-07
3603.84	-2.1804e-07
3612.52	4.51266e-07
3621.2	-2.57808e-07
3629.88	1.36428e-06
3638.56	-2.05944e-07
3647.24	8.4574e-07
3655.91	9.80064e-07
3664.59	-1.09791e-07
3673.27	-8.94746e-08
3681.95	-2.2597e-07
3690.63	1.50294e-07
3699.3	-2.55536e-07
3707.98	-1.74179e-07
3716.66	-3.28854e-07
3725.34	-3.50905e-08
3734.02	1.51528e-07
3742.7	-9.02059e-08
3751.37	4.26206e-07
3760.05	4.14906e-07
3768.73	-2.56513e-07
3777.41	-3.6565e-07
3786.09	-3.24836e-07
3794.76	-3.03019e-07
3803.44	-8.07427e-08
3812.12	-1.97518e-07
3820.8	1.28032e-06
3829.48	-4.93757e-09
3838.16	3.037e-06
3846.83	2.57808e-07
3855.51	5.07558e-07
3864.19	8.30451e-07
3872.87	5.44278e-07
3881.55	5.34053e-07
3890.22	2.43491e-07
3898.9	6.93543e-07
3907.58	8.73919e-09
3916.26	1.38125e-07
3924.94	2.69875e-07
3933.61	7.09576e-08
3942.29	2.78254e-07
3950.97	7.58706e-08
3959.65	2.43736e-07
3968.33	3.65378e-07
