Infrared Spectrum: 2-Butanone
Formula: C H3 C H2 C O C H3
CAS: 78-93-3
State: gas
Melting point: -86.35 C
Boiling point: 79.6 C
Class: IUPAC A
Instrument: IFS66V (Bruker)
Instrument parameters: KBr Beam splitter; MCT Detector; Multipass cell
Sampling: 1 L/min Flow
Resolution: 0.2410
Temperature: 23 C
Pressure: 101.3 kPa
Origin: NIST, Anayltical Chemistry Division, 301-975-3108
cm-1	(micromol/mol)-1m-1 (base 10)
575.048	2.1357e-05
583.606	2.77907e-05
592.163	3.03944e-05
600.721	2.20271e-05
609.279	5.84232e-06
617.836	1.31681e-06
626.394	5.7725e-07
634.951	5.6969e-07
643.509	7.33045e-07
652.067	1.32609e-06
660.624	5.63917e-07
669.182	3.92167e-07
677.74	1.72021e-07
686.297	3.59043e-07
694.855	-9.33836e-08
703.412	-6.66831e-08
711.97	7.18896e-07
720.528	9.12517e-07
729.085	2.7402e-06
737.643	7.66343e-06
746.201	1.54873e-05
754.758	2.11914e-05
763.316	1.9104e-05
771.873	1.08418e-05
780.431	3.4629e-06
788.989	1.57176e-06
797.546	1.10306e-06
806.104	5.16475e-07
814.662	5.08989e-07
823.219	-4.30148e-08
831.777	6.92049e-07
840.334	2.77867e-07
848.892	3.79263e-07
857.45	5.7798e-07
866.007	7.99674e-07
874.565	1.34707e-06
883.123	1.79543e-06
891.68	2.61699e-06
900.238	4.7069e-06
908.795	9.53162e-06
917.353	1.84462e-05
925.911	3.21043e-05
934.468	4.8738e-05
943.026	5.2849e-05
951.584	4.86188e-05
960.141	3.14612e-05
968.699	2.06662e-05
977.256	1.73012e-05
985.814	1.53996e-05
994.372	1.35796e-05
1002.93	1.13547e-05
1011.49	6.73538e-06
1020.04	4.78103e-06
1028.6	3.42725e-06
1037.16	2.8075e-06
1045.72	3.36584e-06
1054.28	4.49488e-06
1062.83	7.08352e-06
1071.39	1.15037e-05
1079.95	1.65161e-05
1088.51	1.49536e-05
1097.06	1.422e-05
1105.62	1.01352e-05
1114.18	9.20281e-06
1122.74	1.02171e-05
1131.29	1.37558e-05
1139.85	2.56127e-05
1148.41	7.5951e-05
1156.97	0.000165327
1165.52	0.000244602
1174.08	0.000267647
1182.64	0.000193131
1191.2	0.000124787
1199.75	7.19038e-05
1208.31	4.93516e-05
1216.87	3.03562e-05
1225.43	1.58007e-05
1233.99	1.17907e-05
1242.54	1.18136e-05
1251.1	1.38196e-05
1259.66	1.42974e-05
1268.22	1.3423e-05
1276.77	1.08854e-05
1285.33	8.80938e-06
1293.89	9.77241e-06
1302.45	1.41133e-05
1311	2.08727e-05
1319.56	3.00182e-05
1328.12	4.32592e-05
1336.68	6.30961e-05
1345.23	9.4716e-05
1353.79	0.000179338
1362.35	0.000215777
1370.91	0.00021884
1379.46	0.000166998
1388.02	6.55389e-05
1396.58	5.81605e-05
1405.14	5.58372e-05
1413.7	7.2294e-05
1422.25	7.4367e-05
1430.81	8.96412e-05
1439.37	7.95846e-05
1447.93	8.0541e-05
1456.48	0.000113934
1465.04	6.74954e-05
1473.6	7.21769e-05
1482.16	4.38742e-05
1490.71	2.57878e-05
1499.27	1.75715e-05
1507.83	1.64886e-05
1516.39	1.61693e-05
1524.94	1.52465e-05
1533.5	1.37587e-05
1542.06	1.65328e-05
1550.62	9.6982e-06
1559.18	8.59307e-06
1567.73	6.91834e-06
1576.29	1.30318e-05
1584.85	5.32962e-06
1593.41	4.34351e-06
1601.96	3.82525e-06
1610.52	3.21252e-06
1619.08	3.14997e-06
1627.64	3.80586e-06
1636.19	3.94786e-06
1644.75	4.14021e-06
1653.31	1.61433e-05
1661.87	5.54646e-06
1670.42	7.24689e-06
1678.98	1.10411e-05
1687.54	1.90027e-05
1696.1	3.56441e-05
1704.65	6.60531e-05
1713.21	0.000141256
1721.77	0.000302791
1730.33	0.000512322
1738.89	0.000451476
1747.44	0.000544025
1756	0.00030086
1764.56	0.000127979
1773.12	5.00296e-05
1781.67	2.21906e-05
1790.23	1.09009e-05
1798.79	7.3384e-06
1807.35	4.83985e-06
1815.9	2.38938e-06
1824.46	1.58243e-06
1833.02	1.3869e-06
1841.58	1.47582e-06
1850.13	1.68996e-06
1858.69	2.15054e-06
1867.25	2.47623e-06
1875.81	2.85048e-06
1884.36	2.9737e-06
1892.92	2.67977e-06
1901.48	2.09257e-06
1910.04	2.03088e-06
1918.6	1.497e-06
1927.15	1.2802e-06
1935.71	1.09627e-06
1944.27	1.2049e-06
1952.83	8.57908e-07
1961.38	6.841e-07
1969.94	5.64456e-07
1978.5	4.72378e-07
1987.06	5.43581e-07
1995.61	6.08253e-07
2004.17	6.17802e-07
2012.73	3.46904e-07
2021.29	2.15791e-07
2029.84	5.08236e-08
2038.4	1.44343e-07
2046.96	1.92655e-07
2055.52	1.95534e-07
2064.08	5.71054e-07
2072.63	7.58094e-07
2081.19	1.12352e-06
2089.75	1.71991e-06
2098.31	2.33312e-06
2106.86	3.00539e-06
2115.42	3.42193e-06
2123.98	3.0437e-06
2132.54	2.4879e-06
2141.09	1.31125e-06
2149.65	7.94642e-07
2158.21	6.18154e-07
2166.77	8.04159e-07
2175.32	6.09532e-07
2183.88	4.20912e-07
2192.44	1.39673e-07
2201	3.21065e-08
2209.55	-3.59599e-08
2218.11	-4.27838e-08
2226.67	1.0479e-08
2235.23	-1.50659e-07
2243.79	-1.90461e-07
2252.34	1.10365e-08
2260.9	4.12413e-08
2269.46	3.03168e-07
2278.02	7.87156e-07
2286.57	1.27091e-06
2295.13	1.49044e-06
2303.69	1.33442e-06
2312.25	1.09971e-06
2320.8	9.37827e-07
2329.36	6.62965e-07
2337.92	9.06304e-07
2346.48	7.9277e-07
2355.03	9.52267e-07
2363.59	1.145e-06
2372.15	1.04378e-06
2380.71	1.0277e-06
2389.26	5.96369e-07
2397.82	4.35725e-07
2406.38	3.91496e-07
2414.94	3.24911e-07
2423.5	2.63104e-07
2432.05	2.55928e-07
2440.61	1.93779e-07
2449.17	2.25798e-07
2457.73	2.37777e-07
2466.28	4.07553e-07
2474.84	5.8242e-07
2483.4	4.83139e-07
2491.96	4.24995e-07
2500.51	7.61263e-07
2509.07	1.09498e-06
2517.63	1.33863e-06
2526.19	9.38216e-07
2534.74	8.17792e-07
2543.3	4.34411e-07
2551.86	2.79412e-07
2560.42	2.50452e-07
2568.98	1.97959e-07
2577.53	2.36049e-07
2586.09	1.24698e-07
2594.65	6.83383e-08
2603.21	9.14137e-08
2611.76	2.13186e-07
2620.32	1.75072e-07
2628.88	2.10234e-07
2637.44	-7.88337e-09
2645.99	2.97809e-08
2654.55	4.2494e-07
2663.11	5.05224e-07
2671.67	9.00078e-07
2680.22	9.77808e-07
2688.78	8.56008e-07
2697.34	7.71244e-07
2705.9	8.44373e-07
2714.45	8.33528e-07
2723.01	1.29341e-06
2731.57	1.39669e-06
2740.13	1.93116e-06
2748.69	2.5841e-06
2757.24	2.9183e-06
2765.8	2.38759e-06
2774.36	2.28655e-06
2782.92	2.746e-06
2791.47	4.29425e-06
2800.03	6.47736e-06
2808.59	9.10661e-06
2817.15	1.16464e-05
2825.7	1.31942e-05
2834.26	1.49332e-05
2842.82	1.47476e-05
2851.38	1.47271e-05
2859.93	1.53304e-05
2868.49	1.81205e-05
2877.05	3.66297e-05
2885.61	6.00001e-05
2894.16	8.84272e-05
2902.72	0.000110288
2911.28	0.000119139
2919.84	0.000128441
2928.4	0.000107162
2936.95	0.000119125
2945.51	0.000119622
2954.07	0.000118278
2962.63	0.000126204
2971.18	0.000136119
2979.74	0.000180065
2988.3	0.000191376
2996.86	0.000188919
3005.41	0.000129321
3013.97	8.42366e-05
3022.53	5.30608e-05
3031.09	3.13222e-05
3039.64	2.18318e-05
3048.2	1.92435e-05
3056.76	1.74567e-05
3065.32	1.57163e-05
3073.88	1.33264e-05
3082.43	1.0755e-05
3090.99	8.1282e-06
3099.55	6.27212e-06
3108.11	4.78973e-06
3116.66	3.58506e-06
3125.22	2.79768e-06
3133.78	2.26667e-06
3142.34	2.14097e-06
3150.89	2.09657e-06
3159.45	2.29049e-06
3168.01	2.8824e-06
3176.57	2.84217e-06
3185.12	3.34223e-06
3193.68	2.27233e-06
3202.24	1.46027e-06
3210.8	5.6392e-07
3219.35	5.9866e-07
3227.91	5.13984e-07
3236.47	7.48184e-07
3245.03	6.6111e-07
3253.59	5.61258e-08
3262.14	-6.57481e-08
3270.7	-4.29999e-07
3279.26	-1.00764e-07
3287.82	-5.12942e-07
3296.37	-3.89558e-07
3304.93	-1.07046e-07
3313.49	-3.61791e-08
3322.05	-4.67282e-07
3330.6	-1.01106e-07
3339.16	-2.49046e-07
3347.72	-3.12768e-07
3356.28	2.09462e-08
3364.83	1.80183e-07
3373.39	2.05666e-07
3381.95	1.72392e-07
3390.51	6.24192e-07
3399.06	1.25932e-07
3407.62	4.70811e-07
3416.18	5.14049e-07
3424.74	1.82591e-06
3433.3	3.67053e-06
3441.85	6.43372e-06
3450.41	1.01616e-05
3458.97	9.39422e-06
3467.53	1.0011e-05
3476.08	5.17096e-06
3484.64	1.8325e-06
3493.2	1.98018e-07
3501.76	-2.51492e-07
3510.31	-7.6078e-07
3518.87	-8.2495e-07
3527.43	-6.3452e-07
3535.99	-7.4888e-07
3544.54	-9.15635e-07
3553.1	-5.97572e-07
3561.66	-2.43649e-07
3570.22	3.4446e-07
3578.78	8.0891e-08
3587.33	-2.21592e-07
3595.89	3.66215e-07
3604.45	-3.32591e-07
3613.01	-3.8471e-09
3621.56	-1.22758e-07
3630.12	-6.92605e-08
3638.68	-2.68734e-07
3647.24	1.16864e-06
3655.79	9.766e-08
3664.35	9.97063e-08
3672.91	-4.21762e-08
3681.47	-1.32527e-07
3690.02	-3.00137e-07
3698.58	-1.60465e-07
3707.14	-5.32545e-07
3715.7	-2.45731e-07
3724.25	-3.85454e-07
3732.81	-8.2116e-08
3741.37	4.99153e-07
3749.93	5.73407e-07
3758.49	-3.71837e-07
3767.04	-1.46571e-07
3775.6	-2.8962e-07
3784.16	-4.38438e-07
3792.72	-4.62792e-07
3801.27	3.57325e-06
3809.83	-3.97705e-07
3818.39	4.09994e-08
3826.95	3.78625e-07
3835.5	3.75305e-07
3844.06	5.303e-07
3852.62	8.97827e-07
3861.18	7.517e-07
3869.73	1.08955e-06
3878.29	4.76024e-07
3886.85	2.68619e-07
3895.41	-6.48659e-08
3903.96	5.0719e-07
3912.52	4.09457e-08
3921.08	-1.70853e-07
3929.64	3.05283e-07
3938.2	7.73667e-08
3946.75	2.22391e-07
3955.31	1.52809e-07
3963.87	1.26259e-07
3972.43	5.21948e-07
