Infrared Spectrum: 2-Butanone
Formula: C H3 C H2 C O C H3
CAS: 78-93-3
State: gas
Melting point: -86.35 C
Boiling point: 79.6 C
Class: IUPAC A
Instrument: IFS66V (Bruker)
Instrument parameters: KBr Beam splitter; MCT Detector; Multipass cell
Sampling: 1 L/min Flow
Resolution: 1.9290
Temperature: 23 C
Pressure: 101.3 kPa
Origin: NIST, Anayltical Chemistry Division, 301-975-3108
cm-1	(micromol/mol)-1m-1 (base 10)
574.687	2.01811e-05
583.365	2.78969e-05
592.043	3.07311e-05
600.721	2.23421e-05
609.4	5.23633e-06
618.078	1.29257e-06
626.756	6.67808e-07
635.434	5.54106e-07
644.112	3.56313e-07
652.79	1.16237e-06
661.469	5.7999e-07
670.147	5.16666e-07
678.825	3.39719e-07
687.503	1.9333e-07
696.181	2.63668e-07
704.859	4.09139e-08
713.537	3.15984e-07
722.216	1.14944e-06
730.894	3.68667e-06
739.572	9.14515e-06
748.25	1.87999e-05
756.928	1.95837e-05
765.606	1.8179e-05
774.285	7.71396e-06
782.963	2.66794e-06
791.641	1.43053e-06
800.319	1.08172e-06
808.997	5.97518e-07
817.675	4.99735e-07
826.353	3.82086e-07
835.032	4.92855e-07
843.71	4.71858e-07
852.388	4.22468e-07
861.066	5.92449e-07
869.744	8.22166e-07
878.422	1.27529e-06
887.101	2.0311e-06
895.779	3.40403e-06
904.457	6.51305e-06
913.135	1.37519e-05
921.813	2.53848e-05
930.491	4.13666e-05
939.169	5.1428e-05
947.848	5.18095e-05
956.526	3.8718e-05
965.204	2.37753e-05
973.882	1.78339e-05
982.56	1.64852e-05
991.238	1.43742e-05
999.917	1.24039e-05
1008.59	7.88674e-06
1017.27	5.27909e-06
1025.95	3.76171e-06
1034.63	2.93357e-06
1043.31	3.1794e-06
1051.99	4.04281e-06
1060.66	6.1678e-06
1069.34	1.03109e-05
1078.02	1.5715e-05
1086.7	1.56407e-05
1095.38	1.53157e-05
1104.05	1.04439e-05
1112.73	9.24361e-06
1121.41	1.00048e-05
1130.09	1.29687e-05
1138.77	2.30586e-05
1147.45	6.66207e-05
1156.12	0.000158433
1164.8	0.000236699
1173.48	0.000266989
1182.16	0.000196996
1190.84	0.00012785
1199.51	7.27886e-05
1208.19	4.95763e-05
1216.87	3.03943e-05
1225.55	1.57313e-05
1234.23	1.17249e-05
1242.9	1.19199e-05
1251.58	1.39119e-05
1260.26	1.42345e-05
1268.94	1.33191e-05
1277.62	1.06007e-05
1286.3	8.8254e-06
1294.97	1.00189e-05
1303.65	1.49412e-05
1312.33	2.21544e-05
1321.01	3.20754e-05
1329.69	4.62542e-05
1338.36	6.74587e-05
1347.04	0.000108597
1355.72	0.000197841
1364.4	0.000223659
1373.08	0.000229827
1381.76	0.000126394
1390.43	6.30152e-05
1399.11	5.60422e-05
1407.79	5.93219e-05
1416.47	7.68818e-05
1425.15	7.54082e-05
1433.82	8.69641e-05
1442.5	7.92646e-05
1451.18	7.77692e-05
1459.86	9.05279e-05
1468.54	7.10364e-05
1477.22	6.0935e-05
1485.89	3.29233e-05
1494.57	1.98003e-05
1503.25	1.6523e-05
1511.93	1.62783e-05
1520.61	1.74563e-05
1529.28	1.43361e-05
1537.96	1.25823e-05
1546.64	1.03353e-05
1555.32	8.60684e-06
1564	7.46288e-06
1572.67	6.07322e-06
1581.35	5.35161e-06
1590.03	4.79796e-06
1598.71	3.94783e-06
1607.39	3.53784e-06
1616.07	4.82112e-06
1624.74	3.19604e-06
1633.42	3.44382e-06
1642.1	3.97847e-06
1650.78	3.79128e-06
1659.46	4.93846e-06
1668.13	6.09776e-06
1676.81	9.46768e-06
1685.49	1.8901e-05
1694.17	2.8089e-05
1702.85	5.59982e-05
1711.53	0.000120981
1720.2	0.000265323
1728.88	0.000483646
1737.56	0.000464654
1746.24	0.000564003
1754.92	0.000330788
1763.59	0.000142001
1772.27	5.60809e-05
1780.95	2.40031e-05
1789.63	1.10199e-05
1798.31	7.40304e-06
1806.98	5.0139e-06
1815.66	2.4271e-06
1824.34	1.64552e-06
1833.02	1.40784e-06
1841.7	1.68767e-06
1850.38	1.77448e-06
1859.05	2.10939e-06
1867.73	2.67032e-06
1876.41	2.80927e-06
1885.09	2.91805e-06
1893.77	2.65916e-06
1902.44	2.09379e-06
1911.12	1.62296e-06
1919.8	1.34122e-06
1928.48	1.30066e-06
1937.16	1.11858e-06
1945.84	1.08968e-06
1954.51	9.40331e-07
1963.19	6.72138e-07
1971.87	4.00573e-07
1980.55	5.10437e-07
1989.23	6.19339e-07
1997.9	6.849e-07
2006.58	4.33426e-07
2015.26	2.18097e-07
2023.94	1.0729e-07
2032.62	1.16431e-07
2041.3	2.19834e-07
2049.97	1.95194e-07
2058.65	3.41634e-07
2067.33	5.11432e-07
2076.01	8.61446e-07
2084.69	1.38135e-06
2093.36	2.03251e-06
2102.04	2.69632e-06
2110.72	3.28158e-06
2119.4	3.31801e-06
2128.08	2.80556e-06
2136.75	1.86722e-06
2145.43	9.62921e-07
2154.11	6.56617e-07
2162.79	6.71692e-07
2171.47	7.40064e-07
2180.15	4.85819e-07
2188.82	2.49021e-07
2197.5	3.61564e-08
2206.18	-3.97052e-08
2214.86	1.85352e-08
2223.54	-7.53049e-08
2232.21	-1.08276e-07
2240.89	-1.40689e-07
2249.57	-8.25435e-08
2258.25	-6.40365e-09
2266.93	2.89812e-07
2275.61	6.88254e-07
2284.28	1.11873e-06
2292.96	1.39255e-06
2301.64	1.36989e-06
2310.32	1.16139e-06
2319	1.15529e-06
2327.67	9.70728e-07
2336.35	1.0652e-06
2345.03	8.95715e-07
2353.71	1.05442e-06
2362.39	1.39815e-06
2371.06	1.19463e-06
2379.74	9.2182e-07
2388.42	6.69995e-07
2397.1	4.6645e-07
2405.78	4.092e-07
2414.46	3.27369e-07
2423.13	2.40265e-07
2431.81	2.15712e-07
2440.49	1.82415e-07
2449.17	2.16172e-07
2457.85	3.53525e-07
2466.52	4.8921e-07
2475.2	5.89928e-07
2483.88	4.54538e-07
2492.56	4.44317e-07
2501.24	7.52614e-07
2509.92	1.01688e-06
2518.59	1.21729e-06
2527.27	9.86735e-07
2535.95	6.5657e-07
2544.63	4.44678e-07
2553.31	3.27303e-07
2561.98	2.97235e-07
2570.66	2.21277e-07
2579.34	1.06376e-07
2588.02	2.11454e-09
2596.7	4.8468e-08
2605.38	1.34905e-07
2614.05	1.70649e-07
2622.73	1.90637e-07
2631.41	9.14027e-08
2640.09	1.22693e-07
2648.77	2.00945e-07
2657.44	4.12587e-07
2666.12	7.54597e-07
2674.8	9.55e-07
2683.48	9.67075e-07
2692.16	8.92634e-07
2700.83	7.85063e-07
2709.51	8.22817e-07
2718.19	1.00782e-06
2726.87	1.18584e-06
2735.55	1.68921e-06
2744.23	2.45043e-06
2752.9	2.70397e-06
2761.58	2.75392e-06
2770.26	2.14941e-06
2778.94	2.47927e-06
2787.62	3.51778e-06
2796.29	5.62793e-06
2804.97	7.60256e-06
2813.65	1.07935e-05
2822.33	1.24657e-05
2831.01	1.42245e-05
2839.69	1.52318e-05
2848.36	1.49063e-05
2857.04	1.50536e-05
2865.72	1.6498e-05
2874.4	2.8056e-05
2883.08	5.71676e-05
2891.75	8.45404e-05
2900.43	0.000108503
2909.11	0.000115306
2917.79	0.000140598
2926.47	0.000111699
2935.14	0.00011227
2943.82	0.000126481
2952.5	0.000117222
2961.18	0.000130948
2969.86	0.000134596
2978.54	0.000174561
2987.21	0.000193837
2995.89	0.00019146
3004.57	0.00013527
3013.25	8.5001e-05
3021.93	5.45549e-05
3030.6	3.20856e-05
3039.28	2.19806e-05
3047.96	1.93364e-05
3056.64	1.76825e-05
3065.32	1.57534e-05
3074	1.3319e-05
3082.67	1.04844e-05
3091.35	7.94167e-06
3100.03	6.1689e-06
3108.71	4.8378e-06
3117.39	3.62842e-06
3126.06	2.77232e-06
3134.74	2.34453e-06
3143.42	2.24668e-06
3152.1	2.32412e-06
3160.78	2.55871e-06
3169.46	3.07045e-06
3178.13	2.86289e-06
3186.81	2.96901e-06
3195.49	1.93186e-06
3204.17	1.20912e-06
3212.85	7.03954e-07
3221.52	4.97156e-07
3230.2	6.67048e-07
3238.88	5.81456e-07
3247.56	4.80599e-07
3256.24	1.88114e-07
3264.91	-1.34006e-07
3273.59	-1.85944e-07
3282.27	-3.20055e-07
3290.95	-3.23971e-07
3299.63	-2.51993e-07
3308.31	-2.47196e-07
3316.98	-2.02364e-07
3325.66	-2.28922e-07
3334.34	-1.69825e-07
3343.02	-2.14072e-07
3351.7	-1.30046e-07
3360.37	2.93235e-08
3369.05	1.80446e-07
3377.73	3.75749e-07
3386.41	4.82098e-07
3395.09	3.18223e-07
3403.77	1.6489e-07
3412.44	3.07291e-07
3421.12	1.15547e-06
3429.8	2.64242e-06
3438.48	5.19103e-06
3447.16	8.87748e-06
3455.83	1.02927e-05
3464.51	9.97559e-06
3473.19	7.36703e-06
3481.87	2.78292e-06
3490.55	5.38879e-07
3499.22	-4.61718e-07
3507.9	-7.60874e-07
3516.58	-9.53599e-07
3525.26	-7.61196e-07
3533.94	-8.50271e-07
3542.62	-8.01736e-07
3551.29	-5.9006e-07
3559.97	-2.16093e-07
3568.65	6.04942e-07
3577.33	9.29907e-08
3586.01	6.53809e-07
3594.68	2.64386e-07
3603.36	-1.65586e-07
3612.04	1.88497e-07
3620.72	-5.12989e-07
3629.4	1.64886e-06
3638.08	-2.0026e-07
3646.75	7.50371e-07
3655.43	3.88915e-07
3664.11	-1.075e-07
3672.79	2.09135e-08
3681.47	-4.56031e-07
3690.14	-4.93286e-07
3698.82	-2.94465e-07
3707.5	-2.09965e-07
3716.18	-3.49908e-07
3724.86	5.48598e-08
3733.54	-8.65674e-07
3742.21	2.0075e-07
3750.89	-1.0734e-06
3759.57	4.38608e-07
3768.25	-3.19176e-07
3776.93	-3.56478e-07
3785.6	-1.5519e-07
3794.28	-3.70704e-07
3802.96	-3.2496e-07
3811.64	1.13163e-07
3820.32	8.09964e-07
3828.99	1.39596e-08
3837.67	3.48407e-06
3846.35	3.40497e-07
3855.03	1.81749e-06
3863.71	4.41652e-07
3872.39	5.95296e-07
3881.06	8.51718e-07
3889.74	8.20824e-08
3898.42	1.20478e-07
3907.1	-8.56184e-09
3915.78	-2.22704e-08
3924.45	2.53729e-07
3933.13	1.34129e-07
3941.81	1.64379e-07
3950.49	1.3122e-08
3959.17	2.82005e-07
3967.85	3.74865e-07
