Infrared Spectrum: 2-Butanone
Formula: C H3 C H2 C O C H3
CAS: 78-93-3
State: gas
Melting point: -86.35 C
Boiling point: 79.6 C
Class: IUPAC A
Instrument: IFS66V (Bruker)
Instrument parameters: KBr Beam splitter; MCT Detector; Multipass cell
Sampling: 1 L/min Flow
Resolution: 0.4820
Temperature: 23 C
Pressure: 101.3 kPa
Origin: NIST, Anayltical Chemistry Division, 301-975-3108
cm-1	(micromol/mol)-1m-1 (base 10)
574.928	2.07764e-05
583.606	2.82773e-05
592.284	2.9693e-05
600.962	2.18832e-05
609.641	4.789e-06
618.319	1.21793e-06
626.997	7.47308e-07
635.675	5.54381e-07
644.353	2.52362e-07
653.031	1.14209e-06
661.71	4.38043e-07
670.388	4.31554e-07
679.066	2.7853e-07
687.744	1.93804e-07
696.422	2.38041e-07
705.1	5.36511e-08
713.778	3.30787e-07
722.457	1.24874e-06
731.135	3.7783e-06
739.813	9.2783e-06
748.491	1.92549e-05
757.169	1.94453e-05
765.847	1.80602e-05
774.526	7.43025e-06
783.204	2.57424e-06
791.882	1.35331e-06
800.56	1.07602e-06
809.238	6.55224e-07
817.916	4.85424e-07
826.594	3.13022e-07
835.273	5.53546e-07
843.951	4.64527e-07
852.629	3.72622e-07
861.307	6.30327e-07
869.985	8.58199e-07
878.663	1.29843e-06
887.342	2.00642e-06
896.02	3.4499e-06
904.698	6.633e-06
913.376	1.39942e-05
922.054	2.5909e-05
930.732	4.17652e-05
939.41	5.17962e-05
948.089	5.18853e-05
956.767	3.81747e-05
965.445	2.34438e-05
974.123	1.77584e-05
982.801	1.63908e-05
991.479	1.43219e-05
1000.16	1.23962e-05
1008.84	7.75162e-06
1017.51	5.18885e-06
1026.19	3.76089e-06
1034.87	2.93324e-06
1043.55	3.18234e-06
1052.23	3.98302e-06
1060.9	6.25488e-06
1069.58	1.04761e-05
1078.26	1.58823e-05
1086.94	1.55191e-05
1095.62	1.51391e-05
1104.3	1.0457e-05
1112.97	9.19111e-06
1121.65	1.00618e-05
1130.33	1.31178e-05
1139.01	2.35423e-05
1147.69	6.88187e-05
1156.36	0.000160664
1165.04	0.000239353
1173.72	0.000266891
1182.4	0.00019535
1191.08	0.000125766
1199.76	7.19071e-05
1208.43	4.9189e-05
1217.11	2.9777e-05
1225.79	1.55679e-05
1234.47	1.16784e-05
1243.15	1.20328e-05
1251.82	1.38724e-05
1260.5	1.4232e-05
1269.18	1.32169e-05
1277.86	1.05145e-05
1286.54	8.79028e-06
1295.21	1.01937e-05
1303.89	1.50533e-05
1312.57	2.24866e-05
1321.25	3.23722e-05
1329.93	4.67639e-05
1338.61	6.82588e-05
1347.28	0.000110809
1355.96	0.000199506
1364.64	0.000228278
1373.32	0.000230623
1382	0.000122399
1390.67	6.29427e-05
1399.35	5.62247e-05
1408.03	5.97871e-05
1416.71	7.71566e-05
1425.39	7.61056e-05
1434.07	8.64208e-05
1442.74	7.90948e-05
1451.42	7.82614e-05
1460.1	8.94932e-05
1468.78	7.06228e-05
1477.46	6.02858e-05
1486.13	3.24263e-05
1494.81	1.99842e-05
1503.49	1.61956e-05
1512.17	1.6871e-05
1520.85	1.657e-05
1529.52	1.40247e-05
1538.2	1.27921e-05
1546.88	1.02963e-05
1555.56	8.68169e-06
1564.24	7.43782e-06
1572.92	6.2918e-06
1581.59	5.47165e-06
1590.27	4.69636e-06
1598.95	3.94872e-06
1607.63	3.48175e-06
1616.31	4.62029e-06
1624.98	3.29506e-06
1633.66	3.41224e-06
1642.34	3.85831e-06
1651.02	4.01305e-06
1659.7	4.91288e-06
1668.38	6.86539e-06
1677.05	9.84794e-06
1685.73	1.71461e-05
1694.41	2.90572e-05
1703.09	5.72704e-05
1711.77	0.000123793
1720.44	0.000271026
1729.12	0.000488728
1737.8	0.000460605
1746.48	0.000560371
1755.16	0.000324049
1763.84	0.000138466
1772.51	5.57019e-05
1781.19	2.31734e-05
1789.87	1.09978e-05
1798.55	7.43073e-06
1807.23	4.88335e-06
1815.9	2.43098e-06
1824.58	1.60471e-06
1833.26	1.46964e-06
1841.94	1.5669e-06
1850.62	1.7271e-06
1859.29	2.13149e-06
1867.97	2.97357e-06
1876.65	2.86443e-06
1885.33	2.84859e-06
1894.01	2.64218e-06
1902.69	2.06012e-06
1911.36	1.63263e-06
1920.04	1.38656e-06
1928.72	1.32787e-06
1937.4	1.11705e-06
1946.08	1.10549e-06
1954.75	9.56511e-07
1963.43	6.78793e-07
1972.11	3.80526e-07
1980.79	5.19902e-07
1989.47	5.6523e-07
1998.15	6.89082e-07
2006.82	4.20859e-07
2015.5	2.66912e-07
2024.18	1.11598e-07
2032.86	1.4716e-07
2041.54	2.09042e-07
2050.21	1.8618e-07
2058.89	3.36371e-07
2067.57	5.01461e-07
2076.25	8.59163e-07
2084.93	1.43747e-06
2093.6	2.061e-06
2102.28	2.70804e-06
2110.96	3.27764e-06
2119.64	3.27285e-06
2128.32	2.76141e-06
2137	1.82259e-06
2145.67	9.26801e-07
2154.35	6.91889e-07
2163.03	6.57409e-07
2171.71	7.06198e-07
2180.39	4.76537e-07
2189.06	2.6196e-07
2197.74	6.12926e-08
2206.42	-5.34811e-08
2215.1	6.38546e-09
2223.78	-7.64282e-08
2232.46	-8.68854e-08
2241.13	-1.4038e-07
2249.81	-1.07403e-07
2258.49	4.244e-08
2267.17	3.28871e-07
2275.85	6.80572e-07
2284.52	1.11405e-06
2293.2	1.37586e-06
2301.88	1.31906e-06
2310.56	1.17226e-06
2319.24	1.2352e-06
2327.92	7.91634e-07
2336.59	7.6416e-07
2345.27	7.64759e-07
2353.95	8.95745e-07
2362.63	1.74414e-06
2371.31	1.36989e-06
2379.98	9.51929e-07
2388.66	6.59303e-07
2397.34	4.9905e-07
2406.02	4.40343e-07
2414.7	3.21031e-07
2423.37	2.37252e-07
2432.05	2.42207e-07
2440.73	1.54385e-07
2449.41	2.1869e-07
2458.09	4.00708e-07
2466.77	5.07016e-07
2475.44	6.08534e-07
2484.12	4.71025e-07
2492.8	4.43772e-07
2501.48	7.18112e-07
2510.16	9.67002e-07
2518.83	1.24151e-06
2527.51	9.59724e-07
2536.19	6.43782e-07
2544.87	4.32911e-07
2553.55	3.02951e-07
2562.23	2.91913e-07
2570.9	2.18334e-07
2579.58	9.3822e-08
2588.26	2.75027e-09
2596.94	5.42541e-08
2605.62	1.40089e-07
2614.29	1.63e-07
2622.97	2.23255e-07
2631.65	8.08255e-08
2640.33	6.71415e-08
2649.01	1.74648e-07
2657.68	4.15731e-07
2666.36	7.38309e-07
2675.04	9.67418e-07
2683.72	9.76247e-07
2692.4	8.75002e-07
2701.08	8.18157e-07
2709.75	9.17961e-07
2718.43	9.85689e-07
2727.11	1.18349e-06
2735.79	1.73939e-06
2744.47	2.43924e-06
2753.14	2.71224e-06
2761.82	2.77227e-06
2770.5	2.17423e-06
2779.18	2.48827e-06
2787.86	3.53676e-06
2796.54	5.62888e-06
2805.21	7.68936e-06
2813.89	1.08366e-05
2822.57	1.25009e-05
2831.25	1.42305e-05
2839.93	1.5189e-05
2848.6	1.48266e-05
2857.28	1.50489e-05
2865.96	1.65612e-05
2874.64	2.87734e-05
2883.32	5.75707e-05
2892	8.49884e-05
2900.67	0.00010876
2909.35	0.000115797
2918.03	0.000139743
2926.71	0.000111074
2935.39	0.000113175
2944.06	0.000125797
2952.74	0.000117328
2961.42	0.000130081
2970.1	0.000134995
2978.78	0.000175654
2987.45	0.000193202
2996.13	0.00019152
3004.81	0.000133394
3013.49	8.48188e-05
3022.17	5.39046e-05
3030.85	3.17114e-05
3039.52	2.18915e-05
3048.2	1.93279e-05
3056.88	1.75034e-05
3065.56	1.57785e-05
3074.24	1.32596e-05
3082.91	1.04781e-05
3091.59	7.90326e-06
3100.27	6.06104e-06
3108.95	4.74416e-06
3117.63	3.68091e-06
3126.31	2.7497e-06
3134.98	2.37532e-06
3143.66	2.23776e-06
3152.34	2.33711e-06
3161.02	2.5238e-06
3169.7	3.10631e-06
3178.37	2.86436e-06
3187.05	2.88742e-06
3195.73	1.99261e-06
3204.41	1.22563e-06
3213.09	7.07066e-07
3221.77	4.95076e-07
3230.44	6.9684e-07
3239.12	5.93104e-07
3247.8	5.55198e-07
3256.48	1.6843e-07
3265.16	-1.25427e-07
3273.83	-1.96041e-07
3282.51	-3.39999e-07
3291.19	-3.10634e-07
3299.87	-2.68751e-07
3308.55	-2.00118e-07
3317.22	-2.05794e-07
3325.9	-2.03339e-07
3334.58	-1.38023e-07
3343.26	-2.88126e-07
3351.94	-1.75863e-07
3360.62	1.27771e-07
3369.29	2.18431e-07
3377.97	3.62627e-07
3386.65	4.47773e-07
3395.33	3.25832e-07
3404.01	2.51162e-07
3412.68	3.93519e-07
3421.36	1.1228e-06
3430.04	2.82431e-06
3438.72	5.26049e-06
3447.4	8.92487e-06
3456.08	1.02396e-05
3464.75	9.99911e-06
3473.43	7.22584e-06
3482.11	2.84475e-06
3490.79	5.08979e-07
3499.47	-4.46029e-07
3508.14	-7.63631e-07
3516.82	-8.80502e-07
3525.5	-7.97198e-07
3534.18	-8.10148e-07
3542.86	-8.59849e-07
3551.53	-4.72569e-07
3560.21	-2.34124e-07
3568.89	2.18238e-07
3577.57	8.59613e-08
3586.25	6.14342e-07
3594.93	2.2044e-07
3603.6	-1.75535e-07
3612.28	2.06528e-07
3620.96	-2.9296e-07
3629.64	3.13258e-06
3638.32	-1.42024e-07
3646.99	6.21811e-07
3655.67	1.37447e-07
3664.35	-4.52366e-08
3673.03	-1.33566e-08
3681.71	-2.17711e-07
3690.39	1.77776e-08
3699.06	-2.36449e-07
3707.74	-2.11962e-07
3716.42	-2.99849e-07
3725.1	1.62802e-07
3733.78	-1.76905e-07
3742.45	-8.06672e-08
3751.13	7.2823e-08
3759.81	9.69648e-07
3768.49	-2.83094e-07
3777.17	-3.58033e-07
3785.85	-3.51945e-07
3794.52	-2.74973e-07
3803.2	3.58935e-08
3811.88	-2.38156e-07
3820.56	1.40809e-06
3829.24	-6.99017e-08
3837.91	5.97918e-06
3846.59	2.15736e-07
3855.27	5.4497e-07
3863.95	6.14002e-07
3872.63	5.97949e-07
3881.3	6.13733e-07
3889.98	1.77916e-07
3898.66	1.38511e-07
3907.34	-5.58175e-08
3916.02	7.32286e-08
3924.7	5.50381e-08
3933.37	9.48733e-08
3942.05	1.84483e-07
3950.73	1.01367e-07
3959.41	2.11111e-07
3968.09	3.91113e-07
