Infrared Spectrum: 2-Butanone
Formula: C H3 C H2 C O C H3
CAS: 78-93-3
State: gas
Melting point: -86.35 C
Boiling point: 79.6 C
Class: IUPAC A
Instrument: IFS66V (Bruker)
Instrument parameters: KBr Beam splitter; MCT Detector; Multipass cell
Sampling: 1 L/min Flow
Resolution: 1.9290
Temperature: 23 C
Pressure: 101.3 kPa
Origin: NIST, Anayltical Chemistry Division, 301-975-3108
cm-1	(micromol/mol)-1m-1 (base 10)
574.687	2.0624e-05
583.365	2.88935e-05
592.043	3.01758e-05
600.721	2.23071e-05
609.4	5.16746e-06
618.078	1.20671e-06
626.756	6.39232e-07
635.434	4.74347e-07
644.112	6.84723e-07
652.79	1.14928e-06
661.469	6.85346e-07
670.147	5.0171e-07
678.825	3.33595e-07
687.503	1.96052e-07
696.181	1.49853e-07
704.859	1.47749e-07
713.537	3.74063e-07
722.216	1.14823e-06
730.894	3.67654e-06
739.572	9.21728e-06
748.25	1.89444e-05
756.928	1.97391e-05
765.606	1.81403e-05
774.285	7.79631e-06
782.963	2.65291e-06
791.641	1.43343e-06
800.319	1.04249e-06
808.997	6.6704e-07
817.675	4.2684e-07
826.353	3.5872e-07
835.032	4.02508e-07
843.71	3.95003e-07
852.388	4.04764e-07
861.066	5.50164e-07
869.744	7.98487e-07
878.422	1.29945e-06
887.101	1.98651e-06
895.779	3.41476e-06
904.457	6.52405e-06
913.135	1.37434e-05
921.813	2.53537e-05
930.491	4.12528e-05
939.169	5.17784e-05
947.848	5.16983e-05
956.526	3.87528e-05
965.204	2.3861e-05
973.882	1.78405e-05
982.56	1.64567e-05
991.238	1.44283e-05
999.917	1.24422e-05
1008.59	7.95542e-06
1017.27	5.30968e-06
1025.95	3.77852e-06
1034.63	2.96251e-06
1043.31	3.13473e-06
1051.99	4.06218e-06
1060.66	6.14758e-06
1069.34	1.03405e-05
1078.02	1.56305e-05
1086.7	1.56388e-05
1095.38	1.52235e-05
1104.05	1.04754e-05
1112.73	9.23593e-06
1121.41	1.0048e-05
1130.09	1.30152e-05
1138.77	2.32255e-05
1147.45	6.69673e-05
1156.12	0.000158189
1164.8	0.000236424
1173.48	0.000265579
1182.16	0.000197326
1190.84	0.000128053
1199.51	7.2895e-05
1208.19	4.96451e-05
1216.87	3.04224e-05
1225.55	1.5799e-05
1234.23	1.17198e-05
1242.9	1.19968e-05
1251.58	1.38806e-05
1260.26	1.42666e-05
1268.94	1.32463e-05
1277.62	1.0623e-05
1286.3	8.81519e-06
1294.97	1.00703e-05
1303.65	1.4915e-05
1312.33	2.22196e-05
1321.01	3.19648e-05
1329.69	4.63609e-05
1338.36	6.75139e-05
1347.04	0.000109076
1355.72	0.000197069
1364.4	0.000227472
1373.08	0.000228922
1381.76	0.000126772
1390.43	6.30546e-05
1399.11	5.57922e-05
1407.79	5.94166e-05
1416.47	7.68733e-05
1425.15	7.6007e-05
1433.82	8.68681e-05
1442.5	7.91622e-05
1451.18	7.83608e-05
1459.86	9.10691e-05
1468.54	7.13488e-05
1477.22	6.11638e-05
1485.89	3.3132e-05
1494.57	2.04134e-05
1503.25	1.6335e-05
1511.93	1.6029e-05
1520.61	1.70024e-05
1529.28	1.42475e-05
1537.96	1.33016e-05
1546.64	1.05418e-05
1555.32	9.28602e-06
1564	7.60005e-06
1572.67	6.33176e-06
1581.35	5.52968e-06
1590.03	4.73901e-06
1598.71	3.94039e-06
1607.39	3.52605e-06
1616.07	4.53742e-06
1624.74	3.54901e-06
1633.42	3.58125e-06
1642.1	3.80161e-06
1650.78	4.4562e-06
1659.46	4.88386e-06
1668.13	6.87934e-06
1676.81	1.00414e-05
1685.49	1.85869e-05
1694.17	2.90784e-05
1702.85	5.63192e-05
1711.53	0.00012151
1720.2	0.000266043
1728.88	0.000482726
1737.56	0.000467791
1746.24	0.000560967
1754.92	0.000331363
1763.59	0.000142709
1772.27	5.58337e-05
1780.95	2.3856e-05
1789.63	1.12445e-05
1798.31	7.64676e-06
1806.98	5.0152e-06
1815.66	2.47033e-06
1824.34	1.73504e-06
1833.02	1.39212e-06
1841.7	1.49885e-06
1850.38	1.70346e-06
1859.05	2.11267e-06
1867.73	2.73861e-06
1876.41	2.85867e-06
1885.09	2.89478e-06
1893.77	2.68602e-06
1902.44	2.07897e-06
1911.12	1.68179e-06
1919.8	1.44349e-06
1928.48	1.30197e-06
1937.16	1.12549e-06
1945.84	1.09927e-06
1954.51	8.99302e-07
1963.19	6.6079e-07
1971.87	4.0427e-07
1980.55	5.22281e-07
1989.23	5.93683e-07
1997.9	6.82965e-07
2006.58	4.46196e-07
2015.26	2.59348e-07
2023.94	1.23794e-07
2032.62	1.09638e-07
2041.3	1.82511e-07
2049.97	2.00468e-07
2058.65	3.20954e-07
2067.33	5.09825e-07
2076.01	8.40375e-07
2084.69	1.37408e-06
2093.36	2.05295e-06
2102.04	2.70626e-06
2110.72	3.26387e-06
2119.4	3.30275e-06
2128.08	2.80431e-06
2136.75	1.86367e-06
2145.43	9.56187e-07
2154.11	6.68537e-07
2162.79	6.59692e-07
2171.47	7.30852e-07
2180.15	4.85959e-07
2188.82	2.48246e-07
2197.5	4.61188e-08
2206.18	-3.42346e-08
2214.86	5.37139e-09
2223.54	-5.81149e-08
2232.21	-1.04051e-07
2240.89	-1.41193e-07
2249.57	-9.88978e-08
2258.25	1.47154e-08
2266.93	2.75213e-07
2275.61	6.70325e-07
2284.28	1.13074e-06
2292.96	1.38226e-06
2301.64	1.37602e-06
2310.32	1.20125e-06
2319	1.02735e-06
2327.67	1.01163e-06
2336.35	1.02615e-06
2345.03	9.1298e-07
2353.71	1.07182e-06
2362.39	1.43572e-06
2371.06	1.21977e-06
2379.74	9.25893e-07
2388.42	6.77054e-07
2397.1	4.81468e-07
2405.78	4.18872e-07
2414.46	3.25759e-07
2423.13	2.84582e-07
2431.81	2.16205e-07
2440.49	2.02619e-07
2449.17	1.97232e-07
2457.85	3.67369e-07
2466.52	4.85359e-07
2475.2	5.80829e-07
2483.88	4.43561e-07
2492.56	4.47388e-07
2501.24	7.56687e-07
2509.92	1.04339e-06
2518.59	1.24525e-06
2527.27	9.96488e-07
2535.95	7.00797e-07
2544.63	4.32465e-07
2553.31	3.1989e-07
2561.98	2.82597e-07
2570.66	2.21101e-07
2579.34	9.5519e-08
2588.02	3.41937e-08
2596.7	7.67301e-08
2605.38	1.22735e-07
2614.05	1.7386e-07
2622.73	1.70485e-07
2631.41	1.06732e-07
2640.09	1.04726e-07
2648.77	1.9334e-07
2657.44	4.20812e-07
2666.12	7.46689e-07
2674.8	9.43493e-07
2683.48	9.65711e-07
2692.16	8.95648e-07
2700.83	8.02668e-07
2709.51	8.44644e-07
2718.19	9.98331e-07
2726.87	1.18084e-06
2735.55	1.72525e-06
2744.23	2.42531e-06
2752.9	2.74719e-06
2761.58	2.76132e-06
2770.26	2.16196e-06
2778.94	2.47957e-06
2787.62	3.54907e-06
2796.29	5.59854e-06
2804.97	7.62977e-06
2813.65	1.0779e-05
2822.33	1.24488e-05
2831.01	1.42159e-05
2839.69	1.52612e-05
2848.36	1.48321e-05
2857.04	1.50643e-05
2865.72	1.65223e-05
2874.4	2.82401e-05
2883.08	5.67763e-05
2891.75	8.31535e-05
2900.43	0.00010824
2909.11	0.000115405
2917.79	0.000139551
2926.47	0.000111692
2935.14	0.0001124
2943.82	0.000126386
2952.5	0.000119226
2961.18	0.000130227
2969.86	0.000134436
2978.54	0.000174235
2987.21	0.000194607
2995.89	0.00019237
3004.57	0.000135164
3013.25	8.46604e-05
3021.93	5.43709e-05
3030.6	3.22174e-05
3039.28	2.19802e-05
3047.96	1.9356e-05
3056.64	1.76687e-05
3065.32	1.57143e-05
3074	1.33224e-05
3082.67	1.04929e-05
3091.35	7.88337e-06
3100.03	6.12572e-06
3108.71	4.81187e-06
3117.39	3.67116e-06
3126.06	2.77396e-06
3134.74	2.34266e-06
3143.42	2.19898e-06
3152.1	2.33731e-06
3160.78	2.5678e-06
3169.46	3.03708e-06
3178.13	2.87461e-06
3186.81	2.98932e-06
3195.49	1.93699e-06
3204.17	1.25449e-06
3212.85	6.84694e-07
3221.52	4.76825e-07
3230.2	6.36219e-07
3238.88	5.73866e-07
3247.56	4.5878e-07
3256.24	1.59837e-07
3264.91	-1.27384e-07
3273.59	-1.69293e-07
3282.27	-3.10765e-07
3290.95	-3.12047e-07
3299.63	-2.49103e-07
3308.31	-2.01065e-07
3316.98	-1.7836e-07
3325.66	-2.08245e-07
3334.34	-1.8899e-07
3343.02	-2.04315e-07
3351.7	-1.5266e-07
3360.37	3.40009e-08
3369.05	2.95494e-07
3377.73	4.05091e-07
3386.41	4.59761e-07
3395.09	3.10802e-07
3403.77	2.13964e-07
3412.44	3.64442e-07
3421.12	1.15886e-06
3429.8	2.66958e-06
3438.48	5.23101e-06
3447.16	8.80792e-06
3455.83	1.02982e-05
3464.51	9.98759e-06
3473.19	7.33469e-06
3481.87	2.83488e-06
3490.55	5.41456e-07
3499.22	-4.24733e-07
3507.9	-7.1298e-07
3516.58	-9.05229e-07
3525.26	-8.05367e-07
3533.94	-8.45058e-07
3542.62	-7.74841e-07
3551.29	-5.60731e-07
3559.97	-3.29619e-07
3568.65	4.17969e-07
3577.33	5.75564e-08
3586.01	4.74353e-07
3594.68	2.87307e-07
3603.36	-1.33681e-07
3612.04	-7.29485e-08
3620.72	-6.4614e-08
3629.4	1.02908e-06
3638.08	-2.65753e-07
3646.75	3.52823e-07
3655.43	4.16129e-07
3664.11	-1.12942e-07
3672.79	1.11108e-07
3681.47	-2.14896e-07
3690.14	3.32446e-07
3698.82	-2.70805e-07
3707.5	-2.12912e-07
3716.18	-2.77933e-07
3724.86	-8.37758e-08
3733.54	3.92309e-07
3742.21	8.54511e-08
3750.89	1.07134e-06
3759.57	1.36317e-07
3768.25	-1.92473e-07
3776.93	-3.34835e-07
3785.6	-2.32852e-07
3794.28	-2.59674e-07
3802.96	3.30817e-07
3811.64	-1.92186e-07
3820.32	7.04681e-07
3828.99	2.90706e-08
3837.67	1.71821e-06
3846.35	2.6163e-07
3855.03	2.28853e-06
3863.71	8.58989e-07
3872.39	6.48424e-07
3881.06	7.90736e-07
3889.74	3.67106e-07
3898.42	4.59349e-07
3907.1	1.22181e-07
3915.78	1.08516e-07
3924.45	1.79188e-07
3933.13	1.94872e-07
3941.81	1.65444e-07
3950.49	8.19141e-08
3959.17	2.55864e-07
3967.85	3.99266e-07
