Infrared Spectrum: 2-Butanone
Formula: C H3 C H2 C O C H3
CAS: 78-93-3
State: gas
Melting point: -86.35 C
Boiling point: 79.6 C
Class: IUPAC A
Instrument: IFS66V (Bruker)
Instrument parameters: KBr Beam splitter; MCT Detector; Multipass cell
Sampling: 1 L/min Flow
Resolution: 0.1250
Temperature: 23 C
Pressure: 101.3 kPa
Origin: NIST, Anayltical Chemistry Division, 301-975-3108
cm-1	(micromol/mol)-1m-1 (base 10)
3975.02	3.81087e-07
3966.46	2.7219e-07
3957.9	1.51494e-07
3949.34	2.09493e-07
3940.79	-1.34995e-07
3932.23	4.99883e-07
3923.67	1.84594e-07
3915.11	2.36692e-07
3906.56	3.25189e-07
3898	3.95787e-07
3889.44	3.72187e-07
3880.88	6.16179e-07
3872.33	3.34988e-07
3863.77	7.02576e-07
3855.21	6.21579e-07
3846.65	-9.22563e-08
3838.09	2.44692e-06
3829.54	-7.19672e-08
3820.98	8.65171e-07
3812.42	7.32673e-08
3803.86	-3.53087e-07
3795.31	-2.58291e-07
3786.75	-1.51995e-07
3778.19	-8.24967e-08
3769.63	4.42285e-07
3761.08	-2.8679e-07
3752.52	2.57991e-06
3743.96	3.50688e-06
3735.4	1.64394e-06
3726.85	-7.67069e-08
3718.29	-1.54295e-07
3709.73	2.54991e-07
3701.17	-2.35992e-07
3692.62	-2.50491e-07
3684.06	7.79106e-09
3675.5	6.45078e-07
3666.94	-2.12393e-07
3658.38	-1.91593e-07
3649.83	-2.45887e-08
3641.27	-2.51991e-07
3632.71	-3.37488e-07
3624.15	-4.08286e-07
3615.6	-2.9599e-07
3607.04	7.79074e-07
3598.48	2.49791e-07
3589.92	3.85686e-07
3581.37	8.20772e-07
3572.81	2.27592e-07
3564.25	-7.00572e-08
3555.69	-3.23689e-07
3547.14	-2.39892e-07
3538.58	-9.97067e-07
3530.02	-5.7958e-07
3521.46	-8.34772e-07
3512.91	-1.00297e-06
3504.35	-8.49571e-07
3495.79	-4.18186e-07
3487.23	1.06496e-06
3478.67	4.19286e-06
3470.12	8.76771e-06
3461.56	9.24169e-06
3453	1.01697e-05
3444.44	7.61474e-06
3435.89	4.16086e-06
3427.33	2.01293e-06
3418.77	9.84866e-07
3410.21	2.32592e-07
3401.66	4.99883e-07
3393.1	6.43978e-07
3384.54	3.95286e-07
3375.98	2.7339e-07
3367.43	2.40289e-08
3358.87	-8.42065e-08
3350.31	-4.84284e-07
3341.75	-1.04496e-07
3333.2	-4.22585e-07
3324.64	-8.05772e-08
3316.08	-1.42495e-07
3307.52	-1.24895e-07
3298.96	-5.7788e-07
3290.41	-1.07396e-07
3281.85	-5.52781e-07
3273.29	-5.32182e-07
3264.73	-4.02586e-07
3256.18	3.45788e-07
3247.62	4.32185e-07
3239.06	3.85087e-07
3230.5	7.09976e-07
3221.95	2.65291e-07
3213.39	8.34472e-07
3204.83	1.05996e-06
3196.27	2.01193e-06
3187.72	2.74091e-06
3179.16	3.1069e-06
3170.6	3.25789e-06
3162.04	2.65991e-06
3153.48	2.70591e-06
3144.93	2.23193e-06
3136.37	2.10093e-06
3127.81	2.74491e-06
3119.25	3.46288e-06
3110.7	4.38085e-06
3102.14	5.70281e-06
3093.58	7.72974e-06
3085.02	9.83067e-06
3076.47	1.26496e-05
3067.91	1.48695e-05
3059.35	1.74594e-05
3050.79	1.88294e-05
3042.24	2.06993e-05
3033.68	2.64791e-05
3025.12	4.62385e-05
3016.56	6.67178e-05
3008.01	0.000110896
2999.45	0.000172794
2990.89	0.000232392
2982.33	0.000190494
2973.77	0.000146995
2965.22	0.000122196
2956.66	0.000127396
2948.1	0.000119996
2939.54	0.000129596
2930.99	0.000105496
2922.43	0.000121296
2913.87	0.000123096
2905.31	0.000111296
2896.76	9.86467e-05
2888.2	6.39379e-05
2879.64	4.66784e-05
2871.08	2.12493e-05
2862.53	1.54895e-05
2853.97	1.48295e-05
2845.41	1.48495e-05
2836.85	1.53395e-05
2828.3	1.36595e-05
2819.74	1.23396e-05
2811.18	9.77867e-06
2802.62	6.90377e-06
2794.06	5.19083e-06
2785.51	3.0849e-06
2776.95	2.38292e-06
2768.39	1.99393e-06
2759.83	2.71891e-06
2751.28	2.65591e-06
2742.72	2.30992e-06
2734.16	1.84694e-06
2725.6	1.25596e-06
2717.05	8.40772e-07
2708.49	7.57474e-07
2699.93	8.20772e-07
2691.37	7.88173e-07
2682.82	9.73867e-07
2674.26	1.03097e-06
2665.7	6.98576e-07
2657.14	4.27785e-07
2648.59	2.00893e-07
2640.03	6.60073e-08
2631.47	3.59481e-08
2622.91	3.38288e-07
2614.35	3.00489e-07
2605.8	1.78494e-07
2597.24	2.63491e-07
2588.68	1.56295e-07
2580.12	1.72294e-07
2571.57	8.41364e-08
2563.01	3.57387e-07
2554.45	4.30085e-07
2545.89	4.36585e-07
2537.34	6.53478e-07
2528.78	9.90567e-07
2520.22	1.23896e-06
2511.66	1.08396e-06
2503.11	6.83677e-07
2494.55	4.83484e-07
2485.99	3.59788e-07
2477.43	4.43585e-07
2468.87	4.75984e-07
2460.32	3.85487e-07
2451.76	2.16492e-07
2443.2	1.98893e-07
2434.64	1.05396e-07
2426.09	3.20489e-07
2417.53	1.47695e-07
2408.97	3.19489e-07
2400.41	4.92983e-07
2391.86	6.03379e-07
2383.3	8.51871e-07
2374.74	1.51495e-06
2366.18	1.04997e-06
2357.63	1.03597e-06
2349.07	9.56468e-07
2340.51	9.72467e-07
2331.95	8.58071e-07
2323.4	8.7697e-07
2314.84	1.07196e-06
2306.28	1.31996e-06
2297.72	1.31496e-06
2289.16	1.18696e-06
2280.61	6.91976e-07
2272.05	5.39782e-07
2263.49	2.55091e-07
2254.93	-6.39574e-08
2246.38	-3.61387e-07
2237.82	-1.74394e-07
2229.26	-1.77494e-07
2220.7	-3.97784e-08
2212.15	-9.05615e-09
2203.59	9.79765e-08
2195.03	1.13496e-07
2186.47	2.49091e-07
2177.92	5.56481e-07
2169.36	8.27772e-07
2160.8	6.20179e-07
2152.24	7.83373e-07
2143.69	1.06996e-06
2135.13	2.04893e-06
2126.57	2.9589e-06
2118.01	3.31689e-06
2109.45	3.1029e-06
2100.9	2.68991e-06
2092.34	1.90894e-06
2083.78	1.22496e-06
2075.22	7.22275e-07
2066.67	5.26082e-07
2058.11	2.7859e-07
2049.55	1.81394e-07
2040.99	2.45491e-07
2032.44	1.61395e-07
2023.88	1.72394e-07
2015.32	2.20192e-07
2006.76	3.96986e-07
1998.21	6.14279e-07
1989.65	6.0158e-07
1981.09	5.67481e-07
1972.53	2.9749e-07
1963.97	5.57081e-07
1955.42	8.14372e-07
1946.86	1.00497e-06
1938.3	1.09796e-06
1929.74	1.21696e-06
1921.19	1.45295e-06
1912.63	1.64894e-06
1904.07	1.94593e-06
1895.51	2.48192e-06
1886.96	2.83291e-06
1878.4	2.9509e-06
1869.84	2.77491e-06
1861.28	2.14593e-06
1852.73	1.78494e-06
1844.17	6.91677e-06
1835.61	1.45395e-06
1827.05	1.43495e-06
1818.5	1.92694e-06
1809.94	3.92987e-06
1801.38	7.76774e-06
1792.82	1.04797e-05
1784.26	1.77794e-05
1775.71	3.91887e-05
1767.15	9.60468e-05
1758.59	0.000236992
1750.03	0.000477684
1741.48	0.000505483
1732.92	0.000536482
1724.36	0.000368788
1715.8	0.000179094
1707.25	8.26173e-05
1698.69	3.89487e-05
1690.13	2.32192e-05
1681.57	1.31596e-05
1673.02	8.02973e-06
1664.46	5.65681e-06
1655.9	4.44985e-06
1647.34	6.0188e-06
1638.79	3.55788e-06
1630.23	3.34889e-06
1621.67	3.29489e-06
1613.11	3.20289e-06
1604.55	3.52288e-06
1596	3.86987e-06
1587.44	4.97184e-06
1578.88	5.66481e-06
1570.32	6.79177e-06
1561.77	7.86374e-06
1553.21	8.9847e-06
1544.65	1.08396e-05
1536.09	1.27496e-05
1527.54	1.45695e-05
1518.98	1.56995e-05
1510.42	1.60195e-05
1501.86	1.70094e-05
1493.31	2.12493e-05
1484.75	3.59088e-05
1476.19	6.56678e-05
1467.63	7.32775e-05
1459.08	9.54968e-05
1450.52	7.73374e-05
1441.96	7.94873e-05
1433.4	8.79271e-05
1424.84	7.48575e-05
1416.29	7.66275e-05
1407.73	5.9268e-05
1399.17	5.77681e-05
1390.61	6.28679e-05
1382.06	0.000121496
1373.5	0.000230792
1364.94	0.000233292
1356.38	0.000202793
1347.83	0.000115896
1339.27	7.00577e-05
1330.71	4.84284e-05
1322.15	3.34789e-05
1313.6	2.36692e-05
1305.04	1.59095e-05
1296.48	1.06296e-05
1287.92	8.69571e-06
1279.36	1.01197e-05
1270.81	1.27396e-05
1262.25	1.37895e-05
1253.69	1.41895e-05
1245.13	1.24896e-05
1236.58	1.13496e-05
1228.02	1.40495e-05
1219.46	2.44892e-05
1210.9	4.45685e-05
1202.35	6.39479e-05
1193.79	0.000103297
1185.23	0.000177494
1176.67	0.000251892
1168.12	0.000252992
1159.56	0.000187094
1151	0.000103397
1142.44	3.43388e-05
1133.89	1.57495e-05
1125.33	1.10496e-05
1116.77	9.26869e-06
1108.21	9.84267e-06
1099.65	1.25196e-05
1091.1	1.47695e-05
1082.54	1.65994e-05
1073.98	1.32596e-05
1065.42	8.50372e-06
1056.87	5.08683e-06
1048.31	3.48488e-06
1039.75	3.0039e-06
1031.19	3.30689e-06
1022.64	4.54785e-06
1014.08	6.0838e-06
1005.52	9.55268e-06
996.963	1.31296e-05
988.406	1.51895e-05
979.848	1.71994e-05
971.29	1.89594e-05
962.733	2.70391e-05
954.175	4.36785e-05
945.618	5.14683e-05
937.06	4.98183e-05
928.502	3.73087e-05
919.945	2.25992e-05
911.387	1.19896e-05
902.829	5.62381e-06
894.272	2.8429e-06
885.714	1.97693e-06
877.157	1.25196e-06
868.599	7.92973e-07
860.041	2.9479e-07
851.484	3.02789e-07
842.926	6.96876e-07
834.368	6.16079e-07
825.811	8.48568e-08
817.253	4.19386e-07
808.696	8.56571e-07
800.138	7.69074e-07
791.58	1.19296e-06
783.023	3.0939e-06
774.465	7.78074e-06
765.907	1.84194e-05
757.35	1.91094e-05
748.792	2.03593e-05
740.235	9.85367e-06
731.677	3.62188e-06
723.119	1.59795e-06
714.562	1.35995e-06
706.004	5.11183e-07
697.446	-1.42295e-07
688.889	7.38975e-07
680.331	6.04979e-07
671.774	1.29596e-06
663.216	3.35288e-07
654.658	5.47781e-07
646.101	6.99376e-07
637.543	1.74694e-07
628.985	8.45871e-07
620.428	1.85293e-07
611.87	4.05986e-06
603.313	1.60295e-05
594.755	2.9089e-05
586.197	3.25589e-05
577.64	2.68891e-05
