Infrared Spectrum: 2-Butanone
Formula: C H3 C H2 C O C H3
CAS: 78-93-3
State: gas
Melting point: -86.35 C
Boiling point: 79.6 C
Class: IUPAC A
Instrument: IFS66V (Bruker)
Instrument parameters: KBr Beam splitter; MCT Detector; Multipass cell
Sampling: 1 L/min Flow
Resolution: 0.1250
Temperature: 23 C
Pressure: 101.3 kPa
Origin: NIST, Anayltical Chemistry Division, 301-975-3108
cm-1	(micromol/mol)-1m-1 (base 10)
574.988	2.10122e-05
583.546	2.73117e-05
592.103	3.01582e-05
600.661	2.16225e-05
609.219	5.67012e-06
617.776	1.58533e-06
626.334	6.2999e-07
634.891	5.0092e-07
643.449	7.72975e-07
652.007	1.53867e-06
660.564	5.11281e-07
669.122	7.40172e-07
677.68	2.75233e-07
686.237	3.7917e-07
694.795	2.0649e-07
703.352	-2.00086e-09
711.91	5.9905e-07
720.468	8.14028e-07
729.025	2.9724e-06
737.583	7.38308e-06
746.141	1.54422e-05
754.698	2.12049e-05
763.256	1.93612e-05
771.813	1.09625e-05
780.371	3.49424e-06
788.929	1.51483e-06
797.486	1.05835e-06
806.044	6.05682e-07
814.602	5.4917e-07
823.159	3.0236e-07
831.717	5.20414e-07
840.274	4.31236e-07
848.832	3.83074e-07
857.39	5.95918e-07
865.947	7.75536e-07
874.505	1.08926e-06
883.063	1.78883e-06
891.62	2.65027e-06
900.178	4.65877e-06
908.735	9.59915e-06
917.293	1.84368e-05
925.851	3.19728e-05
934.408	4.8447e-05
942.966	5.29831e-05
951.524	4.85228e-05
960.081	3.16454e-05
968.639	2.05643e-05
977.196	1.70915e-05
985.754	1.54264e-05
994.312	1.35768e-05
1002.87	1.13214e-05
1011.43	6.80379e-06
1019.98	4.79736e-06
1028.54	3.50326e-06
1037.1	2.79582e-06
1045.66	3.31373e-06
1054.22	4.53955e-06
1062.77	7.00603e-06
1071.33	1.13906e-05
1079.89	1.64232e-05
1088.45	1.49584e-05
1097	1.42276e-05
1105.56	1.01398e-05
1114.12	9.20648e-06
1122.68	1.03831e-05
1131.23	1.37149e-05
1139.79	2.55263e-05
1148.35	7.53197e-05
1156.91	0.000164811
1165.46	0.00024339
1174.02	0.000267314
1182.58	0.000193864
1191.14	0.000125207
1199.69	7.20733e-05
1208.25	4.94682e-05
1216.81	3.05082e-05
1225.37	1.60051e-05
1233.93	1.18049e-05
1242.48	1.17979e-05
1251.04	1.3849e-05
1259.6	1.44241e-05
1268.16	1.35137e-05
1276.71	1.0873e-05
1285.27	8.85115e-06
1293.83	9.63171e-06
1302.39	1.40854e-05
1310.94	2.0934e-05
1319.5	2.99895e-05
1328.06	4.32356e-05
1336.62	6.28554e-05
1345.17	9.44078e-05
1353.73	0.000178595
1362.29	0.000215723
1370.85	0.000218031
1379.4	0.000167874
1387.96	6.593e-05
1396.52	5.83775e-05
1405.08	5.62515e-05
1413.64	7.22226e-05
1422.19	7.45054e-05
1430.75	8.94978e-05
1439.31	7.95792e-05
1447.87	7.96448e-05
1456.42	0.000111813
1464.98	6.86329e-05
1473.54	7.33568e-05
1482.1	4.40469e-05
1490.65	2.52387e-05
1499.21	1.77635e-05
1507.77	1.63411e-05
1516.33	1.62392e-05
1524.88	1.52651e-05
1533.44	1.39482e-05
1542	1.53422e-05
1550.56	9.73884e-06
1559.11	8.81552e-06
1567.67	6.96022e-06
1576.23	1.54579e-05
1584.79	5.2111e-06
1593.35	4.37994e-06
1601.9	3.65946e-06
1610.46	3.37346e-06
1619.02	3.21556e-06
1627.58	3.6821e-06
1636.13	4.0571e-06
1644.69	4.06378e-06
1653.25	1.4857e-05
1661.81	5.48735e-06
1670.36	7.33058e-06
1678.92	1.10376e-05
1687.48	1.90739e-05
1696.04	3.9397e-05
1704.59	6.63997e-05
1713.15	0.000140696
1721.71	0.00030116
1730.27	0.000511055
1738.83	0.000451927
1747.38	0.000544253
1755.94	0.000302204
1764.5	0.000128982
1773.06	5.10091e-05
1781.61	2.23637e-05
1790.17	1.10649e-05
1798.73	7.41024e-06
1807.29	4.86246e-06
1815.84	2.4391e-06
1824.4	1.58398e-06
1832.96	1.40262e-06
1841.52	1.55257e-06
1850.07	1.66574e-06
1858.63	2.13234e-06
1867.19	2.53223e-06
1875.75	2.89258e-06
1884.3	2.93412e-06
1892.86	2.78515e-06
1901.42	2.04443e-06
1909.98	2.05345e-06
1918.54	1.49211e-06
1927.09	1.34175e-06
1935.65	1.12038e-06
1944.21	1.15912e-06
1952.77	9.60985e-07
1961.32	7.98584e-07
1969.88	5.16893e-07
1978.44	4.75491e-07
1987	5.9384e-07
1995.55	6.20617e-07
2004.11	5.8609e-07
2012.67	3.05267e-07
2021.23	2.02236e-07
2029.78	9.89878e-08
2038.34	1.76704e-07
2046.9	1.9053e-07
2055.46	2.21371e-07
2064.01	5.0757e-07
2072.57	7.02077e-07
2081.13	1.07537e-06
2089.69	1.76524e-06
2098.25	2.30348e-06
2106.8	3.01357e-06
2115.36	3.42208e-06
2123.92	3.07103e-06
2132.48	2.46291e-06
2141.03	1.32596e-06
2149.59	8.35581e-07
2158.15	5.94672e-07
2166.71	7.82346e-07
2175.26	6.29327e-07
2183.82	4.25566e-07
2192.38	1.33107e-07
2200.94	5.36239e-08
2209.49	-2.62822e-08
2218.05	-6.57463e-08
2226.61	-6.62811e-08
2235.17	-1.15483e-07
2243.72	-2.05243e-07
2252.28	-7.63254e-08
2260.84	4.94148e-08
2269.4	3.85888e-07
2277.96	7.40277e-07
2286.51	1.16695e-06
2295.07	1.5394e-06
2303.63	1.30042e-06
2312.19	1.14249e-06
2320.74	9.95249e-07
2329.3	7.44682e-07
2337.86	1.0595e-06
2346.42	8.73124e-07
2354.97	1.00444e-06
2363.53	1.14589e-06
2372.09	1.08356e-06
2380.65	9.04463e-07
2389.2	6.50754e-07
2397.76	5.21666e-07
2406.32	3.93083e-07
2414.88	3.19044e-07
2423.44	1.8164e-07
2431.99	2.11973e-07
2440.55	2.14753e-07
2449.11	1.44254e-07
2457.67	3.55017e-07
2466.22	4.98253e-07
2474.78	5.56392e-07
2483.34	4.78025e-07
2491.9	4.38822e-07
2500.45	7.47624e-07
2509.01	1.02582e-06
2517.57	1.3231e-06
2526.13	9.71111e-07
2534.68	8.01834e-07
2543.24	4.47817e-07
2551.8	3.04346e-07
2560.36	2.54138e-07
2568.91	2.63374e-07
2577.47	1.72964e-07
2586.03	1.20834e-07
2594.59	1.24817e-08
2603.15	6.39001e-08
2611.7	1.81704e-07
2620.26	1.89379e-07
2628.82	2.04088e-07
2637.38	3.97306e-08
2645.93	1.12238e-07
2654.49	3.85097e-07
2663.05	6.03831e-07
2671.61	8.21729e-07
2680.16	9.70166e-07
2688.72	8.67163e-07
2697.28	8.28817e-07
2705.84	7.75578e-07
2714.39	8.97812e-07
2722.95	1.22874e-06
2731.51	1.42065e-06
2740.07	2.05989e-06
2748.62	2.6688e-06
2757.18	2.89439e-06
2765.74	2.38721e-06
2774.3	2.18605e-06
2782.86	2.82656e-06
2791.41	4.35785e-06
2799.97	6.42501e-06
2808.53	9.05257e-06
2817.09	1.17063e-05
2825.64	1.30937e-05
2834.2	1.48532e-05
2842.76	1.48235e-05
2851.32	1.47971e-05
2859.87	1.53312e-05
2868.43	1.81994e-05
2876.99	3.65512e-05
2885.55	5.9992e-05
2894.1	8.81177e-05
2902.66	0.000110082
2911.22	0.000118782
2919.78	0.000128496
2928.34	0.000107537
2936.89	0.000118731
2945.45	0.000120028
2954.01	0.000118123
2962.57	0.000126231
2971.12	0.00013605
2979.68	0.00017949
2988.24	0.00019211
2996.8	0.000188997
3005.35	0.000129383
3013.91	8.41749e-05
3022.47	5.31401e-05
3031.03	3.12592e-05
3039.58	2.1884e-05
3048.14	1.92561e-05
3056.7	1.7537e-05
3065.26	1.5745e-05
3073.81	1.34275e-05
3082.37	1.06804e-05
3090.93	8.03111e-06
3099.49	6.36674e-06
3108.05	4.89564e-06
3116.6	3.77581e-06
3125.16	3.02155e-06
3133.72	2.52098e-06
3142.28	2.08718e-06
3150.83	2.07914e-06
3159.39	2.35985e-06
3167.95	2.8981e-06
3176.51	2.78638e-06
3185.06	3.36278e-06
3193.62	2.20305e-06
3202.18	1.47668e-06
3210.74	6.89509e-07
3219.29	4.88824e-07
3227.85	5.37102e-07
3236.41	8.74952e-07
3244.97	7.39957e-07
3253.52	2.32415e-07
3262.08	-7.25383e-08
3270.64	-2.79053e-07
3279.2	-2.70874e-07
3287.76	-5.53886e-07
3296.31	-3.01601e-07
3304.87	-1.3416e-07
3313.43	-2.94845e-07
3321.99	-2.10351e-07
3330.54	-2.20551e-07
3339.1	-2.81504e-07
3347.66	-4.25883e-07
3356.22	-1.95589e-07
3364.77	2.23477e-07
3373.33	3.36604e-07
3381.89	2.50948e-07
3390.45	4.855e-07
3399	1.92317e-07
3407.56	2.50976e-07
3416.12	5.49054e-07
3424.68	1.69931e-06
3433.23	3.52731e-06
3441.79	6.70706e-06
3450.35	9.97156e-06
3458.91	9.50303e-06
3467.47	9.991e-06
3476.02	5.32639e-06
3484.58	1.80972e-06
3493.14	3.10844e-07
3501.7	-4.16656e-07
3510.25	-7.4664e-07
3518.81	-7.15879e-07
3527.37	-7.19815e-07
3535.93	-7.59167e-07
3544.48	-7.11217e-07
3553.04	-7.19439e-07
3561.6	-2.522e-07
3570.16	2.60293e-07
3578.71	8.76393e-08
3587.27	7.52322e-08
3595.83	2.36366e-07
3604.39	-2.61515e-07
3612.95	-1.03318e-07
3621.5	-2.72542e-07
3630.06	4.74357e-08
3638.62	-2.24683e-07
3647.18	1.29668e-06
3655.73	1.28564e-07
3664.29	-7.39489e-08
3672.85	-2.00087e-07
3681.41	-1.34766e-07
3689.96	-1.30047e-07
3698.52	-1.08765e-07
3707.08	-3.32837e-07
3715.64	-1.8749e-07
3724.19	-3.92103e-07
3732.75	-1.13303e-08
3741.31	7.64086e-07
3749.87	8.87887e-07
3758.42	-2.5085e-07
3766.98	-2.26626e-07
3775.54	-3.59282e-07
3784.1	-2.32517e-07
3792.66	-3.18017e-07
3801.21	2.374e-06
3809.77	-3.25722e-07
3818.33	-3.60863e-08
3826.89	7.86395e-07
3835.44	4.12231e-07
3844	6.97074e-07
3852.56	1.11295e-06
3861.12	7.58926e-07
3869.67	1.1362e-06
3878.23	4.26601e-07
3886.79	3.36549e-07
3895.35	1.29101e-08
3903.9	4.91938e-07
3912.46	3.3035e-08
3921.02	-2.58944e-07
3929.58	1.6248e-07
3938.13	2.29735e-09
3946.69	1.99335e-07
3955.25	5.16066e-08
3963.81	1.06549e-07
3972.37	3.98923e-07
