Infrared Spectrum: 2-Butanone
Formula: C H3 C H2 C O C H3
CAS: 78-93-3
State: gas
Melting point: -86.35 C
Boiling point: 79.6 C
Class: IUPAC A
Instrument: IFS66V (Bruker)
Instrument parameters: KBr Beam splitter; MCT Detector; Multipass cell
Sampling: 1 L/min Flow
Resolution: 0.1250
Temperature: 23 C
Pressure: 101.3 kPa
Origin: NIST, Anayltical Chemistry Division, 301-975-3108
cm-1	(micromol/mol)-1m-1 (base 10)
574.988	2.10204e-05
583.546	2.72354e-05
592.103	3.01563e-05
600.661	2.15847e-05
609.219	5.67586e-06
617.776	1.59375e-06
626.334	6.39178e-07
634.891	5.08042e-07
643.449	7.77377e-07
652.007	1.54248e-06
660.564	4.92321e-07
669.122	7.30191e-07
677.68	2.78401e-07
686.237	3.92406e-07
694.795	2.33181e-07
703.352	-1.60114e-08
711.91	6.19581e-07
720.468	8.16001e-07
729.025	2.98572e-06
737.583	7.36531e-06
746.141	1.54231e-05
754.698	2.12222e-05
763.256	1.93928e-05
771.813	1.09829e-05
780.371	3.49671e-06
788.929	1.49175e-06
797.486	1.03623e-06
806.044	5.86133e-07
814.602	5.61645e-07
823.159	2.88984e-07
831.717	5.22158e-07
840.274	4.27156e-07
848.832	3.70135e-07
857.39	5.92168e-07
865.947	7.73652e-07
874.505	1.08366e-06
883.063	1.79641e-06
891.62	2.64965e-06
900.178	4.6463e-06
908.735	9.59048e-06
917.293	1.84126e-05
925.851	3.1971e-05
934.408	4.85051e-05
942.966	5.30242e-05
951.524	4.85601e-05
960.081	3.16583e-05
968.639	2.05572e-05
977.196	1.70739e-05
985.754	1.54118e-05
994.312	1.35625e-05
1002.87	1.13147e-05
1011.43	6.79905e-06
1019.98	4.78166e-06
1028.54	3.51179e-06
1037.1	2.77403e-06
1045.66	3.30807e-06
1054.22	4.53878e-06
1062.77	6.9988e-06
1071.33	1.13736e-05
1079.89	1.64214e-05
1088.45	1.49475e-05
1097	1.42141e-05
1105.56	1.01165e-05
1114.12	9.18081e-06
1122.68	1.03462e-05
1131.23	1.36486e-05
1139.79	2.54225e-05
1148.35	7.52647e-05
1156.91	0.000164893
1165.46	0.000243618
1174.02	0.000267656
1182.58	0.000193936
1191.14	0.0001252
1199.69	7.20064e-05
1208.25	4.94275e-05
1216.81	3.04677e-05
1225.37	1.59626e-05
1233.93	1.17711e-05
1242.48	1.17522e-05
1251.04	1.3837e-05
1259.6	1.44148e-05
1268.16	1.35072e-05
1276.71	1.08545e-05
1285.27	8.81606e-06
1293.83	9.5954e-06
1302.39	1.40537e-05
1310.94	2.09138e-05
1319.5	2.99568e-05
1328.06	4.31893e-05
1336.62	6.2846e-05
1345.17	9.43142e-05
1353.73	0.000178714
1362.29	0.0002158
1370.85	0.000218084
1379.4	0.000167971
1387.96	6.57458e-05
1396.52	5.83236e-05
1405.08	5.62419e-05
1413.64	7.22175e-05
1422.19	7.44758e-05
1430.75	8.95397e-05
1439.31	7.9565e-05
1447.87	7.9745e-05
1456.42	0.000112227
1464.98	6.86828e-05
1473.54	7.37848e-05
1482.1	4.40236e-05
1490.65	2.52111e-05
1499.21	1.76927e-05
1507.77	1.62661e-05
1516.33	1.62419e-05
1524.88	1.52526e-05
1533.44	1.38853e-05
1542	1.55106e-05
1550.56	9.71155e-06
1559.11	8.6939e-06
1567.67	6.94795e-06
1576.23	1.61382e-05
1584.79	5.20067e-06
1593.35	4.36248e-06
1601.9	3.63917e-06
1610.46	3.35361e-06
1619.02	3.19304e-06
1627.58	3.63544e-06
1636.13	3.96148e-06
1644.69	4.02887e-06
1653.25	1.55306e-05
1661.81	5.44973e-06
1670.36	7.28223e-06
1678.92	1.0973e-05
1687.48	1.8998e-05
1696.04	3.97241e-05
1704.59	6.62964e-05
1713.15	0.000140542
1721.71	0.000301214
1730.27	0.000511673
1738.83	0.000451685
1747.38	0.000544983
1755.94	0.000302238
1764.5	0.00012882
1773.06	5.07624e-05
1781.61	2.22585e-05
1790.17	1.10029e-05
1798.73	7.34922e-06
1807.29	4.81934e-06
1815.84	2.40764e-06
1824.4	1.5528e-06
1832.96	1.37929e-06
1841.52	1.53641e-06
1850.07	1.65323e-06
1858.63	2.12395e-06
1867.19	2.51682e-06
1875.75	2.89124e-06
1884.3	2.93071e-06
1892.86	2.77814e-06
1901.42	2.02887e-06
1909.98	2.07835e-06
1918.54	1.46877e-06
1927.09	1.33768e-06
1935.65	1.11108e-06
1944.21	1.15807e-06
1952.77	9.61088e-07
1961.32	7.98945e-07
1969.88	5.15839e-07
1978.44	4.71676e-07
1987	5.90477e-07
1995.55	6.13909e-07
2004.11	5.90167e-07
2012.67	3.01542e-07
2021.23	2.01942e-07
2029.78	9.44941e-08
2038.34	1.78214e-07
2046.9	1.88672e-07
2055.46	2.16207e-07
2064.01	5.06608e-07
2072.57	6.95729e-07
2081.13	1.07111e-06
2089.69	1.76046e-06
2098.25	2.29229e-06
2106.8	3.01217e-06
2115.36	3.41442e-06
2123.92	3.07428e-06
2132.48	2.46553e-06
2141.03	1.32293e-06
2149.59	8.32182e-07
2158.15	5.87735e-07
2166.71	7.89645e-07
2175.26	6.26925e-07
2183.82	4.23133e-07
2192.38	1.31181e-07
2200.94	5.09527e-08
2209.49	-2.48834e-08
2218.05	-7.01718e-08
2226.61	-6.49414e-08
2235.17	-1.18529e-07
2243.72	-2.16207e-07
2252.28	-8.13339e-08
2260.84	4.82988e-08
2269.4	3.83025e-07
2277.96	7.36341e-07
2286.51	1.1672e-06
2295.07	1.54948e-06
2303.63	1.30247e-06
2312.19	1.14208e-06
2320.74	9.85758e-07
2329.3	7.29412e-07
2337.86	1.03155e-06
2346.42	8.68869e-07
2354.97	9.96672e-07
2363.53	1.12602e-06
2372.09	1.07381e-06
2380.65	9.0452e-07
2389.2	6.50989e-07
2397.76	5.23726e-07
2406.32	3.92212e-07
2414.88	3.2094e-07
2423.44	1.7536e-07
2431.99	2.1291e-07
2440.55	2.10758e-07
2449.11	1.38107e-07
2457.67	3.56889e-07
2466.22	4.98835e-07
2474.78	5.57484e-07
2483.34	4.77853e-07
2491.9	4.37524e-07
2500.45	7.40587e-07
2509.01	1.02937e-06
2517.57	1.32989e-06
2526.13	9.67923e-07
2534.68	8.06244e-07
2543.24	4.47308e-07
2551.8	2.96276e-07
2560.36	2.54138e-07
2568.91	2.64444e-07
2577.47	1.75577e-07
2586.03	1.2413e-07
2594.59	5.52964e-09
2603.15	5.57338e-08
2611.7	1.77397e-07
2620.26	1.87764e-07
2628.82	2.08292e-07
2637.38	2.82666e-08
2645.93	1.0951e-07
2654.49	3.80959e-07
2663.05	5.92322e-07
2671.61	8.15332e-07
2680.16	9.67096e-07
2688.72	8.57505e-07
2697.28	8.26036e-07
2705.84	7.7255e-07
2714.39	8.95382e-07
2722.95	1.24798e-06
2731.51	1.42012e-06
2740.07	2.04714e-06
2748.62	2.66607e-06
2757.18	2.90487e-06
2765.74	2.3758e-06
2774.3	2.1737e-06
2782.86	2.81474e-06
2791.41	4.34992e-06
2799.97	6.41698e-06
2808.53	9.06137e-06
2817.09	1.17077e-05
2825.64	1.30898e-05
2834.2	1.48418e-05
2842.76	1.48041e-05
2851.32	1.47799e-05
2859.87	1.53126e-05
2868.43	1.81518e-05
2876.99	3.65156e-05
2885.55	5.99912e-05
2894.1	8.81294e-05
2902.66	0.000110107
2911.22	0.00011882
2919.78	0.000128499
2928.34	0.000107499
2936.89	0.000118706
2945.45	0.00012001
2954.01	0.000118043
2962.57	0.00012618
2971.12	0.000136006
2979.68	0.000179525
2988.24	0.000192001
2996.8	0.000189129
3005.35	0.00012939
3013.91	8.42407e-05
3022.47	5.31131e-05
3031.03	3.12043e-05
3039.58	2.18528e-05
3048.14	1.92289e-05
3056.7	1.75044e-05
3065.26	1.57332e-05
3073.81	1.34122e-05
3082.37	1.06832e-05
3090.93	8.0309e-06
3099.49	6.36953e-06
3108.05	4.88959e-06
3116.6	3.77042e-06
3125.16	3.02639e-06
3133.72	2.51997e-06
3142.28	2.07776e-06
3150.83	2.057e-06
3159.39	2.33887e-06
3167.95	2.89161e-06
3176.51	2.76977e-06
3185.06	3.37097e-06
3193.62	2.22061e-06
3202.18	1.46842e-06
3210.74	6.7647e-07
3219.29	4.92119e-07
3227.85	5.2304e-07
3236.41	8.93506e-07
3244.97	7.63206e-07
3253.52	2.26173e-07
3262.08	-7.12805e-08
3270.64	-2.77334e-07
3279.2	-2.72445e-07
3287.76	-5.7233e-07
3296.31	-2.96068e-07
3304.87	-1.19149e-07
3313.43	-2.99129e-07
3321.99	-2.02173e-07
3330.54	-2.20671e-07
3339.1	-2.89323e-07
3347.66	-4.35349e-07
3356.22	-2.14021e-07
3364.77	2.16601e-07
3373.33	3.19747e-07
3381.89	2.48009e-07
3390.45	4.84923e-07
3399	1.8729e-07
3407.56	2.43926e-07
3416.12	5.39434e-07
3424.68	1.71036e-06
3433.23	3.52319e-06
3441.79	6.70291e-06
3450.35	9.99649e-06
3458.91	9.49066e-06
3467.47	1.00171e-05
3476.02	5.30871e-06
3484.58	1.78649e-06
3493.14	3.11662e-07
3501.7	-4.04814e-07
3510.25	-7.53581e-07
3518.81	-7.07854e-07
3527.37	-7.08262e-07
3535.93	-7.59127e-07
3544.48	-7.09602e-07
3553.04	-7.24254e-07
3561.6	-2.50451e-07
3570.16	2.64925e-07
3578.71	9.38292e-08
3587.27	5.15157e-08
3595.83	2.29922e-07
3604.39	-2.66316e-07
3612.95	-1.05548e-07
3621.5	-2.89636e-07
3630.06	-1.21434e-08
3638.62	-2.26287e-07
3647.18	1.37048e-06
3655.73	9.66877e-08
3664.29	-7.64582e-08
3672.85	-2.20711e-07
3681.41	-1.25153e-07
3689.96	-1.54532e-07
3698.52	-1.06734e-07
3707.08	-3.39933e-07
3715.64	-1.84799e-07
3724.19	-4.07187e-07
3732.75	-5.05134e-08
3741.31	8.25494e-07
3749.87	7.93666e-07
3758.42	-2.58761e-07
3766.98	-2.27013e-07
3775.54	-3.56812e-07
3784.1	-2.40382e-07
3792.66	-3.27758e-07
3801.21	2.30831e-06
3809.77	-3.42678e-07
3818.33	-4.01826e-08
3826.89	8.34472e-07
3835.44	3.857e-07
3844	6.78975e-07
3852.56	1.02842e-06
3861.12	7.59581e-07
3869.67	1.08505e-06
3878.23	4.26328e-07
3886.79	3.17225e-07
3895.35	5.09764e-09
3903.9	4.28252e-07
3912.46	2.90042e-08
3921.02	-2.93737e-07
3929.58	1.62864e-07
3938.13	2.72116e-09
3946.69	1.92148e-07
3955.25	3.17017e-08
3963.81	8.62305e-08
3972.37	3.89913e-07
