Infrared Spectrum: 2-Butanone
Formula: C H3 C H2 C O C H3
CAS: 78-93-3
State: gas
Melting point: -86.35 C
Boiling point: 79.6 C
Class: IUPAC A
Instrument: IFS66V (Bruker)
Instrument parameters: KBr Beam splitter; MCT Detector; Multipass cell
Sampling: 1 L/min Flow
Resolution: 1.9290
Temperature: 23 C
Pressure: 101.3 kPa
Origin: NIST, Anayltical Chemistry Division, 301-975-3108
cm-1	(micromol/mol)-1m-1 (base 10)
574.687	2.05507e-05
583.365	2.86575e-05
592.043	3.02685e-05
600.721	2.23285e-05
609.4	5.15893e-06
618.078	1.21246e-06
626.756	6.4275e-07
635.434	4.92127e-07
644.112	5.62576e-07
652.79	1.16261e-06
661.469	6.56203e-07
670.147	4.91332e-07
678.825	3.39267e-07
687.503	1.91208e-07
696.181	1.67164e-07
704.859	1.41298e-07
713.537	3.65726e-07
722.216	1.15544e-06
730.894	3.67411e-06
739.572	9.20706e-06
748.25	1.88576e-05
756.928	1.96798e-05
765.606	1.81608e-05
774.285	7.77067e-06
782.963	2.65732e-06
791.641	1.42986e-06
800.319	1.05155e-06
808.997	6.52072e-07
817.675	4.38959e-07
826.353	3.61911e-07
835.032	4.24092e-07
843.71	4.06983e-07
852.388	4.05912e-07
861.066	5.6041e-07
869.744	8.01609e-07
878.422	1.29356e-06
887.101	1.99448e-06
895.779	3.41605e-06
904.457	6.51692e-06
913.135	1.37435e-05
921.813	2.53609e-05
930.491	4.12682e-05
939.169	5.17269e-05
947.848	5.17508e-05
956.526	3.87477e-05
965.204	2.38378e-05
973.882	1.78352e-05
982.56	1.64667e-05
991.238	1.44143e-05
999.917	1.24361e-05
1008.59	7.93645e-06
1017.27	5.30508e-06
1025.95	3.77545e-06
1034.63	2.95598e-06
1043.31	3.14029e-06
1051.99	4.05753e-06
1060.66	6.1461e-06
1069.34	1.03347e-05
1078.02	1.5648e-05
1086.7	1.56381e-05
1095.38	1.52531e-05
1104.05	1.04609e-05
1112.73	9.23416e-06
1121.41	1.00396e-05
1130.09	1.3001e-05
1138.77	2.31679e-05
1147.45	6.68298e-05
1156.12	0.000158298
1164.8	0.000236575
1173.48	0.000265914
1182.16	0.000197031
1190.84	0.000128004
1199.51	7.28381e-05
1208.19	4.96242e-05
1216.87	3.04044e-05
1225.55	1.57759e-05
1234.23	1.17149e-05
1242.9	1.19795e-05
1251.58	1.38852e-05
1260.26	1.42655e-05
1268.94	1.32588e-05
1277.62	1.06195e-05
1286.3	8.81457e-06
1294.97	1.00598e-05
1303.65	1.49131e-05
1312.33	2.22095e-05
1321.01	3.19711e-05
1329.69	4.63407e-05
1338.36	6.74894e-05
1347.04	0.000108921
1355.72	0.000197302
1364.4	0.000226598
1373.08	0.000229366
1381.76	0.000126565
1390.43	6.30365e-05
1399.11	5.58302e-05
1407.79	5.93664e-05
1416.47	7.69113e-05
1425.15	7.58228e-05
1433.82	8.69149e-05
1442.5	7.91869e-05
1451.18	7.81798e-05
1459.86	9.09873e-05
1468.54	7.13127e-05
1477.22	6.11893e-05
1485.89	3.3062e-05
1494.57	2.02698e-05
1503.25	1.62913e-05
1511.93	1.60782e-05
1520.61	1.71423e-05
1529.28	1.42429e-05
1537.96	1.3168e-05
1546.64	1.04862e-05
1555.32	9.19749e-06
1564	7.59027e-06
1572.67	6.31303e-06
1581.35	5.51573e-06
1590.03	4.74602e-06
1598.71	3.93998e-06
1607.39	3.52798e-06
1616.07	4.6698e-06
1624.74	3.4951e-06
1633.42	3.4776e-06
1642.1	3.81423e-06
1650.78	4.21265e-06
1659.46	4.88165e-06
1668.13	6.78924e-06
1676.81	9.91374e-06
1685.49	1.86975e-05
1694.17	2.88258e-05
1702.85	5.61644e-05
1711.53	0.000121339
1720.2	0.000265794
1728.88	0.00048311
1737.56	0.000466498
1746.24	0.000562128
1754.92	0.000331143
1763.59	0.000142453
1772.27	5.58684e-05
1780.95	2.38643e-05
1789.63	1.12148e-05
1798.31	7.60114e-06
1806.98	5.0192e-06
1815.66	2.46443e-06
1824.34	1.73113e-06
1833.02	1.39638e-06
1841.7	1.49892e-06
1850.38	1.70678e-06
1859.05	2.1154e-06
1867.73	2.72186e-06
1876.41	2.85467e-06
1885.09	2.89709e-06
1893.77	2.68137e-06
1902.44	2.08082e-06
1911.12	1.67609e-06
1919.8	1.41091e-06
1928.48	1.30428e-06
1937.16	1.12443e-06
1945.84	1.1013e-06
1954.51	9.08073e-07
1963.19	6.62553e-07
1971.87	4.02326e-07
1980.55	5.20734e-07
1989.23	5.93953e-07
1997.9	6.83624e-07
2006.58	4.43484e-07
2015.26	2.51619e-07
2023.94	1.19219e-07
2032.62	1.09882e-07
2041.3	1.89979e-07
2049.97	1.99317e-07
2058.65	3.23296e-07
2067.33	5.07198e-07
2076.01	8.42738e-07
2084.69	1.37614e-06
2093.36	2.05102e-06
2102.04	2.70432e-06
2110.72	3.26696e-06
2119.4	3.3038e-06
2128.08	2.8038e-06
2136.75	1.86489e-06
2145.43	9.56391e-07
2154.11	6.64818e-07
2162.79	6.60953e-07
2171.47	7.33945e-07
2180.15	4.85318e-07
2188.82	2.48915e-07
2197.5	4.50102e-08
2206.18	-3.56389e-08
2214.86	7.81243e-09
2223.54	-5.9761e-08
2232.21	-1.05025e-07
2240.89	-1.41148e-07
2249.57	-9.52762e-08
2258.25	1.24453e-08
2266.93	2.76771e-07
2275.61	6.72894e-07
2284.28	1.13114e-06
2292.96	1.38572e-06
2301.64	1.3785e-06
2310.32	1.19604e-06
2319	1.03832e-06
2327.67	1.01164e-06
2336.35	1.02948e-06
2345.03	9.11201e-07
2353.71	1.0694e-06
2362.39	1.43199e-06
2371.06	1.21443e-06
2379.74	9.25047e-07
2388.42	6.76263e-07
2397.1	4.78536e-07
2405.78	4.15818e-07
2414.46	3.25398e-07
2423.13	2.78631e-07
2431.81	2.16995e-07
2440.49	2.00097e-07
2449.17	1.99802e-07
2457.85	3.65367e-07
2466.52	4.86362e-07
2475.2	5.85829e-07
2483.88	4.43566e-07
2492.56	4.44841e-07
2501.24	7.55811e-07
2509.92	1.03978e-06
2518.59	1.24349e-06
2527.27	9.92906e-07
2535.95	6.95484e-07
2544.63	4.35003e-07
2553.31	3.20432e-07
2561.98	2.84665e-07
2570.66	2.20395e-07
2579.34	9.64085e-08
2588.02	2.71107e-08
2596.7	7.26966e-08
2605.38	1.24501e-07
2614.05	1.7536e-07
2622.73	1.72972e-07
2631.41	1.04916e-07
2640.09	1.08131e-07
2648.77	1.95504e-07
2657.44	4.18697e-07
2666.12	7.48474e-07
2674.8	9.46066e-07
2683.48	9.6652e-07
2692.16	8.96681e-07
2700.83	8.00116e-07
2709.51	8.40727e-07
2718.19	1.00006e-06
2726.87	1.18171e-06
2735.55	1.7198e-06
2744.23	2.43177e-06
2752.9	2.7396e-06
2761.58	2.76316e-06
2770.26	2.15718e-06
2778.94	2.47907e-06
2787.62	3.54304e-06
2796.29	5.60473e-06
2804.97	7.62272e-06
2813.65	1.07839e-05
2822.33	1.24526e-05
2831.01	1.42132e-05
2839.69	1.52587e-05
2848.36	1.48407e-05
2857.04	1.50653e-05
2865.72	1.65064e-05
2874.4	2.81772e-05
2883.08	5.68968e-05
2891.75	8.35969e-05
2900.43	0.000108332
2909.11	0.000115386
2917.79	0.000140042
2926.47	0.000111689
2935.14	0.000112326
2943.82	0.000126498
2952.5	0.000118613
2961.18	0.000130404
2969.86	0.000134525
2978.54	0.00017431
2987.21	0.000194316
2995.89	0.000192171
3004.57	0.000135162
3013.25	8.48411e-05
3021.93	5.44152e-05
3030.6	3.2184e-05
3039.28	2.19701e-05
3047.96	1.93523e-05
3056.64	1.76702e-05
3065.32	1.57233e-05
3074	1.33195e-05
3082.67	1.04935e-05
3091.35	7.88603e-06
3100.03	6.13555e-06
3108.71	4.81796e-06
3117.39	3.66508e-06
3126.06	2.77215e-06
3134.74	2.34045e-06
3143.42	2.20138e-06
3152.1	2.33434e-06
3160.78	2.5684e-06
3169.46	3.04603e-06
3178.13	2.87201e-06
3186.81	2.99329e-06
3195.49	1.93464e-06
3204.17	1.24835e-06
3212.85	6.86294e-07
3221.52	4.79737e-07
3230.2	6.42745e-07
3238.88	5.70627e-07
3247.56	4.64518e-07
3256.24	1.64673e-07
3264.91	-1.30241e-07
3273.59	-1.69584e-07
3282.27	-3.10847e-07
3290.95	-3.16329e-07
3299.63	-2.48306e-07
3308.31	-2.03162e-07
3316.98	-1.84168e-07
3325.66	-2.10148e-07
3334.34	-1.83328e-07
3343.02	-2.05679e-07
3351.7	-1.4961e-07
3360.37	3.69622e-08
3369.05	2.7332e-07
3377.73	3.99954e-07
3386.41	4.61549e-07
3395.09	3.07914e-07
3403.77	2.03279e-07
3412.44	3.51461e-07
3421.12	1.15696e-06
3429.8	2.66336e-06
3438.48	5.21696e-06
3447.16	8.82228e-06
3455.83	1.03036e-05
3464.51	9.98909e-06
3473.19	7.33876e-06
3481.87	2.82461e-06
3490.55	5.39023e-07
3499.22	-4.34189e-07
3507.9	-7.27256e-07
3516.58	-9.15735e-07
3525.26	-7.99859e-07
3533.94	-8.48141e-07
3542.62	-7.86681e-07
3551.29	-5.61908e-07
3559.97	-3.1755e-07
3568.65	4.53011e-07
3577.33	6.43266e-08
3586.01	5.16315e-07
3594.68	2.8123e-07
3603.36	-1.35794e-07
3612.04	-2.38375e-08
3620.72	-1.11718e-07
3629.4	1.19484e-06
3638.08	-2.52046e-07
3646.75	4.03484e-07
3655.43	4.33636e-07
3664.11	-1.14614e-07
3672.79	-1.89336e-08
3681.47	-2.47721e-07
3690.14	1.48476e-07
3698.82	-2.69167e-07
3707.5	-2.40961e-07
3716.18	-2.91877e-07
3724.86	-8.38086e-08
3733.54	2.01138e-07
3742.21	-5.58057e-09
3750.89	6.96398e-07
3759.57	2.12646e-07
3768.25	-2.47901e-07
3776.93	-3.40298e-07
3785.6	-2.24419e-07
3794.28	-2.82855e-07
3802.96	1.86804e-07
3811.64	-1.68536e-07
3820.32	7.26699e-07
3828.99	1.282e-08
3837.67	2.05913e-06
3846.35	2.65299e-07
3855.03	2.31017e-06
3863.71	7.701e-07
3872.39	5.75063e-07
3881.06	8.1913e-07
3889.74	2.9905e-07
3898.42	4.43623e-07
3907.1	1.04927e-07
3915.78	8.48699e-08
3924.45	2.0088e-07
3933.13	1.9681e-07
3941.81	1.73426e-07
3950.49	6.32334e-08
3959.17	2.61028e-07
3967.85	3.97312e-07
