Infrared Spectrum: Trichloroethene
Formula: C2 H Cl3
CAS: 79-01-6
State: gas
Melting point: -73 C
Boiling point: 87 C
Class: IUPAC A
Instrument: IFS66V (Bruker)
Instrument parameters: KBr Beam Splitter; MCT Detector; Multipass cell
Sampling: 1 L/min Flow
Resolution: 0.1250
Temperature: 23 C
Pressure: 101.3 Pa
Origin: NIST, Analytical Chemistry Division, 301-975-3108
cm-1	(micromol/mol)-1m-1 (base 10)
575.05	2.0774e-06
583.608	3.81443e-06
592.165	-2.62913e-06
600.723	1.00563e-07
609.281	3.42808e-06
617.838	2.46379e-05
626.396	7.70361e-05
634.954	7.17834e-05
643.511	2.8061e-05
652.069	4.64825e-06
660.626	1.53772e-06
669.184	4.08372e-07
677.742	-1.49455e-07
686.299	1.30536e-06
694.857	6.34472e-07
703.415	-1.31708e-06
711.972	-4.37305e-07
720.53	-1.98389e-07
729.088	1.47371e-06
737.645	1.91248e-06
746.203	1.28279e-06
754.761	2.10178e-06
763.318	2.02349e-05
771.876	8.17154e-05
780.434	9.75529e-05
788.991	0.000106993
797.549	6.30568e-05
806.106	1.93485e-05
814.664	5.22562e-06
823.222	1.16822e-05
831.779	8.99982e-05
840.337	0.000564054
848.895	0.000858407
857.452	0.000322245
866.01	4.98422e-06
874.568	4.17943e-06
883.125	2.74903e-06
891.683	5.42063e-06
900.241	1.91947e-05
908.798	1.96296e-05
917.356	4.27823e-05
925.914	0.000183942
934.471	0.000586494
943.029	0.000620314
951.586	0.000200895
960.144	2.56398e-05
968.702	6.78138e-06
977.259	1.24266e-05
985.817	1.03597e-05
994.375	7.86035e-06
1002.93	4.99209e-06
1011.49	8.3755e-06
1020.05	8.36512e-06
1028.61	4.20154e-06
1037.16	2.46068e-06
1045.72	1.57668e-06
1054.28	1.10662e-06
1062.84	7.29062e-07
1071.39	6.55213e-07
1079.95	8.01906e-07
1088.51	1.20918e-06
1097.07	1.33796e-06
1105.62	2.64712e-06
1114.18	3.97588e-06
1122.74	1.06143e-06
1131.3	1.68388e-06
1139.85	8.93655e-07
1148.41	2.44586e-07
1156.97	3.80528e-07
1165.53	4.17521e-07
1174.09	1.56244e-08
1182.64	9.4647e-07
1191.2	6.78464e-07
1199.76	1.16321e-06
1208.32	2.6687e-06
1216.87	4.30586e-06
1225.43	1.0478e-05
1233.99	1.32314e-05
1242.55	3.88422e-05
1251.1	5.48707e-05
1259.66	4.52749e-05
1268.22	1.8091e-05
1276.78	4.96822e-06
1285.33	1.19579e-06
1293.89	9.76447e-07
1302.45	1.20618e-06
1311.01	1.50179e-06
1319.57	2.00833e-06
1328.12	2.19767e-06
1336.68	5.41406e-07
1345.24	2.48891e-07
1353.8	7.93841e-08
1362.35	-1.4658e-07
1370.91	8.20531e-07
1379.47	1.20024e-06
1388.03	1.2721e-06
1396.58	1.11148e-06
1405.14	7.84202e-07
1413.7	1.50706e-06
1422.26	1.38058e-06
1430.81	1.18481e-06
1439.37	1.1142e-06
1447.93	-3.9467e-07
1456.49	-9.48731e-07
1465.05	8.37149e-08
1473.6	-5.10876e-07
1482.16	6.82597e-07
1490.72	-4.94886e-07
1499.28	8.64196e-08
1507.83	1.7831e-07
1516.39	3.94661e-07
1524.95	5.66769e-09
1533.51	1.07805e-06
1542.06	4.87175e-06
1550.62	2.98878e-05
1559.18	3.19479e-05
1567.74	4.1592e-05
1576.29	1.92239e-05
1584.85	4.48573e-05
1593.41	4.2456e-05
1601.97	1.81703e-05
1610.53	2.90219e-06
1619.08	9.91926e-07
1627.64	6.60424e-08
1636.2	-1.58939e-07
1644.76	4.25282e-07
1653.31	-4.14565e-06
1661.87	5.17188e-07
1670.43	-7.16956e-08
1678.99	3.59245e-07
1687.54	5.30933e-07
1696.1	-1.37498e-06
1704.66	-3.77713e-08
1713.22	-1.5909e-07
1721.77	4.8023e-07
1730.33	6.05423e-07
1738.89	3.63547e-07
1747.45	1.1546e-06
1756.01	2.74919e-06
1764.56	2.62832e-06
1773.12	2.29543e-06
1781.68	2.00741e-06
1790.24	2.72995e-06
1798.79	8.38296e-07
1807.35	6.48583e-07
1815.91	9.45632e-07
1824.47	4.73807e-07
1833.02	6.76132e-07
1841.58	3.4894e-07
1850.14	2.61134e-07
1858.7	1.27992e-06
1867.25	1.44193e-06
1875.81	1.28418e-06
1884.37	7.03325e-07
1892.93	3.83375e-07
1901.49	2.80605e-07
1910.04	1.07219e-07
1918.6	5.56898e-07
1927.16	7.06917e-07
1935.72	2.45475e-07
1944.27	4.2933e-07
1952.83	3.58025e-07
1961.39	8.92381e-07
1969.95	7.22583e-07
1978.5	1.17144e-06
1987.06	6.61678e-07
1995.62	7.77542e-07
2004.18	9.58046e-07
2012.73	5.24713e-07
2021.29	6.20761e-07
2029.85	5.71846e-07
2038.41	2.54588e-07
2046.97	8.95079e-07
2055.52	1.00372e-06
2064.08	7.66905e-07
2072.64	1.15547e-06
2081.2	1.44004e-06
2089.75	8.67373e-07
2098.31	1.69262e-06
2106.87	1.42558e-06
2115.43	5.44744e-07
2123.98	7.46407e-07
2132.54	8.59237e-07
2141.1	3.34779e-07
2149.66	7.59671e-07
2158.21	2.72822e-07
2166.77	1.11797e-06
2175.33	1.22031e-06
2183.89	1.19848e-06
2192.45	9.78994e-07
2201	1.07228e-06
2209.56	1.34289e-06
2218.12	1.46812e-06
2226.68	1.51032e-06
2235.23	1.15998e-06
2243.79	1.4157e-06
2252.35	1.04367e-06
2260.91	8.52578e-07
2269.46	9.92104e-07
2278.02	1.33853e-06
2286.58	9.56747e-07
2295.14	1.39108e-06
2303.69	1.05115e-06
2312.25	1.09227e-06
2320.81	1.00455e-06
2329.37	1.00211e-06
2337.93	4.38484e-07
2346.48	7.81598e-07
2355.04	1.39853e-06
2363.6	8.44677e-07
2372.16	1.19367e-06
2380.71	9.77306e-07
2389.27	9.0455e-07
2397.83	1.55588e-06
2406.39	1.05032e-06
2414.94	1.43137e-06
2423.5	1.67744e-06
2432.06	1.49747e-06
2440.62	1.31963e-06
2449.17	8.9589e-07
2457.73	1.39741e-06
2466.29	1.52982e-06
2474.85	1.86805e-06
2483.41	1.8811e-06
2491.96	2.03845e-06
2500.52	1.79955e-06
2509.08	1.46954e-06
2517.64	2.28511e-06
2526.19	1.72172e-06
2534.75	1.61163e-06
2543.31	1.19815e-06
2551.87	1.02592e-06
2560.42	1.14967e-06
2568.98	1.00124e-06
2577.54	1.24667e-06
2586.1	1.48187e-06
2594.65	1.01234e-06
2603.21	1.28713e-06
2611.77	1.63376e-06
2620.33	1.13094e-06
2628.89	1.73671e-06
2637.44	1.48057e-06
2646	1.50687e-06
2654.56	7.40565e-07
2663.12	9.5684e-07
2671.67	1.26101e-06
2680.23	1.66466e-06
2688.79	9.12462e-07
2697.35	1.23329e-06
2705.9	1.47127e-06
2714.46	8.48744e-07
2723.02	1.03912e-06
2731.58	1.19756e-06
2740.13	1.50366e-06
2748.69	1.11516e-06
2757.25	6.69115e-07
2765.81	1.13436e-06
2774.37	1.581e-06
2782.92	1.21071e-06
2791.48	1.65912e-06
2800.04	1.81001e-06
2808.6	2.26024e-06
2817.15	2.29842e-06
2825.71	3.63751e-06
2834.27	3.47544e-06
2842.83	2.25462e-06
2851.38	1.79784e-06
2859.94	1.70497e-06
2868.5	2.21816e-06
2877.06	2.27405e-06
2885.61	2.22848e-06
2894.17	1.39597e-06
2902.73	2.13535e-06
2911.29	2.21852e-06
2919.85	2.08931e-06
2928.4	2.76087e-06
2936.96	1.84435e-06
2945.52	1.71879e-06
2954.08	2.40503e-06
2962.63	3.94949e-06
2971.19	3.45397e-06
2979.75	3.59294e-06
2988.31	3.8068e-06
2996.86	3.25614e-06
3005.42	2.8534e-06
3013.98	3.00224e-06
3022.54	2.85627e-06
3031.09	1.86507e-06
3039.65	2.53599e-06
3048.21	2.71881e-06
3056.77	2.18663e-06
3065.33	2.98234e-06
3073.88	5.352e-06
3082.44	1.64998e-05
3091	6.90466e-05
3099.56	7.5151e-05
3108.11	1.49289e-05
3116.67	4.18103e-06
3125.23	2.77988e-06
3133.79	4.91761e-06
3142.34	4.15482e-06
3150.9	5.07179e-06
3159.46	7.77877e-06
3168.02	1.21536e-05
3176.57	9.63344e-06
3185.13	2.47555e-06
3193.69	2.10703e-06
3202.25	2.9106e-06
3210.81	2.87847e-06
3219.36	2.07464e-06
3227.92	2.34167e-06
3236.48	2.22917e-06
3245.04	3.19501e-06
3253.59	2.93144e-06
3262.15	4.12285e-06
3270.71	3.40297e-06
3279.27	2.63029e-06
3287.82	2.39168e-06
3296.38	2.35762e-06
3304.94	1.1923e-06
3313.5	2.5089e-06
3322.05	2.69648e-06
3330.61	2.04196e-06
3339.17	1.84067e-06
3347.73	3.00496e-06
3356.29	3.80845e-06
3364.84	3.03275e-06
3373.4	1.91236e-06
3381.96	1.96673e-06
3390.52	2.35645e-06
3399.07	1.92814e-06
3407.63	1.97751e-06
3416.19	2.63853e-06
3424.75	2.32848e-06
3433.3	2.70852e-06
3441.86	2.41924e-06
3450.42	2.39088e-06
3458.98	1.73517e-06
3467.53	2.61481e-06
3476.09	2.11882e-06
3484.65	3.55704e-06
3493.21	2.68175e-06
3501.77	2.48088e-06
3510.32	3.06498e-06
3518.88	2.10246e-06
3527.44	2.39492e-06
3536	2.98807e-06
3544.55	3.53496e-06
3553.11	3.48378e-06
3561.67	2.56951e-06
3570.23	2.65033e-06
3578.78	2.26587e-06
3587.34	2.25351e-06
3595.9	3.03842e-06
3604.46	3.34526e-06
3613.01	2.63301e-06
3621.57	3.67249e-06
3630.13	3.68227e-06
3638.69	2.56255e-06
3647.25	2.81899e-06
3655.8	2.89561e-06
3664.36	3.85099e-06
3672.92	3.14684e-06
3681.48	3.50962e-06
3690.03	2.97978e-06
3698.59	4.11751e-06
3707.15	3.27221e-06
3715.71	3.92556e-06
3724.26	3.72869e-06
3732.82	3.37708e-06
3741.38	2.77397e-06
3749.94	3.07555e-06
3758.49	3.35398e-06
3767.05	3.63117e-06
3775.61	2.83988e-06
3784.17	2.78859e-06
3792.73	3.23625e-06
3801.28	1.27618e-06
3809.84	3.30349e-06
3818.4	2.35306e-06
3826.96	3.33778e-06
3835.51	2.58845e-06
3844.07	3.23352e-06
3852.63	3.82755e-06
3861.19	4.34974e-06
3869.74	2.82457e-06
3878.3	3.52266e-06
3886.86	2.92443e-06
3895.42	2.7412e-06
3903.97	3.86302e-06
3912.53	3.85463e-06
3921.09	2.12067e-06
3929.65	3.84394e-06
3938.21	3.79736e-06
3946.76	3.48043e-06
3955.32	2.97063e-06
3963.88	3.85728e-06
3972.44	2.61098e-06
