Infrared Spectrum: Trichloroethene
Formula: C2 H Cl3
CAS: 79-01-6
State: gas
Melting point: -73 C
Boiling point: 87 C
Class: IUPAC A
Instrument: IFS66V (Bruker)
Instrument parameters: KBr Beam Splitter; MCT Detector; Multipass cell
Sampling: 1 L/min Flow
Resolution: 0.1250
Temperature: 23 C
Pressure: 101.3 Pa
Origin: NIST, Analytical Chemistry Division, 301-975-3108
cm-1	(micromol/mol)-1m-1 (base 10)
575.05	2.14845e-06
583.608	4.07266e-06
592.165	-2.94868e-06
600.723	-1.23883e-07
609.281	3.25366e-06
617.838	2.44169e-05
626.396	7.7231e-05
634.954	7.17611e-05
643.511	2.76116e-05
652.069	4.65894e-06
660.626	1.6243e-06
669.184	3.97422e-07
677.742	-3.395e-07
686.299	1.39922e-06
694.857	6.58487e-07
703.415	-1.36308e-06
711.972	-5.62748e-07
720.53	-3.01166e-07
729.088	1.42847e-06
737.645	1.8503e-06
746.203	1.2695e-06
754.761	1.99565e-06
763.318	2.01077e-05
771.876	8.17083e-05
780.434	9.66977e-05
788.991	0.000107214
797.549	6.29951e-05
806.106	1.92495e-05
814.664	5.15866e-06
823.222	1.12717e-05
831.779	8.94139e-05
840.337	0.000564819
848.895	0.000858825
857.452	0.000321968
866.01	4.51166e-06
874.568	4.06286e-06
883.125	2.6983e-06
891.683	5.39369e-06
900.241	1.91656e-05
908.798	1.94213e-05
917.356	4.24126e-05
925.914	0.000183614
934.471	0.000587762
943.029	0.000621983
951.586	0.000200346
960.144	2.52323e-05
968.702	6.70253e-06
977.259	1.23701e-05
985.817	1.02487e-05
994.375	7.83467e-06
1002.93	4.9755e-06
1011.49	8.34173e-06
1020.05	8.32576e-06
1028.61	4.16297e-06
1037.16	2.52705e-06
1045.72	1.5821e-06
1054.28	1.10177e-06
1062.84	7.32213e-07
1071.39	6.39352e-07
1079.95	8.7347e-07
1088.51	1.23431e-06
1097.07	1.34913e-06
1105.62	2.63939e-06
1114.18	4.04169e-06
1122.74	9.46763e-07
1131.3	1.76063e-06
1139.85	8.67524e-07
1148.41	1.79802e-07
1156.97	3.72778e-07
1165.53	4.04114e-07
1174.09	-4.83391e-08
1182.64	9.3928e-07
1191.2	6.38301e-07
1199.76	1.16911e-06
1208.32	2.7032e-06
1216.87	4.22868e-06
1225.43	1.05432e-05
1233.99	1.31589e-05
1242.55	3.88633e-05
1251.1	5.5188e-05
1259.66	4.53735e-05
1268.22	1.80816e-05
1276.78	4.9611e-06
1285.33	1.20765e-06
1293.89	1.0429e-06
1302.45	1.21231e-06
1311.01	1.45053e-06
1319.57	1.98365e-06
1328.12	2.25624e-06
1336.68	5.46181e-07
1345.24	2.0581e-07
1353.8	9.43827e-08
1362.35	-2.08386e-07
1370.91	8.58092e-07
1379.47	1.22753e-06
1388.03	1.28013e-06
1396.58	1.10774e-06
1405.14	7.95347e-07
1413.7	1.5251e-06
1422.26	1.35988e-06
1430.81	1.17183e-06
1439.37	1.16435e-06
1447.93	-4.67748e-07
1456.49	-1.03493e-06
1465.05	8.35184e-08
1473.6	-5.58952e-07
1482.16	6.87244e-07
1490.72	-5.88578e-07
1499.28	6.85998e-08
1507.83	1.93387e-07
1516.39	4.02313e-07
1524.95	-4.01995e-08
1533.51	1.09485e-06
1542.06	4.6787e-06
1550.62	2.99681e-05
1559.18	3.17361e-05
1567.74	4.16771e-05
1576.29	1.89811e-05
1584.85	4.49524e-05
1593.41	4.25565e-05
1601.97	1.81504e-05
1610.53	2.86567e-06
1619.08	1.04867e-06
1627.64	1.75324e-08
1636.2	-1.82945e-07
1644.76	4.43222e-07
1653.31	-4.47365e-06
1661.87	5.31783e-07
1670.43	-1.09969e-07
1678.99	3.42308e-07
1687.54	5.08935e-07
1696.1	-1.39326e-06
1704.66	-2.97026e-08
1713.22	-1.89664e-07
1721.77	4.93375e-07
1730.33	6.16152e-07
1738.89	3.58201e-07
1747.45	1.1399e-06
1756.01	2.76294e-06
1764.56	2.63218e-06
1773.12	2.35573e-06
1781.68	2.00234e-06
1790.24	2.75958e-06
1798.79	8.25024e-07
1807.35	6.17449e-07
1815.91	9.79974e-07
1824.47	4.83174e-07
1833.02	6.93528e-07
1841.58	3.34043e-07
1850.14	2.16615e-07
1858.7	1.25719e-06
1867.25	1.42121e-06
1875.81	1.26676e-06
1884.37	6.92021e-07
1892.93	4.05958e-07
1901.49	2.79783e-07
1910.04	9.38298e-08
1918.6	5.59896e-07
1927.16	7.06986e-07
1935.72	2.09566e-07
1944.27	4.22149e-07
1952.83	3.36135e-07
1961.39	8.90113e-07
1969.95	7.2031e-07
1978.5	1.19909e-06
1987.06	6.57947e-07
1995.62	8.20524e-07
2004.18	9.92748e-07
2012.73	4.93335e-07
2021.29	6.45489e-07
2029.85	5.5312e-07
2038.41	1.97318e-07
2046.97	9.17964e-07
2055.52	1.01913e-06
2064.08	7.53876e-07
2072.64	1.17747e-06
2081.2	1.44751e-06
2089.75	8.0582e-07
2098.31	1.66071e-06
2106.87	1.45188e-06
2115.43	5.79003e-07
2123.98	7.46939e-07
2132.54	8.60527e-07
2141.1	2.76085e-07
2149.66	7.31885e-07
2158.21	2.04224e-07
2166.77	1.1105e-06
2175.33	1.27834e-06
2183.89	1.21351e-06
2192.45	9.34711e-07
2201	1.05652e-06
2209.56	1.34939e-06
2218.12	1.48342e-06
2226.68	1.53774e-06
2235.23	1.14756e-06
2243.79	1.41417e-06
2252.35	1.07777e-06
2260.91	8.22487e-07
2269.46	9.81664e-07
2278.02	1.37529e-06
2286.58	9.41124e-07
2295.14	1.40128e-06
2303.69	1.06011e-06
2312.25	1.07601e-06
2320.81	1.03288e-06
2329.37	1.00208e-06
2337.93	4.31494e-07
2346.48	7.76747e-07
2355.04	1.45634e-06
2363.6	8.59076e-07
2372.16	1.2055e-06
2380.71	9.56365e-07
2389.27	8.89631e-07
2397.83	1.58338e-06
2406.39	1.01894e-06
2414.94	1.43753e-06
2423.5	1.66632e-06
2432.06	1.45589e-06
2440.62	1.30581e-06
2449.17	8.15457e-07
2457.73	1.41312e-06
2466.29	1.53994e-06
2474.85	1.88196e-06
2483.41	1.86712e-06
2491.96	2.06722e-06
2500.52	1.82061e-06
2509.08	1.44332e-06
2517.64	2.35601e-06
2526.19	1.71925e-06
2534.75	1.60968e-06
2543.31	1.23298e-06
2551.87	1.02265e-06
2560.42	1.15475e-06
2568.98	1.02478e-06
2577.54	1.27896e-06
2586.1	1.49184e-06
2594.65	9.65592e-07
2603.21	1.30178e-06
2611.77	1.63124e-06
2620.33	1.12881e-06
2628.89	1.76124e-06
2637.44	1.47065e-06
2646	1.51539e-06
2654.56	6.86788e-07
2663.12	9.04315e-07
2671.67	1.21991e-06
2680.23	1.6986e-06
2688.79	8.95857e-07
2697.35	1.21854e-06
2705.9	1.45897e-06
2714.46	7.89661e-07
2723.02	9.87725e-07
2731.58	1.16373e-06
2740.13	1.48544e-06
2748.69	1.10849e-06
2757.25	6.5079e-07
2765.81	1.11119e-06
2774.37	1.60742e-06
2782.92	1.16367e-06
2791.48	1.66634e-06
2800.04	1.80691e-06
2808.6	2.27039e-06
2817.15	2.21119e-06
2825.71	3.6309e-06
2834.27	3.52569e-06
2842.83	2.26335e-06
2851.38	1.81324e-06
2859.94	1.68639e-06
2868.5	2.29928e-06
2877.06	2.31755e-06
2885.61	2.28455e-06
2894.17	1.35977e-06
2902.73	2.1103e-06
2911.29	2.22117e-06
2919.85	2.09926e-06
2928.4	2.82693e-06
2936.96	1.78471e-06
2945.52	1.67706e-06
2954.08	2.36535e-06
2962.63	3.98162e-06
2971.19	3.47455e-06
2979.75	3.59718e-06
2988.31	3.84038e-06
2996.86	3.25493e-06
3005.42	2.83048e-06
3013.98	3.02503e-06
3022.54	2.88607e-06
3031.09	1.80179e-06
3039.65	2.55799e-06
3048.21	2.70913e-06
3056.77	2.12161e-06
3065.33	2.99094e-06
3073.88	5.32037e-06
3082.44	1.64149e-05
3091	6.92867e-05
3099.56	7.54464e-05
3108.11	1.47875e-05
3116.67	4.10178e-06
3125.23	2.65219e-06
3133.79	4.9496e-06
3142.34	4.20649e-06
3150.9	5.08928e-06
3159.46	7.77263e-06
3168.02	1.22036e-05
3176.57	9.66221e-06
3185.13	2.43992e-06
3193.69	2.06976e-06
3202.25	2.9176e-06
3210.81	2.93234e-06
3219.36	2.06441e-06
3227.92	2.32583e-06
3236.48	2.19946e-06
3245.04	3.24548e-06
3253.59	2.92643e-06
3262.15	4.20517e-06
3270.71	3.4327e-06
3279.27	2.629e-06
3287.82	2.34249e-06
3296.38	2.31649e-06
3304.94	1.11565e-06
3313.5	2.47854e-06
3322.05	2.71558e-06
3330.61	1.97297e-06
3339.17	1.78894e-06
3347.73	3.05325e-06
3356.29	3.95371e-06
3364.84	3.10532e-06
3373.4	1.90067e-06
3381.96	1.94711e-06
3390.52	2.31167e-06
3399.07	1.93077e-06
3407.63	1.93187e-06
3416.19	2.65106e-06
3424.75	2.37417e-06
3433.3	2.74575e-06
3441.86	2.39601e-06
3450.42	2.36233e-06
3458.98	1.69023e-06
3467.53	2.63654e-06
3476.09	2.1189e-06
3484.65	3.628e-06
3493.21	2.68212e-06
3501.77	2.44641e-06
3510.32	3.12309e-06
3518.88	2.09741e-06
3527.44	2.39582e-06
3536	2.99777e-06
3544.55	3.57763e-06
3553.11	3.52549e-06
3561.67	2.55035e-06
3570.23	2.61145e-06
3578.78	2.26678e-06
3587.34	2.15201e-06
3595.9	3.10963e-06
3604.46	3.42743e-06
3613.01	2.62205e-06
3621.57	3.73545e-06
3630.13	3.7767e-06
3638.69	2.50639e-06
3647.25	2.8545e-06
3655.8	2.91081e-06
3664.36	3.9034e-06
3672.92	3.13818e-06
3681.48	3.57826e-06
3690.03	2.97937e-06
3698.59	4.21928e-06
3707.15	3.2341e-06
3715.71	3.93159e-06
3724.26	3.73525e-06
3732.82	3.34387e-06
3741.38	2.73858e-06
3749.94	3.11145e-06
3758.49	3.41812e-06
3767.05	3.6619e-06
3775.61	2.80731e-06
3784.17	2.77194e-06
3792.73	3.24711e-06
3801.28	1.26125e-06
3809.84	3.26063e-06
3818.4	2.34083e-06
3826.96	3.31307e-06
3835.51	2.55688e-06
3844.07	3.26123e-06
3852.63	3.89799e-06
3861.19	4.4176e-06
3869.74	2.81259e-06
3878.3	3.55833e-06
3886.86	2.91958e-06
3895.42	2.74156e-06
3903.97	3.90828e-06
3912.53	3.88539e-06
3921.09	2.02601e-06
3929.65	3.8645e-06
3938.21	3.74745e-06
3946.76	3.42669e-06
3955.32	2.90365e-06
3963.88	3.89815e-06
3972.44	2.55132e-06
