Infrared Spectrum: Trichloroethene
Formula: C2 H Cl3
CAS: 79-01-6
State: gas
Melting point: -73 C
Boiling point: 87 C
Class: IUPAC A
Instrument: IFS66V (Bruker)
Instrument parameters: KBr Beam Splitter; MCT Detector; Multipass cell
Sampling: 1 L/min Flow
Resolution: 0.9640
Temperature: 23 C
Pressure: 101.3 Pa
Origin: NIST, Analytical Chemistry Division, 301-975-3108
cm-1	(micromol/mol)-1m-1 (base 10)
575.17	4.06268e-07
583.848	4.42321e-07
592.526	-1.33004e-08
601.205	1.2059e-06
609.883	5.69125e-06
618.561	2.72296e-05
627.239	7.91651e-05
635.917	8.21713e-05
644.595	2.34674e-05
653.274	3.55383e-06
661.952	1.89882e-06
670.63	1.51062e-06
679.308	1.26485e-06
687.986	5.37662e-07
696.664	-1.55786e-07
705.343	1.84883e-07
714.021	2.84504e-07
722.699	2.27042e-07
731.377	1.0372e-06
740.055	1.80488e-06
748.734	2.05405e-06
757.412	4.59126e-06
766.09	3.67112e-05
774.768	9.46309e-05
783.446	0.00035391
792.124	9.8376e-05
800.803	4.01677e-05
809.481	1.55961e-05
818.159	5.68775e-06
826.837	2.36371e-05
835.515	0.000241632
844.194	0.000720716
852.872	0.000702843
861.55	1.90031e-05
870.228	4.33822e-06
878.906	2.60356e-06
887.584	3.03944e-06
896.263	9.81288e-06
904.941	2.35593e-05
913.619	3.47607e-05
922.297	9.52257e-05
930.975	0.000429183
939.653	0.000506414
948.332	0.000450631
957.01	6.24914e-05
965.688	6.58889e-06
974.366	7.96123e-06
983.044	1.22203e-05
991.723	1.10689e-05
1000.4	4.35187e-06
1009.08	8.11366e-06
1017.76	8.98461e-06
1026.44	6.64266e-06
1035.11	2.09311e-06
1043.79	1.34807e-06
1052.47	9.85591e-07
1061.15	7.9662e-07
1069.83	5.55004e-07
1078.5	5.19053e-07
1087.18	6.7129e-07
1095.86	9.6227e-07
1104.54	2.24465e-06
1113.22	3.2318e-06
1121.9	2.14493e-06
1130.57	1.36865e-06
1139.25	8.78237e-07
1147.93	5.99285e-07
1156.61	4.16596e-07
1165.29	3.40158e-07
1173.96	4.99043e-07
1182.64	6.48546e-07
1191.32	6.48946e-07
1200	9.39982e-07
1208.68	2.33311e-06
1217.36	4.85875e-06
1226.03	1.07291e-05
1234.71	1.51284e-05
1243.39	4.35197e-05
1252.07	5.28665e-05
1260.75	4.10623e-05
1269.42	1.7252e-05
1278.1	3.89681e-06
1286.78	7.93459e-07
1295.46	4.48647e-07
1304.14	1.00694e-06
1312.82	1.87036e-06
1321.49	2.19827e-06
1330.17	1.42241e-06
1338.85	6.72172e-07
1347.53	4.76654e-07
1356.21	3.5391e-07
1364.88	7.16981e-07
1373.56	5.54809e-07
1382.24	9.54e-07
1390.92	1.06696e-06
1399.6	7.56596e-07
1408.28	1.15849e-06
1416.95	1.20446e-06
1425.63	1.60466e-06
1434.31	9.64778e-07
1442.99	7.1057e-07
1451.67	6.18705e-07
1460.34	5.78276e-07
1469.02	6.18549e-07
1477.7	6.75248e-07
1486.38	5.1288e-07
1495.06	3.51891e-07
1503.73	4.78381e-07
1512.41	3.62387e-07
1521.09	-4.54741e-07
1529.77	9.03317e-07
1538.45	2.57225e-06
1547.13	1.58081e-05
1555.8	5.62158e-05
1564.48	5.07928e-05
1573.16	2.1068e-05
1581.84	3.53931e-05
1590.52	3.69088e-05
1599.19	3.25173e-05
1607.87	5.46773e-06
1616.55	-4.81374e-07
1625.23	4.90563e-07
1633.91	4.47251e-07
1642.59	2.81597e-07
1651.26	1.06624e-07
1659.94	1.79596e-07
1668.62	-3.75174e-08
1677.3	5.39538e-07
1685.98	5.2634e-07
1694.65	4.6572e-07
1703.33	3.49794e-07
1712.01	1.82687e-07
1720.69	4.17421e-07
1729.37	3.5019e-07
1738.05	6.76072e-07
1746.72	1.10936e-06
1755.4	2.42646e-06
1764.08	2.51919e-06
1772.76	1.39905e-06
1781.44	2.17672e-06
1790.11	2.48415e-06
1798.79	9.18679e-07
1807.47	7.27698e-07
1816.15	5.34996e-07
1824.83	3.71086e-07
1833.51	6.53765e-07
1842.18	6.54163e-07
1850.86	7.84722e-07
1859.54	1.49501e-06
1868.22	1.64621e-06
1876.9	1.18675e-06
1885.57	7.9039e-07
1894.25	2.7568e-07
1902.93	2.55726e-07
1911.61	4.42083e-07
1920.29	5.95921e-07
1928.97	5.61525e-07
1937.64	5.91403e-07
1946.32	5.28432e-07
1955	8.01439e-07
1963.68	7.6264e-07
1972.36	9.45561e-07
1981.03	6.98414e-07
1989.71	6.02859e-07
1998.39	6.33268e-07
2007.07	6.82756e-07
2015.75	6.54472e-07
2024.43	7.46379e-07
2033.1	8.7349e-07
2041.78	8.024e-07
2050.46	7.34995e-07
2059.14	7.36834e-07
2067.82	9.22199e-07
2076.49	1.12039e-06
2085.17	1.37108e-06
2093.85	1.76359e-06
2102.53	1.49408e-06
2111.21	7.7943e-07
2119.89	6.08964e-07
2128.56	7.03832e-07
2137.24	6.99541e-07
2145.92	9.58295e-07
2154.6	7.05137e-07
2163.28	1.03759e-06
2171.95	9.91523e-07
2180.63	1.07625e-06
2189.31	1.10443e-06
2197.99	1.22271e-06
2206.67	1.02083e-06
2215.35	1.40638e-06
2224.02	1.36905e-06
2232.7	1.2011e-06
2241.38	1.08028e-06
2250.06	1.0231e-06
2258.74	1.05898e-06
2267.41	1.03417e-06
2276.09	1.03495e-06
2284.77	1.08191e-06
2293.45	1.10445e-06
2302.13	9.84774e-07
2310.81	1.08376e-06
2319.48	9.38479e-07
2328.16	9.59644e-07
2336.84	9.31821e-07
2345.52	9.86016e-07
2354.2	9.25139e-07
2362.87	7.50655e-07
2371.55	9.75736e-07
2380.23	1.14649e-06
2388.91	9.63578e-07
2397.59	1.14595e-06
2406.27	1.07347e-06
2414.94	1.24907e-06
2423.62	1.48583e-06
2432.3	1.62604e-06
2440.98	1.33432e-06
2449.66	1.37875e-06
2458.33	1.28945e-06
2467.01	1.59021e-06
2475.69	1.90264e-06
2484.37	2.0546e-06
2493.05	1.79923e-06
2501.73	1.59848e-06
2510.4	1.54537e-06
2519.08	1.72752e-06
2527.76	1.68574e-06
2536.44	1.48304e-06
2545.12	1.38327e-06
2553.79	1.26539e-06
2562.47	1.25108e-06
2571.15	1.29482e-06
2579.83	1.22828e-06
2588.51	1.0795e-06
2597.19	1.29492e-06
2605.86	1.33045e-06
2614.54	1.28517e-06
2623.22	1.21049e-06
2631.9	1.28627e-06
2640.58	1.32611e-06
2649.25	1.22297e-06
2657.93	1.17946e-06
2666.61	1.42306e-06
2675.29	1.41548e-06
2683.97	1.29234e-06
2692.65	1.32731e-06
2701.32	1.13765e-06
2710	1.45541e-06
2718.68	1.55224e-06
2727.36	1.38008e-06
2736.04	1.29868e-06
2744.71	1.22405e-06
2753.39	1.51021e-06
2762.07	1.51335e-06
2770.75	1.60407e-06
2779.43	1.43047e-06
2788.11	1.52035e-06
2796.78	1.77091e-06
2805.46	2.28724e-06
2814.14	2.50891e-06
2822.82	2.95588e-06
2831.5	2.84778e-06
2840.17	2.64074e-06
2848.85	1.72946e-06
2857.53	1.73727e-06
2866.21	1.56358e-06
2874.89	1.91638e-06
2883.57	1.67454e-06
2892.24	2.01718e-06
2900.92	2.1858e-06
2909.6	2.14415e-06
2918.28	2.04275e-06
2926.96	2.19618e-06
2935.63	2.6542e-06
2944.31	2.82625e-06
2952.99	2.63408e-06
2961.67	1.93926e-06
2970.35	3.16302e-06
2979.03	3.58134e-06
2987.7	3.70005e-06
2996.38	3.2457e-06
3005.06	2.84925e-06
3013.74	2.50934e-06
3022.42	2.33152e-06
3031.09	2.04206e-06
3039.77	2.21894e-06
3048.45	2.38965e-06
3057.13	2.35932e-06
3065.81	2.94131e-06
3074.49	5.69328e-06
3083.16	1.98587e-05
3091.84	6.71314e-05
3100.52	7.85624e-05
3109.2	1.22388e-05
3117.88	4.3698e-06
3126.55	3.79742e-06
3135.23	4.3116e-06
3143.91	4.8245e-06
3152.59	5.13358e-06
3161.27	8.97567e-06
3169.95	1.10823e-05
3178.62	8.93667e-06
3187.3	2.59953e-06
3195.98	2.28085e-06
3204.66	2.83122e-06
3213.34	2.24309e-06
3222.01	2.77604e-06
3230.69	2.89661e-06
3239.37	2.85506e-06
3248.05	2.47844e-06
3256.73	2.90758e-06
3265.41	2.97809e-06
3274.08	3.04272e-06
3282.76	2.46863e-06
3291.44	2.34005e-06
3300.12	2.51904e-06
3308.8	2.61663e-06
3317.47	2.59669e-06
3326.15	2.40122e-06
3334.83	2.16769e-06
3343.51	2.448e-06
3352.19	2.05892e-06
3360.86	2.71629e-06
3369.54	2.37677e-06
3378.22	2.10919e-06
3386.9	2.62487e-06
3395.58	2.73145e-06
3404.26	2.21208e-06
3412.93	2.28791e-06
3421.61	2.31788e-06
3430.29	2.44386e-06
3438.97	2.6767e-06
3447.65	2.29222e-06
3456.32	2.55941e-06
3465	2.50085e-06
3473.68	2.38486e-06
3482.36	2.64082e-06
3491.04	2.39797e-06
3499.72	2.61846e-06
3508.39	2.52241e-06
3517.07	2.59032e-06
3525.75	2.74219e-06
3534.43	2.81936e-06
3543.11	2.43956e-06
3551.78	2.36065e-06
3560.46	2.44064e-06
3569.14	2.87401e-06
3577.82	2.50888e-06
3586.5	2.83598e-06
3595.18	2.57423e-06
3603.85	2.6634e-06
3612.53	2.65418e-06
3621.21	2.83907e-06
3629.89	2.46094e-06
3638.57	2.94657e-06
3647.24	2.70684e-06
3655.92	2.60229e-06
3664.6	3.2765e-06
3673.28	3.09435e-06
3681.96	3.02249e-06
3690.64	2.87013e-06
3699.31	3.3866e-06
3707.99	3.24835e-06
3716.67	3.77539e-06
3725.35	4.02309e-06
3734.03	3.56103e-06
3742.7	3.36173e-06
3751.38	2.60787e-06
3760.06	2.94672e-06
3768.74	3.30475e-06
3777.42	2.97797e-06
3786.1	3.31514e-06
3794.77	3.2745e-06
3803.45	3.0086e-06
3812.13	3.10679e-06
3820.81	2.85854e-06
3829.49	3.22605e-06
3838.16	1.99435e-06
3846.84	3.1269e-06
3855.52	2.86387e-06
3864.2	3.24948e-06
3872.88	3.48608e-06
3881.56	3.27336e-06
3890.23	3.25613e-06
3898.91	2.89707e-06
3907.59	3.2329e-06
3916.27	3.04764e-06
3924.95	3.04694e-06
3933.62	3.46402e-06
3942.3	3.90841e-06
3950.98	3.8119e-06
3959.66	3.39197e-06
3968.34	3.31924e-06
