Infrared Spectrum: 1,1,2-Trichloroethane
Formula: Cl C H2 C H Cl2
CAS: 79-00-5
State: gas
Melting point: -36.5 C
Boiling point: 113.77 C
Class: IUPAC A
Instrument: IFS66V (Bruker)
Instrument parameters: KBr Beam Splitter; MCT Detector; Multipass cell
Sampling: 1 L/min Flow
Resolution: 0.2410
Temperature: 23 C
Pressure: 101.3 Pa
Origin: NIST, Analytical Chemistry Division, 301-975-3108
cm-1	(micromol/mol)-1m-1 (base 10)
575.05	1.01572e-06
583.608	-9.79406e-07
592.165	1.87149e-06
600.723	-4.08112e-07
609.281	-4.77042e-07
617.838	-1.00444e-06
626.396	-4.23087e-07
634.954	1.57516e-06
643.511	3.27869e-06
652.069	1.14241e-05
660.626	4.88895e-05
669.184	0.00015022
677.742	0.000160467
686.299	8.37032e-05
694.857	1.90489e-05
703.415	1.37852e-05
711.972	2.75965e-05
720.53	5.37176e-05
729.088	0.000257505
737.645	0.000797726
746.203	0.00082819
754.761	0.000148644
763.318	2.65051e-05
771.876	3.73152e-05
780.434	7.56409e-05
788.991	0.000103128
797.549	9.91038e-05
806.106	1.97137e-05
814.664	2.54118e-06
823.222	1.73316e-06
831.779	1.67968e-06
840.337	2.59131e-06
848.895	2.73317e-06
857.452	1.17913e-06
866.01	5.31941e-07
874.568	7.62088e-07
883.125	1.08246e-06
891.683	3.52737e-06
900.241	5.03135e-06
908.798	8.52779e-06
917.356	2.44558e-05
925.914	7.78083e-05
934.471	0.000138968
943.029	0.000150583
951.586	4.87083e-05
960.144	1.05061e-05
968.702	5.39831e-06
977.259	3.92497e-06
985.817	1.80711e-06
994.375	2.33852e-06
1002.93	2.78205e-06
1011.49	2.65969e-06
1020.05	1.74291e-06
1028.61	2.85756e-06
1037.16	8.17985e-06
1045.72	1.5911e-05
1054.28	1.69105e-05
1062.84	1.23215e-05
1071.39	6.90975e-06
1079.95	2.10621e-06
1088.51	1.01877e-06
1097.07	2.69491e-07
1105.62	-1.86021e-07
1114.18	3.98998e-07
1122.74	1.97951e-07
1131.3	8.50436e-07
1139.85	1.69918e-06
1148.41	7.60005e-06
1156.97	1.85807e-05
1165.53	2.03265e-05
1174.09	6.96539e-06
1182.64	3.29318e-06
1191.2	9.33419e-06
1199.76	6.04136e-05
1208.32	8.73911e-05
1216.87	0.000101804
1225.43	1.3519e-05
1233.99	9.63447e-06
1242.55	1.51304e-05
1251.1	2.82857e-05
1259.66	9.5996e-05
1268.22	9.20854e-05
1276.78	3.4011e-05
1285.33	5.88494e-06
1293.89	8.10203e-06
1302.45	3.16675e-05
1311.01	3.46951e-05
1319.57	1.73519e-05
1328.12	4.87426e-06
1336.68	4.08947e-06
1345.24	4.32151e-06
1353.8	3.55149e-06
1362.35	1.37531e-06
1370.91	8.23516e-07
1379.47	8.80744e-07
1388.03	3.66443e-07
1396.58	7.22975e-07
1405.14	3.60735e-07
1413.7	2.36643e-06
1422.26	1.08177e-05
1430.81	4.27801e-05
1439.37	3.45495e-05
1447.93	2.8445e-05
1456.49	3.92127e-06
1465.05	4.53094e-07
1473.6	-1.15585e-07
1482.16	1.05336e-06
1490.72	1.53253e-07
1499.28	2.70501e-08
1507.83	-3.28926e-07
1516.39	-2.67321e-07
1524.95	-1.38058e-07
1533.51	-1.33537e-07
1542.06	-1.6907e-06
1550.62	8.8316e-08
1559.18	-5.35771e-08
1567.74	-1.88416e-07
1576.29	-2.8615e-06
1584.85	-1.38318e-07
1593.41	-1.36505e-08
1601.97	1.80079e-07
1610.53	2.00962e-07
1619.08	-9.85132e-08
1627.64	-4.15901e-07
1636.2	-1.5131e-07
1644.76	1.58742e-08
1653.31	-3.74368e-06
1661.87	-3.61994e-07
1670.43	-1.21056e-07
1678.99	-3.72511e-07
1687.54	3.00068e-08
1696.1	-2.21064e-06
1704.66	-5.08419e-07
1713.22	-2.92364e-07
1721.77	-1.12937e-07
1730.33	-1.05544e-07
1738.89	-3.28926e-07
1747.45	-2.78225e-07
1756.01	-5.91424e-07
1764.56	-1.97889e-07
1773.12	-1.66017e-07
1781.68	-1.08735e-07
1790.24	8.39778e-08
1798.79	1.65616e-07
1807.35	1.45286e-07
1815.91	1.43994e-07
1824.47	4.05946e-07
1833.02	1.53674e-07
1841.58	-8.56803e-08
1850.14	-1.60182e-07
1858.7	-3.76096e-07
1867.25	-3.80082e-07
1875.81	-1.68813e-07
1884.37	-3.42337e-07
1892.93	-2.03155e-07
1901.49	-4.73343e-07
1910.04	-3.65712e-07
1918.6	-3.16831e-07
1927.16	-2.08905e-07
1935.72	-3.55556e-08
1944.27	-2.33758e-07
1952.83	-9.45397e-08
1961.39	-3.0345e-07
1969.95	-2.28728e-07
1978.5	3.80283e-07
1987.06	2.67904e-07
1995.62	1.75415e-07
2004.18	1.16355e-07
2012.73	1.184e-07
2021.29	3.58794e-08
2029.85	-1.50644e-07
2038.41	2.22589e-08
2046.97	3.1997e-07
2055.52	-3.39494e-08
2064.08	-3.15602e-08
2072.64	-7.65254e-08
2081.2	-1.68153e-07
2089.75	5.09878e-07
2098.31	1.01194e-06
2106.87	7.02806e-07
2115.43	-4.86033e-07
2123.98	-5.00572e-07
2132.54	-3.01352e-07
2141.1	-3.62886e-07
2149.66	7.40316e-08
2158.21	-1.54703e-06
2166.77	2.73847e-09
2175.33	1.7153e-09
2183.89	3.81404e-08
2192.45	2.078e-08
2201	3.87925e-07
2209.56	-7.2862e-08
2218.12	1.94686e-07
2226.68	-1.78967e-07
2235.23	1.31777e-07
2243.79	2.74239e-07
2252.35	1.16795e-07
2260.91	-8.77803e-08
2269.46	2.04135e-08
2278.02	2.71738e-07
2286.58	-1.86339e-07
2295.14	-2.65691e-07
2303.69	-1.80343e-07
2312.25	-3.18893e-07
2320.81	-1.06695e-06
2329.37	-5.0594e-07
2337.93	-1.90936e-06
2346.48	1.72699e-07
2355.04	1.04323e-06
2363.6	1.78092e-06
2372.16	1.48308e-06
2380.71	4.35004e-07
2389.27	4.95892e-07
2397.83	8.37735e-07
2406.39	2.23734e-06
2414.94	7.82562e-07
2423.5	4.07124e-07
2432.06	1.89842e-07
2440.62	7.7507e-07
2449.17	9.08149e-07
2457.73	2.34656e-06
2466.29	2.34565e-06
2474.85	1.19095e-06
2483.41	9.81125e-07
2491.96	5.62195e-07
2500.52	4.44458e-07
2509.08	1.06669e-06
2517.64	1.03239e-06
2526.19	6.20771e-07
2534.75	1.56314e-07
2543.31	-3.56805e-07
2551.87	1.36762e-07
2560.42	1.809e-07
2568.98	4.63019e-07
2577.54	4.04516e-07
2586.1	3.94932e-07
2594.65	5.11097e-07
2603.21	5.97605e-07
2611.77	-3.46161e-08
2620.33	-1.38847e-07
2628.89	-2.85862e-07
2637.44	-1.96833e-07
2646	8.59568e-08
2654.56	6.826e-08
2663.12	-3.8385e-08
2671.67	2.05909e-08
2680.23	2.00406e-08
2688.79	4.17445e-07
2697.35	8.33116e-07
2705.9	9.01029e-07
2714.46	7.02854e-09
2723.02	1.5211e-07
2731.58	4.72389e-08
2740.13	7.61377e-07
2748.69	4.95538e-07
2757.25	-1.84091e-07
2765.81	-1.06443e-07
2774.37	1.69792e-07
2782.92	7.06337e-08
2791.48	-9.55574e-08
2800.04	-9.42341e-08
2808.6	2.04952e-07
2817.15	3.45051e-08
2825.71	-1.26265e-07
2834.27	2.89834e-07
2842.83	1.40191e-06
2851.38	5.37324e-06
2859.94	4.41014e-06
2868.5	2.86919e-06
2877.06	1.68923e-06
2885.61	1.0736e-06
2894.17	9.17447e-07
2902.73	1.2005e-06
2911.29	1.25496e-06
2919.85	1.3266e-06
2928.4	1.99213e-06
2936.96	2.30333e-06
2945.52	2.26565e-06
2954.08	4.62666e-06
2962.63	1.75321e-05
2971.19	4.25568e-05
2979.75	4.87818e-05
2988.31	1.03345e-05
2996.86	7.11109e-06
3005.42	6.70836e-06
3013.98	9.31605e-06
3022.54	5.42694e-06
3031.09	5.26483e-06
3039.65	1.37537e-06
3048.21	7.40477e-07
3056.77	1.46084e-07
3065.33	2.35142e-07
3073.88	2.0831e-08
3082.44	4.51826e-07
3091	1.97597e-07
3099.56	-2.98225e-07
3108.11	-4.50977e-07
3116.67	4.84688e-07
3125.23	4.2063e-08
3133.79	8.72192e-08
3142.34	4.34719e-07
3150.9	2.05715e-07
3159.46	3.39697e-07
3168.02	-2.89032e-07
3176.57	6.21036e-08
3185.13	5.98854e-08
3193.69	2.95221e-07
3202.25	1.7958e-07
3210.81	5.26458e-08
3219.36	-1.82984e-07
3227.92	3.90143e-07
3236.48	-1.48021e-07
3245.04	3.09242e-07
3253.59	2.98532e-07
3262.15	-1.83361e-07
3270.71	-4.86577e-10
3279.27	4.47324e-08
3287.82	-4.17928e-07
3296.38	5.71873e-07
3304.94	-5.71342e-08
3313.5	-8.90664e-08
3322.05	-5.59064e-08
3330.61	-4.07952e-08
3339.17	1.67394e-07
3347.73	2.49572e-07
3356.29	2.31533e-07
3364.84	-1.64388e-07
3373.4	-1.55592e-07
3381.96	7.46719e-07
3390.52	1.60742e-07
3399.07	3.72031e-07
3407.63	3.52924e-07
3416.19	-1.45155e-07
3424.75	-5.7405e-07
3433.3	2.70511e-07
3441.86	-4.55117e-07
3450.42	6.69903e-08
3458.98	-3.24323e-07
3467.53	3.07495e-07
3476.09	4.72968e-07
3484.65	-2.64637e-07
3493.21	-5.42132e-07
3501.77	-2.35808e-07
3510.32	4.79592e-08
3518.88	2.52722e-07
3527.44	-4.70492e-07
3536	-2.98631e-08
3544.55	2.62761e-07
3553.11	-1.54901e-07
3561.67	-1.76363e-07
3570.23	-2.83932e-07
3578.78	2.77158e-08
3587.34	-2.22889e-07
3595.9	-3.96474e-08
3604.46	-2.60829e-07
3613.01	2.41568e-07
3621.57	-1.30019e-07
3630.13	1.6208e-07
3638.69	1.75651e-07
3647.25	-3.73756e-07
3655.8	2.71532e-07
3664.36	2.74605e-07
3672.92	-2.8649e-07
3681.48	-4.57965e-08
3690.03	1.93093e-07
3698.59	6.97941e-07
3707.15	-3.40468e-08
3715.71	-2.57547e-07
3724.26	1.19812e-07
3732.82	-4.78185e-07
3741.38	3.76973e-07
3749.94	1.66671e-07
3758.49	1.07583e-06
3767.05	5.73805e-07
3775.61	3.58539e-07
3784.17	5.36954e-08
3792.73	5.0836e-07
3801.28	-1.39504e-06
3809.84	9.31194e-07
3818.4	9.53464e-07
3826.96	3.97047e-07
3835.51	2.05972e-08
3844.07	-6.22275e-07
3852.63	-3.76862e-07
3861.19	-2.92865e-07
3869.74	-5.06888e-07
3878.3	-5.80244e-07
3886.86	-3.00023e-07
3895.42	4.00474e-07
3903.97	6.40617e-08
3912.53	-5.02232e-07
3921.09	-2.60685e-07
3929.65	-2.67795e-07
3938.21	2.49341e-07
3946.76	4.50968e-07
3955.32	4.79356e-07
3963.88	4.78213e-07
3972.44	1.98778e-08
