Infrared Spectrum: Trichloroethene
Formula: C2 H Cl3
CAS: 79-01-6
State: gas
Melting point: -73 C
Boiling point: 87 C
Class: IUPAC A
Instrument: IFS66V (Bruker)
Instrument parameters: KBr Beam Splitter; MCT Detector; Multipass cell
Sampling: 1 L/min Flow
Resolution: 1.9290
Temperature: 23 C
Pressure: 101.3 Pa
Origin: NIST, Analytical Chemistry Division, 301-975-3108
cm-1	(micromol/mol)-1m-1 (base 10)
575.652	1.4569e-06
584.33	1.07799e-06
593.008	3.95224e-07
601.687	1.64731e-06
610.365	6.76343e-06
619.043	3.03695e-05
627.721	7.86963e-05
636.399	8.27449e-05
645.077	2.21275e-05
653.756	3.85502e-06
662.434	2.26008e-06
671.112	1.70388e-06
679.79	1.30409e-06
688.468	6.98061e-07
697.146	1.35104e-07
705.825	3.52184e-07
714.503	5.66698e-07
723.181	6.8183e-07
731.859	1.40092e-06
740.537	2.24518e-06
749.216	2.82722e-06
757.894	6.35441e-06
766.572	4.13772e-05
775.25	9.79457e-05
783.928	0.000202237
792.606	9.53827e-05
801.285	3.89593e-05
809.963	1.5963e-05
818.641	9.16475e-06
827.319	3.24158e-05
835.997	0.00027413
844.676	0.000722248
853.354	0.000690842
862.032	2.83892e-05
870.71	8.1414e-06
879.388	4.79688e-06
888.066	4.98414e-06
896.745	1.22836e-05
905.423	2.41893e-05
914.101	3.79597e-05
922.779	0.000109211
931.457	0.000447187
940.135	0.000504524
948.814	0.000400301
957.492	6.10558e-05
966.17	9.21338e-06
974.848	9.99572e-06
983.526	1.35934e-05
992.205	1.091e-05
1000.88	4.92666e-06
1009.56	8.50917e-06
1018.24	8.96513e-06
1026.92	6.28605e-06
1035.6	2.2697e-06
1044.27	1.58234e-06
1052.95	1.10393e-06
1061.63	8.21108e-07
1070.31	7.34963e-07
1078.99	6.71396e-07
1087.66	7.73861e-07
1096.34	1.18327e-06
1105.02	2.41398e-06
1113.7	3.31421e-06
1122.38	2.06005e-06
1131.06	1.39825e-06
1139.73	9.51086e-07
1148.41	7.05261e-07
1157.09	4.38788e-07
1165.77	4.06486e-07
1174.45	5.44547e-07
1183.12	7.14474e-07
1191.8	7.28381e-07
1200.48	1.17557e-06
1209.16	2.47077e-06
1217.84	5.27397e-06
1226.52	1.10342e-05
1235.19	1.56749e-05
1243.87	4.47153e-05
1252.55	5.30777e-05
1261.23	3.86257e-05
1269.91	1.65714e-05
1278.58	3.90436e-06
1287.26	9.49289e-07
1295.94	6.44578e-07
1304.62	1.15344e-06
1313.3	1.97892e-06
1321.98	2.13123e-06
1330.65	1.28173e-06
1339.33	7.14016e-07
1348.01	5.84581e-07
1356.69	4.47939e-07
1365.37	7.60997e-07
1374.04	7.65033e-07
1382.72	1.03151e-06
1391.4	1.09555e-06
1400.08	9.13074e-07
1408.76	1.13164e-06
1417.44	1.19726e-06
1426.11	1.56851e-06
1434.79	9.22603e-07
1443.47	6.73106e-07
1452.15	6.36435e-07
1460.83	6.51398e-07
1469.5	6.38723e-07
1478.18	6.29629e-07
1486.86	4.67372e-07
1495.54	1.57936e-07
1504.22	3.50091e-07
1512.9	4.73536e-07
1521.57	-1.90775e-08
1530.25	1.12095e-06
1538.93	3.05242e-06
1547.61	1.7307e-05
1556.29	5.25253e-05
1564.96	4.90232e-05
1573.64	2.16661e-05
1582.32	3.67808e-05
1591	3.64567e-05
1599.68	2.93902e-05
1608.36	5.34022e-06
1617.03	2.1252e-07
1625.71	6.28622e-07
1634.39	2.52253e-07
1643.07	3.21235e-07
1651.75	-4.22087e-07
1660.42	2.41339e-07
1669.1	-6.82918e-08
1677.78	5.09857e-07
1686.46	5.72554e-07
1695.14	-8.77149e-08
1703.82	1.80862e-07
1712.49	1.97642e-07
1721.17	4.22801e-07
1729.85	4.39863e-07
1738.53	6.31343e-07
1747.21	1.20813e-06
1755.88	2.36899e-06
1764.56	2.56776e-06
1773.24	1.85365e-06
1781.92	2.21773e-06
1790.6	2.34527e-06
1799.28	8.91186e-07
1807.95	6.83444e-07
1816.63	5.3756e-07
1825.31	4.34913e-07
1833.99	6.45873e-07
1842.67	6.18663e-07
1851.34	8.76746e-07
1860.02	1.48087e-06
1868.7	1.54657e-06
1877.38	1.2329e-06
1886.06	8.06633e-07
1894.74	2.24243e-07
1903.41	3.16879e-07
1912.09	4.27379e-07
1920.77	5.46451e-07
1929.45	5.6854e-07
1938.13	5.47553e-07
1946.8	5.5934e-07
1955.48	7.66463e-07
1964.16	7.97092e-07
1972.84	9.82207e-07
1981.52	6.90799e-07
1990.19	6.17255e-07
1998.87	6.64452e-07
2007.55	7.21506e-07
2016.23	6.17344e-07
2024.91	7.62254e-07
2033.59	8.56588e-07
2042.26	7.65304e-07
2050.94	7.30029e-07
2059.62	7.3189e-07
2068.3	9.23296e-07
2076.98	1.05953e-06
2085.65	1.35137e-06
2094.33	1.68705e-06
2103.01	1.38003e-06
2111.69	7.78211e-07
2120.37	7.5006e-07
2129.05	7.50853e-07
2137.72	7.42053e-07
2146.4	9.01698e-07
2155.08	8.15645e-07
2163.76	1.02905e-06
2172.44	9.48018e-07
2181.11	1.13549e-06
2189.79	1.08803e-06
2198.47	1.17829e-06
2207.15	1.08189e-06
2215.83	1.36774e-06
2224.51	1.33796e-06
2233.18	1.19024e-06
2241.86	1.03618e-06
2250.54	9.71965e-07
2259.22	1.02623e-06
2267.9	1.07396e-06
2276.57	1.0326e-06
2285.25	9.99896e-07
2293.93	1.09132e-06
2302.61	9.65929e-07
2311.29	1.11576e-06
2319.97	9.45322e-07
2328.64	9.56332e-07
2337.32	8.32095e-07
2346	9.07331e-07
2354.68	9.3832e-07
2363.36	7.84856e-07
2372.03	1.01167e-06
2380.71	1.09711e-06
2389.39	1.069e-06
2398.07	1.17876e-06
2406.75	1.19703e-06
2415.43	1.26936e-06
2424.1	1.5169e-06
2432.78	1.56333e-06
2441.46	1.33138e-06
2450.14	1.34079e-06
2458.82	1.29392e-06
2467.49	1.5592e-06
2476.17	1.93506e-06
2484.85	1.96418e-06
2493.53	1.7218e-06
2502.21	1.69056e-06
2510.89	1.62224e-06
2519.56	1.72621e-06
2528.24	1.63002e-06
2536.92	1.33285e-06
2545.6	1.30212e-06
2554.28	1.2708e-06
2562.95	1.26332e-06
2571.63	1.22578e-06
2580.31	1.22055e-06
2588.99	1.15875e-06
2597.67	1.22428e-06
2606.35	1.27892e-06
2615.02	1.3213e-06
2623.7	1.32501e-06
2632.38	1.28587e-06
2641.06	1.28839e-06
2649.74	1.31123e-06
2658.41	1.24599e-06
2667.09	1.32334e-06
2675.77	1.42185e-06
2684.45	1.29461e-06
2693.13	1.35538e-06
2701.81	1.19204e-06
2710.48	1.4769e-06
2719.16	1.46331e-06
2727.84	1.37247e-06
2736.52	1.22264e-06
2745.2	1.26515e-06
2753.87	1.42128e-06
2762.55	1.41823e-06
2771.23	1.51752e-06
2779.91	1.5157e-06
2788.59	1.56162e-06
2797.27	1.72422e-06
2805.94	2.2854e-06
2814.62	2.58123e-06
2823.3	3.09615e-06
2831.98	2.94011e-06
2840.66	2.607e-06
2849.33	1.77041e-06
2858.01	1.65152e-06
2866.69	1.60892e-06
2875.37	2.03528e-06
2884.05	1.67896e-06
2892.73	1.97704e-06
2901.4	2.1741e-06
2910.08	2.15953e-06
2918.76	2.14447e-06
2927.44	2.29875e-06
2936.12	2.61801e-06
2944.79	2.69763e-06
2953.47	2.71178e-06
2962.15	2.55751e-06
2970.83	3.22561e-06
2979.51	3.50567e-06
2988.19	3.63742e-06
2996.86	3.2002e-06
3005.54	2.78941e-06
3014.22	2.395e-06
3022.9	2.3409e-06
3031.58	2.18613e-06
3040.25	2.25134e-06
3048.93	2.46874e-06
3057.61	2.63613e-06
3066.29	3.19147e-06
3074.97	6.17368e-06
3083.65	2.28987e-05
3092.32	6.29315e-05
3101	7.37656e-05
3109.68	1.20456e-05
3118.36	4.7935e-06
3127.04	4.10228e-06
3135.71	4.36269e-06
3144.39	4.94775e-06
3153.07	5.42298e-06
3161.75	9.31596e-06
3170.43	1.10103e-05
3179.11	8.2295e-06
3187.78	2.83012e-06
3196.46	2.3928e-06
3205.14	2.71306e-06
3213.82	2.41454e-06
3222.5	2.67895e-06
3231.17	2.83881e-06
3239.85	2.90769e-06
3248.53	2.67915e-06
3257.21	2.9762e-06
3265.89	2.8126e-06
3274.57	2.93612e-06
3283.24	2.57889e-06
3291.92	2.34852e-06
3300.6	2.45536e-06
3309.28	2.66286e-06
3317.96	2.61099e-06
3326.63	2.38328e-06
3335.31	2.20596e-06
3343.99	2.44841e-06
3352.67	2.31549e-06
3361.35	2.56681e-06
3370.03	2.30722e-06
3378.7	2.16593e-06
3387.38	2.60489e-06
3396.06	2.54794e-06
3404.74	2.18618e-06
3413.42	2.33611e-06
3422.09	2.36523e-06
3430.77	2.37885e-06
3439.45	2.49394e-06
3448.13	2.39356e-06
3456.81	2.4897e-06
3465.49	2.48865e-06
3474.16	2.51429e-06
3482.84	2.64127e-06
3491.52	2.33106e-06
3500.2	2.6233e-06
3508.88	2.62192e-06
3517.55	2.53936e-06
3526.23	2.59556e-06
3534.91	2.66802e-06
3543.59	2.54974e-06
3552.27	2.57987e-06
3560.95	2.5478e-06
3569.62	2.72472e-06
3578.3	2.60354e-06
3586.98	2.83145e-06
3595.66	2.72407e-06
3604.34	2.87028e-06
3613.01	2.70437e-06
3621.69	2.94213e-06
3630.37	2.73006e-06
3639.05	3.00533e-06
3647.73	2.77435e-06
3656.41	2.69101e-06
3665.08	3.15767e-06
3673.76	2.93721e-06
3682.44	2.95411e-06
3691.12	2.70857e-06
3699.8	3.41105e-06
3708.47	3.11464e-06
3717.15	3.62342e-06
3725.83	3.75978e-06
3734.51	3.46796e-06
3743.19	2.95943e-06
3751.87	2.27822e-06
3760.54	3.02731e-06
3769.22	3.06614e-06
3777.9	2.9732e-06
3786.58	3.21054e-06
3795.26	3.16247e-06
3803.93	2.94878e-06
3812.61	3.1003e-06
3821.29	2.74204e-06
3829.97	3.29699e-06
3838.65	2.5194e-06
3847.33	3.20954e-06
3856	3.04126e-06
3864.68	3.05365e-06
3873.36	3.31529e-06
3882.04	3.28105e-06
3890.72	2.97915e-06
3899.39	2.95142e-06
3908.07	3.11501e-06
3916.75	3.03135e-06
3925.43	3.16838e-06
3934.11	3.68525e-06
3942.79	3.98037e-06
3951.46	3.6017e-06
3960.14	3.36698e-06
3968.82	3.40389e-06
