Infrared Spectrum: 1,1,2-Trichloroethane
Formula: Cl C H2 C H Cl2
CAS: 79-00-5
State: gas
Melting point: -36.5 C
Boiling point: 113.77 C
Class: IUPAC A
Instrument: IFS66V (Bruker)
Instrument parameters: KBr Beam Splitter; MCT Detector; Multipass cell
Sampling: 1 L/min Flow
Resolution: 1.9290
Temperature: 23 C
Pressure: 101.3 Pa
Origin: NIST, Analytical Chemistry Division, 301-975-3108
cm-1	(micromol/mol)-1m-1 (base 10)
575.652	-1.39694e-06
584.33	-1.46769e-07
593.008	-7.39699e-07
601.687	-1.03639e-06
610.365	-3.27575e-07
619.043	-5.15911e-07
627.721	-1.51753e-07
636.399	1.5618e-06
645.077	5.69137e-06
653.756	1.51815e-05
662.434	6.45093e-05
671.112	0.000160518
679.79	0.000193948
688.468	6.0296e-05
697.147	1.31332e-05
705.825	1.83906e-05
714.503	2.98999e-05
723.181	8.25414e-05
731.859	0.000430635
740.537	0.000846298
749.216	0.000687894
757.894	4.70402e-05
766.572	2.76468e-05
775.25	4.58163e-05
783.928	9.43612e-05
792.607	7.56424e-05
801.285	5.18196e-05
809.963	7.41242e-06
818.641	1.4033e-06
827.319	2.20616e-06
835.997	2.30291e-06
844.676	2.45521e-06
853.354	1.97031e-06
862.032	1.01252e-06
870.71	1.11109e-06
879.388	1.45255e-06
888.066	2.60527e-06
896.745	4.26364e-06
905.423	6.92576e-06
914.101	1.60729e-05
922.779	5.15371e-05
931.457	0.00014372
940.136	0.000162098
948.814	7.13758e-05
957.492	1.69461e-05
966.17	5.67239e-06
974.848	3.81013e-06
983.526	2.00261e-06
992.205	2.2779e-06
1000.88	2.72565e-06
1009.56	2.41192e-06
1018.24	1.68797e-06
1026.92	2.92421e-06
1035.6	7.3329e-06
1044.27	1.45605e-05
1052.95	1.74331e-05
1061.63	1.37673e-05
1070.31	7.45234e-06
1078.99	2.84183e-06
1087.66	7.56849e-07
1096.34	6.00962e-07
1105.02	1.36156e-07
1113.7	2.69624e-07
1122.38	5.77332e-07
1131.06	7.21796e-07
1139.73	1.61138e-06
1148.41	7.82861e-06
1157.09	1.96836e-05
1165.77	2.01461e-05
1174.45	6.5223e-06
1183.12	3.35516e-06
1191.8	1.04985e-05
1200.48	7.18294e-05
1209.16	0.000135159
1217.84	8.07811e-05
1226.52	1.20658e-05
1235.19	1.07496e-05
1243.87	1.44762e-05
1252.55	3.73406e-05
1261.23	9.51448e-05
1269.91	8.50023e-05
1278.58	2.40147e-05
1287.26	4.39498e-06
1295.94	1.23347e-05
1304.62	3.57561e-05
1313.3	3.69556e-05
1321.98	1.02646e-05
1330.65	5.02158e-06
1339.33	4.24836e-06
1348.01	4.24278e-06
1356.69	2.94515e-06
1365.37	1.12219e-06
1374.04	6.15789e-07
1382.72	7.16854e-07
1391.4	7.14363e-07
1400.08	5.52993e-07
1408.76	1.32095e-06
1417.44	3.88632e-06
1426.11	2.05057e-05
1434.79	4.4254e-05
1443.47	4.78326e-05
1452.15	1.42589e-05
1460.83	2.02009e-06
1469.5	1.08405e-06
1478.18	9.99135e-07
1486.86	8.27604e-07
1495.54	7.68374e-08
1504.22	-2.06165e-07
1512.9	-1.49491e-07
1521.57	-6.30979e-07
1530.25	-1.6469e-07
1538.93	-1.0144e-06
1547.61	1.11926e-07
1556.29	5.01393e-08
1564.96	-3.64551e-08
1573.64	-1.13177e-07
1582.32	-1.52866e-07
1591	-2.48859e-07
1599.68	-1.50157e-09
1608.36	2.61405e-07
1617.03	-4.21032e-07
1625.71	-9.0607e-08
1634.39	-5.55001e-07
1643.07	-1.8628e-07
1651.75	-9.36531e-07
1660.42	-1.70824e-07
1669.1	-6.24975e-07
1677.78	-2.16977e-07
1686.46	-1.50444e-07
1695.14	-8.16611e-07
1703.82	-2.37643e-07
1712.49	-1.12241e-07
1721.17	-3.89616e-08
1729.85	-1.33605e-07
1738.53	-2.5781e-07
1747.21	-3.8564e-07
1755.88	-4.99846e-07
1764.56	-1.75994e-07
1773.24	-5.59837e-07
1781.92	-3.7772e-08
1790.6	-9.85796e-09
1799.28	1.33067e-07
1807.95	1.05685e-07
1816.63	8.57504e-08
1825.31	5.86266e-07
1833.99	1.67886e-07
1842.67	-2.93783e-07
1851.34	-3.31073e-07
1860.02	-3.36023e-07
1868.7	-4.39954e-07
1877.38	-3.11437e-07
1886.06	-3.54713e-07
1894.74	-3.97269e-07
1903.41	-3.72875e-07
1912.09	-3.38603e-07
1920.77	-2.9609e-07
1929.45	-1.96527e-07
1938.13	-5.36554e-08
1946.8	-4.53344e-08
1955.48	-2.21585e-07
1964.16	-3.08169e-07
1972.84	3.09854e-08
1981.52	3.50045e-07
1990.2	4.10848e-07
1998.87	2.891e-08
2007.55	9.47507e-09
2016.23	-4.61102e-08
2024.91	-6.81072e-08
2033.59	-1.05081e-07
2042.26	2.39478e-08
2050.94	1.81025e-07
2059.62	-3.94992e-08
2068.3	-1.51376e-07
2076.98	-1.25059e-07
2085.66	1.86063e-08
2094.33	2.59068e-07
2103.01	2.99206e-07
2111.69	2.4306e-07
2120.37	-1.39311e-07
2129.05	1.52694e-08
2137.72	-4.45777e-08
2146.4	-1.81083e-07
2155.08	-4.09391e-07
2163.76	-1.15651e-07
2172.44	-4.19499e-07
2181.12	5.9688e-08
2189.79	-2.97658e-08
2198.47	5.28377e-07
2207.15	4.43061e-07
2215.83	6.97733e-08
2224.51	-6.11577e-08
2233.18	-9.39867e-08
2241.86	-5.14362e-08
2250.54	6.20872e-08
2259.22	3.23306e-08
2267.9	3.20959e-08
2276.58	-4.25969e-08
2285.25	-1.839e-07
2293.93	-2.11173e-07
2302.61	-1.61926e-07
2311.29	-5.06531e-07
2319.97	-9.31797e-07
2328.64	-1.83418e-06
2337.32	-2.25371e-06
2346	-7.23268e-07
2354.68	-5.94306e-07
2363.36	-5.5184e-07
2372.04	5.1294e-07
2380.71	5.38849e-07
2389.39	5.06733e-07
2398.07	9.50369e-07
2406.75	1.92783e-06
2415.43	9.24571e-07
2424.1	3.42534e-07
2432.78	7.91111e-08
2441.46	3.94218e-07
2450.14	1.15198e-06
2458.82	2.29807e-06
2467.5	1.9583e-06
2476.17	1.19387e-06
2484.85	8.3808e-07
2493.53	6.94292e-07
2502.21	7.59146e-07
2510.89	1.20542e-06
2519.56	1.15295e-06
2528.24	5.54018e-07
2536.92	-1.9144e-07
2545.6	-2.17383e-07
2554.28	-1.12094e-07
2562.96	3.8017e-07
2571.63	5.36517e-07
2580.31	3.20864e-07
2588.99	2.96429e-07
2597.67	4.70551e-07
2606.35	2.03656e-07
2615.02	1.9092e-07
2623.7	-1.19673e-07
2632.38	-7.8469e-08
2641.06	1.1349e-07
2649.74	1.7843e-07
2658.42	-8.78276e-08
2667.09	-2.31165e-08
2675.77	9.73727e-08
2684.45	-2.01125e-08
2693.13	7.47329e-07
2701.81	8.33993e-07
2710.48	3.9742e-07
2719.16	7.87482e-08
2727.84	1.55578e-07
2736.52	6.18078e-07
2745.2	6.1566e-07
2753.88	3.36026e-07
2762.55	-7.35705e-08
2771.23	-1.21081e-07
2779.91	1.16247e-07
2788.59	4.06906e-09
2797.27	-1.4761e-08
2805.94	6.45247e-08
2814.62	7.67646e-08
2823.3	1.47366e-07
2831.98	3.52312e-07
2840.66	7.03819e-07
2849.34	3.98734e-06
2858.01	7.56584e-06
2866.69	4.0513e-06
2875.37	6.20817e-07
2884.05	1.08953e-06
2892.73	1.02621e-06
2901.4	1.2314e-06
2910.08	1.21964e-06
2918.76	1.40901e-06
2927.44	1.8765e-06
2936.12	1.88648e-06
2944.8	2.22358e-06
2953.47	4.43496e-06
2962.15	1.60334e-05
2970.83	4.36106e-05
2979.51	4.83015e-05
2988.19	1.10191e-05
2996.86	6.94581e-06
3005.54	9.45653e-06
3014.22	9.06937e-06
3022.9	4.99774e-06
3031.58	4.98941e-06
3040.26	1.14311e-06
3048.93	5.03008e-07
3057.61	2.05269e-07
3066.29	8.98285e-08
3074.97	2.9508e-07
3083.65	3.99144e-07
3092.32	9.3079e-08
3101	-3.12292e-08
3109.68	1.11887e-07
3118.36	1.70566e-08
3127.04	-9.66515e-09
3135.72	7.7363e-08
3144.39	1.28968e-07
3153.07	3.30341e-07
3161.75	6.04256e-08
3170.43	1.24435e-07
3179.11	1.09562e-07
3187.78	5.46103e-08
3196.46	1.63906e-07
3205.14	1.12617e-07
3213.82	5.5578e-08
3222.5	-2.89736e-08
3231.18	-1.08275e-07
3239.85	-7.7182e-08
3248.53	2.9663e-08
3257.21	4.74917e-08
3265.89	8.57576e-08
3274.57	-5.64802e-08
3283.24	-1.21344e-07
3291.92	5.82346e-09
3300.6	1.14415e-07
3309.28	8.25326e-08
3317.96	-6.31614e-08
3326.64	5.06359e-08
3335.31	1.97831e-07
3343.99	3.80913e-08
3352.67	1.78485e-07
3361.35	7.00535e-08
3370.03	1.62409e-07
3378.7	-6.13142e-08
3387.38	1.22176e-07
3396.06	2.68336e-07
3404.74	4.15683e-07
3413.42	3.05296e-07
3422.1	2.82961e-08
3430.77	2.30283e-09
3439.45	-1.01929e-07
3448.13	-9.48043e-08
3456.81	-3.00523e-08
3465.49	-1.55969e-07
3474.16	-2.66212e-07
3482.84	-1.68805e-07
3491.52	-1.14662e-07
3500.2	-1.8355e-07
3508.88	-1.5134e-07
3517.56	2.72447e-08
3526.23	-2.1787e-07
3534.91	2.55167e-08
3543.59	-2.80748e-07
3552.27	-7.59197e-08
3560.95	-9.16793e-08
3569.62	-2.60281e-07
3578.3	-7.35887e-08
3586.98	-3.01078e-07
3595.66	-2.762e-07
3604.34	-2.47039e-07
3613.02	-2.15555e-07
3621.69	-2.40039e-07
3630.37	-2.13978e-07
3639.05	1.34104e-08
3647.73	-1.5998e-07
3656.41	4.28188e-08
3665.08	2.42055e-07
3673.76	-2.68672e-08
3682.44	1.36697e-07
3691.12	-1.55358e-07
3699.8	3.22506e-07
3708.48	8.84215e-08
3717.15	5.95097e-08
3725.83	-2.17173e-07
3734.51	-4.04766e-07
3743.19	-2.30424e-07
3751.87	-3.34374e-07
3760.54	5.92566e-07
3769.22	6.65576e-07
3777.9	3.66197e-07
3786.58	2.79351e-07
3795.26	2.08637e-07
3803.94	4.97331e-07
3812.61	5.25079e-07
3821.29	-1.1403e-07
3829.97	-4.54645e-08
3838.65	-6.82844e-07
3847.33	-2.98036e-07
3856	-2.73625e-07
3864.68	-4.30762e-07
3873.36	-3.83853e-07
3882.04	-3.93906e-07
3890.72	-1.83645e-07
3899.4	7.92702e-08
3908.07	3.2941e-07
3916.75	-9.05443e-08
3925.43	-9.61576e-08
3934.11	2.75601e-07
3942.79	2.35218e-07
3951.46	5.63363e-07
3960.14	8.43191e-07
3968.82	2.8677e-07
