Infrared Spectrum: Trichloroethene
Formula: C2 H Cl3
CAS: 79-01-6
State: gas
Melting point: -73 C
Boiling point: 87 C
Class: IUPAC A
Instrument: IFS66V (Bruker)
Instrument parameters: KBr Beam Splitter; MCT Detector; Multipass cell
Sampling: 1 L/min Flow
Resolution: 0.1250
Temperature: 23 C
Pressure: 101.3 Pa
Origin: NIST, Analytical Chemistry Division, 301-975-3108
cm-1	(micromol/mol)-1m-1 (base 10)
575.05	3.26092e-06
583.608	6.40173e-06
592.165	-3.78288e-06
600.723	-5.27425e-07
609.281	2.5216e-06
617.838	2.51992e-05
626.396	7.5371e-05
634.954	7.10165e-05
643.511	2.81752e-05
652.069	5.55974e-06
660.626	7.49423e-07
669.184	-1.798e-06
677.742	-1.06273e-06
686.299	1.84446e-06
694.857	1.4169e-06
703.415	-2.62956e-06
711.972	-1.18234e-06
720.53	5.48306e-07
729.088	1.85682e-06
737.645	2.4296e-06
746.203	2.50668e-07
754.761	1.3229e-06
763.318	2.09166e-05
771.876	8.07812e-05
780.434	9.5718e-05
788.991	0.000108308
797.549	6.4524e-05
806.106	1.84834e-05
814.664	5.01824e-06
823.222	1.08612e-05
831.779	8.97152e-05
840.337	0.000566286
848.895	0.000856161
857.452	0.000321306
866.01	4.12479e-06
874.568	4.44402e-06
883.125	2.35138e-06
891.683	5.82221e-06
900.241	1.92556e-05
908.798	1.98134e-05
917.356	4.1707e-05
925.914	0.000183484
934.471	0.000586983
943.029	0.000622462
951.586	0.00019999
960.144	2.51909e-05
968.702	6.67708e-06
977.259	1.29202e-05
985.817	1.03639e-05
994.375	7.72007e-06
1002.93	5.13634e-06
1011.49	7.82762e-06
1020.05	9.10937e-06
1028.61	3.72738e-06
1037.16	2.80932e-06
1045.72	1.24777e-06
1054.28	1.15181e-06
1062.84	9.16986e-07
1071.39	5.86288e-07
1079.95	6.59184e-07
1088.51	1.49155e-06
1097.07	7.88431e-07
1105.62	2.98148e-06
1114.18	3.99883e-06
1122.74	6.53174e-07
1131.3	1.87709e-06
1139.85	1.03764e-06
1148.41	3.16547e-07
1156.97	1.69623e-07
1165.53	9.93843e-07
1174.09	-2.22253e-07
1182.64	1.31742e-06
1191.2	8.8404e-07
1199.76	1.15901e-06
1208.32	2.25201e-06
1216.87	3.9155e-06
1225.43	1.02064e-05
1233.99	1.23807e-05
1242.55	3.88889e-05
1251.1	5.5714e-05
1259.66	4.55441e-05
1268.22	1.84476e-05
1276.78	5.08541e-06
1285.33	1.04137e-06
1293.89	1.47203e-06
1302.45	1.99149e-06
1311.01	1.35327e-06
1319.57	2.09224e-06
1328.12	2.33873e-06
1336.68	2.02791e-07
1345.24	4.58303e-07
1353.8	-5.29647e-07
1362.35	-6.85807e-07
1370.91	3.90731e-07
1379.47	6.34147e-07
1388.03	1.80527e-06
1396.58	8.20808e-07
1405.14	9.36952e-07
1413.7	2.10143e-06
1422.26	1.16551e-06
1430.81	7.11217e-07
1439.37	1.15949e-06
1447.93	-7.98708e-07
1456.49	-1.0982e-06
1465.05	3.71074e-08
1473.6	-8.61784e-07
1482.16	7.8927e-07
1490.72	-6.23113e-07
1499.28	2.6863e-07
1507.83	-1.47265e-07
1516.39	7.41758e-07
1524.95	-3.71801e-08
1533.51	1.3679e-06
1542.06	4.70669e-06
1550.62	2.99083e-05
1559.18	3.17357e-05
1567.74	4.17897e-05
1576.29	1.90755e-05
1584.85	4.45645e-05
1593.41	4.29677e-05
1601.97	1.83285e-05
1610.53	2.92594e-06
1619.08	1.33993e-06
1627.64	1.36794e-07
1636.2	-2.51716e-07
1644.76	7.41669e-07
1653.31	-4.7925e-06
1661.87	4.71344e-07
1670.43	-4.51946e-07
1678.99	7.28824e-07
1687.54	2.74585e-07
1696.1	-1.48897e-06
1704.66	6.61752e-08
1713.22	-4.22785e-07
1721.77	4.86809e-07
1730.33	5.34002e-07
1738.89	1.77665e-07
1747.45	1.07246e-06
1756.01	3.21198e-06
1764.56	2.7382e-06
1773.12	2.45096e-06
1781.68	1.80869e-06
1790.24	2.87759e-06
1798.79	7.25308e-07
1807.35	6.6003e-07
1815.91	1.13775e-06
1824.47	4.27618e-07
1833.02	3.73271e-07
1841.58	-6.02929e-08
1850.14	-4.05078e-07
1858.7	1.34387e-06
1867.25	1.57217e-06
1875.81	1.30051e-06
1884.37	4.94683e-07
1892.93	3.99616e-07
1901.49	4.13943e-07
1910.04	-1.23427e-07
1918.6	7.49591e-07
1927.16	9.1654e-07
1935.72	-1.50905e-07
1944.27	3.74764e-07
1952.83	1.41934e-07
1961.39	1.03453e-06
1969.95	5.75282e-07
1978.5	1.49304e-06
1987.06	7.49383e-07
1995.62	7.63361e-07
2004.18	1.13291e-06
2012.73	6.51987e-07
2021.29	4.08296e-07
2029.85	4.87127e-07
2038.41	1.40495e-07
2046.97	1.04919e-06
2055.52	1.16997e-06
2064.08	6.78784e-07
2072.64	1.47853e-06
2081.2	1.40916e-06
2089.75	4.88438e-07
2098.31	1.78419e-06
2106.87	1.56129e-06
2115.43	3.19852e-07
2123.98	6.88787e-07
2132.54	8.5889e-07
2141.1	-8.3111e-08
2149.66	8.90732e-07
2158.21	7.46731e-08
2166.77	1.22362e-06
2175.33	1.03799e-06
2183.89	1.2681e-06
2192.45	9.71442e-07
2201	1.14867e-06
2209.56	1.26453e-06
2218.12	1.49922e-06
2226.68	1.72582e-06
2235.23	9.53049e-07
2243.79	1.95684e-06
2252.35	6.49064e-07
2260.91	6.76562e-07
2269.46	1.17527e-06
2278.02	1.22674e-06
2286.58	1.28372e-06
2295.14	1.66661e-06
2303.69	1.04328e-06
2312.25	8.41376e-07
2320.81	7.95016e-07
2329.37	1.11418e-06
2337.93	4.78252e-07
2346.48	7.93277e-07
2355.04	1.42277e-06
2363.6	8.17086e-07
2372.16	1.1629e-06
2380.71	9.77006e-07
2389.27	5.70229e-07
2397.83	1.83407e-06
2406.39	1.43652e-06
2414.94	1.39356e-06
2423.5	1.65942e-06
2432.06	1.46925e-06
2440.62	1.50721e-06
2449.17	8.87125e-07
2457.73	1.36354e-06
2466.29	1.39951e-06
2474.85	1.60591e-06
2483.41	2.19625e-06
2491.96	2.28109e-06
2500.52	1.66668e-06
2509.08	1.61681e-06
2517.64	2.60444e-06
2526.19	1.87733e-06
2534.75	1.64706e-06
2543.31	1.05247e-06
2551.87	7.41025e-07
2560.42	8.15798e-07
2568.98	8.16919e-07
2577.54	9.65792e-07
2586.1	1.80206e-06
2594.65	1.06109e-06
2603.21	1.3801e-06
2611.77	1.58552e-06
2620.33	1.33073e-06
2628.89	1.70222e-06
2637.44	1.32265e-06
2646	1.84519e-06
2654.56	3.856e-07
2663.12	8.08948e-07
2671.67	1.3781e-06
2680.23	1.66346e-06
2688.79	3.45264e-07
2697.35	1.09563e-06
2705.9	1.74383e-06
2714.46	8.64045e-07
2723.02	7.9564e-07
2731.58	1.27428e-06
2740.13	1.97865e-06
2748.69	1.17441e-06
2757.25	1.07481e-07
2765.81	8.72557e-07
2774.37	1.45207e-06
2782.92	1.43736e-06
2791.48	1.95961e-06
2800.04	2.07588e-06
2808.6	1.59231e-06
2817.15	2.28943e-06
2825.71	4.21178e-06
2834.27	3.50264e-06
2842.83	2.1158e-06
2851.38	1.76299e-06
2859.94	2.11364e-06
2868.5	2.65938e-06
2877.06	2.74758e-06
2885.61	1.97773e-06
2894.17	5.94111e-07
2902.73	3.0421e-06
2911.29	1.85484e-06
2919.85	1.82824e-06
2928.4	3.15686e-06
2936.96	1.6296e-06
2945.52	1.40501e-06
2954.08	2.48324e-06
2962.63	2.86021e-06
2971.19	3.93271e-06
2979.75	3.54824e-06
2988.31	3.88805e-06
2996.86	3.62764e-06
3005.42	2.96925e-06
3013.98	3.39345e-06
3022.54	3.00695e-06
3031.09	2.26144e-06
3039.65	2.94964e-06
3048.21	2.86195e-06
3056.77	1.99624e-06
3065.33	3.03546e-06
3073.88	5.31161e-06
3082.44	1.59651e-05
3091	6.86865e-05
3099.56	7.52947e-05
3108.11	1.46855e-05
3116.67	4.00657e-06
3125.23	2.62317e-06
3133.79	5.94304e-06
3142.34	3.20672e-06
3150.9	5.592e-06
3159.46	7.70358e-06
3168.02	1.27888e-05
3176.57	9.37844e-06
3185.13	2.02207e-06
3193.69	1.97423e-06
3202.25	3.86832e-06
3210.81	2.89143e-06
3219.36	1.88402e-06
3227.92	2.3609e-06
3236.48	1.66283e-06
3245.04	3.28995e-06
3253.59	3.38036e-06
3262.15	4.38297e-06
3270.71	3.99031e-06
3279.27	2.5219e-06
3287.82	2.14369e-06
3296.38	2.34633e-06
3304.94	5.85922e-07
3313.5	2.69253e-06
3322.05	3.17825e-06
3330.61	2.24158e-06
3339.17	1.46095e-06
3347.73	4.02198e-06
3356.29	4.73768e-06
3364.84	3.09474e-06
3373.4	1.65811e-06
3381.96	1.98953e-06
3390.52	2.38753e-06
3399.07	1.31972e-06
3407.63	1.83651e-06
3416.19	3.11249e-06
3424.75	2.03735e-06
3433.3	3.13397e-06
3441.86	2.47434e-06
3450.42	2.30858e-06
3458.98	1.61788e-07
3467.53	3.42408e-06
3476.09	1.99534e-06
3484.65	4.47792e-06
3493.21	3.31924e-06
3501.77	2.25357e-06
3510.32	2.46497e-06
3518.88	1.43322e-06
3527.44	2.22098e-06
3536	3.09485e-06
3544.55	4.11496e-06
3553.11	3.6721e-06
3561.67	3.0583e-06
3570.23	3.05931e-06
3578.78	1.0137e-06
3587.34	1.8164e-06
3595.9	2.14091e-06
3604.46	3.5037e-06
3613.01	3.08403e-06
3621.57	4.81452e-06
3630.13	3.39228e-06
3638.69	3.09188e-06
3647.25	2.21187e-06
3655.8	3.23953e-06
3664.36	3.85413e-06
3672.92	3.08503e-06
3681.48	3.58808e-06
3690.03	3.15132e-06
3698.59	4.2816e-06
3707.15	3.33751e-06
3715.71	4.20975e-06
3724.26	3.57492e-06
3732.82	3.09863e-06
3741.38	3.06057e-06
3749.94	3.68046e-06
3758.49	3.75997e-06
3767.05	4.06228e-06
3775.61	2.3928e-06
3784.17	2.51748e-06
3792.73	3.20315e-06
3801.28	1.14155e-06
3809.84	3.42036e-06
3818.4	1.93021e-06
3826.96	3.60838e-06
3835.51	2.17072e-06
3844.07	3.60068e-06
3852.63	4.70451e-06
3861.19	5.01481e-06
3869.74	2.79192e-06
3878.3	3.53605e-06
3886.86	2.27686e-06
3895.42	2.10491e-06
3903.97	4.43649e-06
3912.53	4.60282e-06
3921.09	1.70493e-06
3929.65	4.13073e-06
3938.21	4.02882e-06
3946.76	4.054e-06
3955.32	2.80725e-06
3963.88	4.59519e-06
3972.44	1.68591e-06
