Infrared Spectrum: 1,1,2-Trichloroethane
Formula: Cl C H2 C H Cl2
CAS: 79-00-5
State: gas
Melting point: -36.5 C
Boiling point: 113.77 C
Class: IUPAC A
Instrument: IFS66V (Bruker)
Instrument parameters: KBr Beam Splitter; MCT Detector; Multipass cell
Sampling: 1 L/min Flow
Resolution: 0.4820
Temperature: 23 C
Pressure: 101.3 Pa
Origin: NIST, Analytical Chemistry Division, 301-975-3108
cm-1	(micromol/mol)-1m-1 (base 10)
575.17	1.05058e-06
583.848	-7.57052e-07
592.526	-1.46957e-06
601.205	-1.65403e-06
609.883	4.46269e-07
618.561	-2.11055e-07
627.239	-4.45264e-07
635.917	8.42992e-07
644.595	5.98702e-06
653.274	1.45166e-05
661.952	5.99767e-05
670.63	0.000160113
679.308	0.000190843
687.986	6.52411e-05
696.665	1.43972e-05
705.343	1.79588e-05
714.021	2.92305e-05
722.699	7.70709e-05
731.377	0.000396002
740.055	0.00083814
748.734	0.00071106
757.412	5.5361e-05
766.09	2.79825e-05
774.768	4.39705e-05
783.446	9.11322e-05
792.124	7.42015e-05
800.803	5.71269e-05
809.481	8.42836e-06
818.159	1.74932e-06
826.837	2.44634e-06
835.515	2.33634e-06
844.194	2.63314e-06
852.872	1.9874e-06
861.55	9.90162e-07
870.228	9.64619e-07
878.906	1.53683e-06
887.584	2.83678e-06
896.263	4.40512e-06
904.941	7.08647e-06
913.619	1.5278e-05
922.297	4.83406e-05
930.975	0.000138423
939.654	0.000153603
948.332	7.49916e-05
957.01	1.88435e-05
965.688	5.68905e-06
974.366	4.00148e-06
983.044	1.8322e-06
991.723	2.46018e-06
1000.4	2.78396e-06
1009.08	2.25886e-06
1017.76	1.53174e-06
1026.44	2.83769e-06
1035.11	6.98397e-06
1043.79	1.39421e-05
1052.47	1.76876e-05
1061.15	1.44895e-05
1069.83	8.17493e-06
1078.5	3.09823e-06
1087.18	6.60957e-07
1095.86	6.95928e-07
1104.54	4.0044e-07
1113.22	3.70507e-07
1121.9	6.4832e-07
1130.57	7.4403e-07
1139.25	1.54776e-06
1147.93	7.31325e-06
1156.61	1.87923e-05
1165.29	2.01825e-05
1173.96	7.15076e-06
1182.64	3.45271e-06
1191.32	9.73793e-06
1200	6.42575e-05
1208.68	0.000117088
1217.36	9.05829e-05
1226.03	1.3144e-05
1234.71	1.03483e-05
1243.39	1.48685e-05
1252.07	3.41089e-05
1260.75	9.65941e-05
1269.42	8.70377e-05
1278.1	2.64899e-05
1286.78	4.86068e-06
1295.46	1.11947e-05
1304.14	3.45517e-05
1312.82	3.61789e-05
1321.49	1.12559e-05
1330.17	5.17659e-06
1338.85	4.46217e-06
1347.53	4.37977e-06
1356.21	3.4761e-06
1364.88	1.30642e-06
1373.56	6.00034e-07
1382.24	6.90001e-07
1390.92	4.63213e-07
1399.6	5.5874e-07
1408.28	1.48458e-06
1416.95	3.74374e-06
1425.63	1.90557e-05
1434.31	4.61073e-05
1442.99	4.90022e-05
1451.67	1.57521e-05
1460.34	2.07082e-06
1469.02	1.30774e-06
1477.7	1.08191e-06
1486.38	9.09283e-07
1495.06	3.23552e-07
1503.74	-4.25723e-08
1512.41	-3.76432e-07
1521.09	-1.23622e-06
1529.77	-1.88919e-08
1538.45	-3.44493e-07
1547.13	8.92237e-08
1555.8	7.91011e-08
1564.48	1.18591e-07
1573.16	-2.22232e-07
1581.84	-5.99481e-08
1590.52	-2.3618e-07
1599.2	-9.0416e-08
1607.87	2.54755e-07
1616.55	-1.45625e-06
1625.23	1.15733e-08
1633.91	-4.13697e-07
1642.59	-2.67911e-07
1651.26	-2.18598e-07
1659.94	-2.1303e-07
1668.62	-3.13832e-07
1677.3	-2.08879e-07
1685.98	-1.89354e-07
1694.66	-2.002e-07
1703.33	-5.15854e-08
1712.01	-4.06478e-08
1720.69	-6.24892e-08
1729.37	-6.55106e-09
1738.05	-9.94209e-08
1746.72	-3.36488e-07
1755.4	-5.50438e-07
1764.08	-1.60827e-07
1772.76	-1.5334e-06
1781.44	5.65866e-08
1790.12	2.05699e-08
1798.79	1.63314e-07
1807.47	1.30435e-07
1816.15	1.20094e-07
1824.83	3.18377e-07
1833.51	2.12114e-07
1842.18	-2.13002e-07
1850.86	-3.3316e-07
1859.54	-3.30241e-07
1868.22	-4.15247e-07
1876.9	-2.97213e-07
1885.58	-3.45623e-07
1894.25	-2.49059e-07
1902.93	-3.30069e-07
1911.61	-1.62869e-07
1920.29	-2.1359e-07
1928.97	-1.90052e-07
1937.64	-1.08493e-08
1946.32	-7.86845e-08
1955	-1.66574e-07
1963.68	-3.91369e-07
1972.36	1.81789e-08
1981.04	4.11216e-07
1989.71	4.58236e-07
1998.39	-1.24086e-07
2007.07	2.56294e-09
2015.75	-1.10937e-07
2024.43	-5.1659e-09
2033.1	-2.01567e-07
2041.78	5.46467e-08
2050.46	9.21468e-08
2059.14	1.38573e-07
2067.82	-1.59567e-07
2076.5	1.4543e-07
2085.17	2.23787e-07
2093.85	5.67793e-07
2102.53	6.16862e-07
2111.21	3.8105e-07
2119.89	-5.5408e-07
2128.56	7.89301e-08
2137.24	-2.61233e-08
2145.92	-1.43289e-07
2154.6	-1.02001e-06
2163.28	6.19908e-09
2171.96	-1.29167e-07
2180.63	7.74149e-08
2189.31	1.57649e-07
2197.99	6.79962e-07
2206.67	4.85832e-07
2215.35	-3.46006e-08
2224.02	-2.15956e-07
2232.7	-3.95583e-08
2241.38	-1.26005e-07
2250.06	1.24621e-07
2258.74	1.95781e-07
2267.42	1.06245e-07
2276.09	-8.34757e-08
2284.77	-2.25694e-07
2293.45	-2.88419e-07
2302.13	-4.95436e-08
2310.81	-7.11035e-07
2319.48	-9.68653e-07
2328.16	-7.93199e-07
2336.84	-8.62873e-07
2345.52	-5.2895e-07
2354.2	-1.18153e-06
2362.88	-3.64618e-06
2371.55	-4.91106e-07
2380.23	7.89104e-07
2388.91	5.86647e-07
2397.59	9.00944e-07
2406.27	2.18055e-06
2414.94	8.77633e-07
2423.62	4.31575e-07
2432.3	-6.53532e-08
2440.98	2.90932e-07
2449.66	1.15177e-06
2458.34	2.08074e-06
2467.01	2.09441e-06
2475.69	1.16747e-06
2484.37	8.68341e-07
2493.05	8.65504e-07
2501.73	7.11116e-07
2510.4	1.17593e-06
2519.08	1.15131e-06
2527.76	7.01875e-07
2536.44	-2.37695e-08
2545.12	-3.82864e-07
2553.8	-1.34704e-07
2562.47	5.346e-07
2571.15	5.6756e-07
2579.83	4.75595e-07
2588.51	3.15622e-07
2597.19	3.64566e-07
2605.86	1.94354e-07
2614.54	1.53263e-07
2623.22	-5.09424e-08
2631.9	-6.74787e-08
2640.58	2.63347e-07
2649.26	1.97892e-07
2657.93	4.06724e-08
2666.61	5.9347e-08
2675.29	-1.83935e-08
2683.97	5.58227e-08
2692.65	7.02248e-07
2701.32	6.35527e-07
2710	3.03189e-07
2718.68	1.69711e-09
2727.36	2.34986e-07
2736.04	6.05765e-07
2744.71	6.51268e-07
2753.39	4.20421e-07
2762.07	-2.64086e-07
2770.75	-8.4337e-09
2779.43	2.28851e-07
2788.11	6.06193e-08
2796.78	-6.51695e-08
2805.46	-5.58754e-08
2814.14	-7.72257e-08
2822.82	3.76083e-07
2831.5	3.57667e-07
2840.17	6.52585e-07
2848.85	3.4954e-06
2857.53	7.58881e-06
2866.21	4.41562e-06
2874.89	4.48364e-07
2883.57	1.14697e-06
2892.24	1.05184e-06
2900.92	1.32618e-06
2909.6	1.18507e-06
2918.28	1.63932e-06
2926.96	1.79331e-06
2935.63	2.12036e-06
2944.31	2.0419e-06
2952.99	4.31438e-06
2961.67	1.45376e-05
2970.35	4.5482e-05
2979.03	4.8523e-05
2987.7	1.22797e-05
2996.38	6.46395e-06
3005.06	6.9884e-06
3013.74	9.52853e-06
3022.42	5.52267e-06
3031.09	5.17996e-06
3039.77	1.31138e-06
3048.45	6.5338e-07
3057.13	1.7958e-07
3065.81	2.64452e-08
3074.49	6.1498e-07
3083.16	4.55444e-07
3091.84	8.15212e-08
3100.52	1.29626e-07
3109.2	3.42467e-07
3117.88	4.5248e-08
3126.55	-9.61786e-09
3135.23	1.84554e-07
3143.91	8.48236e-08
3152.59	2.2634e-07
3161.27	1.5525e-07
3169.95	1.27962e-07
3178.62	1.7554e-07
3187.3	2.70511e-07
3195.98	-1.25127e-07
3204.66	-1.13164e-07
3213.34	1.01766e-07
3222.01	-1.9347e-07
3230.69	-2.797e-07
3239.37	-1.25963e-07
3248.05	-3.92681e-08
3256.73	2.12236e-07
3265.41	6.70058e-08
3274.08	-2.92426e-07
3282.76	2.81777e-07
3291.44	-5.74834e-08
3300.12	3.36338e-07
3308.8	-1.9446e-07
3317.47	2.10728e-07
3326.15	2.01078e-07
3334.83	-1.68281e-07
3343.51	-3.9872e-08
3352.19	3.13543e-07
3360.87	2.4922e-07
3369.54	1.90281e-07
3378.22	-9.10463e-08
3386.9	1.85565e-07
3395.58	4.19081e-07
3404.26	5.30032e-07
3412.93	2.75466e-07
3421.61	-1.85081e-08
3430.29	1.98079e-07
3438.97	-1.5979e-07
3447.65	1.00685e-07
3456.33	-1.53825e-07
3465	-6.58789e-08
3473.68	-3.2833e-07
3482.36	-1.22433e-07
3491.04	-1.44237e-07
3499.72	-4.4335e-07
3508.39	9.20213e-08
3517.07	1.30979e-07
3525.75	-4.54437e-07
3534.43	6.28912e-08
3543.11	-3.96947e-07
3551.79	-2.22663e-07
3560.46	-4.20848e-08
3569.14	-2.47559e-07
3577.82	-2.03302e-07
3586.5	-5.09485e-07
3595.18	-3.19614e-07
3603.85	-2.69462e-07
3612.53	-5.68416e-07
3621.21	-5.66263e-07
3629.89	-5.18249e-07
3638.57	1.5019e-07
3647.25	-2.90836e-07
3655.92	9.68452e-08
3664.6	2.45888e-07
3673.28	-4.94935e-08
3681.96	2.4963e-07
3690.64	1.33715e-07
3699.31	1.67538e-07
3707.99	1.00977e-07
3716.67	1.99122e-07
3725.35	-9.64441e-08
3734.03	-1.17667e-07
3742.71	2.12716e-07
3751.38	2.75509e-07
3760.06	5.35714e-07
3768.74	7.50539e-07
3777.42	3.05472e-07
3786.1	3.11318e-07
3794.77	1.73945e-07
3803.45	2.10332e-07
3812.13	4.78213e-07
3820.81	-4.83766e-07
3829.49	-1.86666e-07
3838.17	-9.49855e-07
3846.84	-5.1735e-07
3855.52	-6.12469e-08
3864.2	-4.10904e-07
3872.88	-3.4545e-07
3881.56	-2.27438e-07
3890.23	-5.17864e-08
3898.91	1.72689e-07
3907.59	3.47066e-07
3916.27	-2.6633e-07
3924.95	-4.41468e-07
3933.63	1.68231e-07
3942.3	1.01471e-07
3950.98	4.37114e-07
3959.66	1.14287e-06
3968.34	-7.26737e-08
