Infrared Spectrum: 1,1,2-Trichloroethane
Formula: Cl C H2 C H Cl2
CAS: 79-00-5
State: gas
Melting point: -36.5 C
Boiling point: 113.77 C
Class: IUPAC A
Instrument: IFS66V (Bruker)
Instrument parameters: KBr Beam Splitter; MCT Detector; Multipass cell
Sampling: 1 L/min Flow
Resolution: 1.9290
Temperature: 23 C
Pressure: 101.3 Pa
Origin: NIST, Analytical Chemistry Division, 301-975-3108
cm-1	(micromol/mol)-1m-1 (base 10)
575.652	-1.43539e-06
584.33	-3.38573e-07
593.008	-6.50425e-07
601.687	-9.09415e-07
610.365	-3.60268e-07
619.043	-5.04538e-07
627.721	-1.69433e-07
636.399	1.57925e-06
645.077	5.61207e-06
653.756	1.52565e-05
662.434	6.47321e-05
671.112	0.000159826
679.79	0.000191641
688.468	6.04774e-05
697.147	1.33319e-05
705.825	1.83345e-05
714.503	3.00833e-05
723.181	8.31056e-05
731.859	0.000431563
740.537	0.000845501
749.216	0.00068328
757.894	4.84078e-05
766.572	2.7697e-05
775.25	4.61591e-05
783.928	9.44964e-05
792.607	7.73598e-05
801.285	5.2096e-05
809.963	7.52755e-06
818.641	1.41231e-06
827.319	2.19317e-06
835.997	2.24807e-06
844.676	2.42529e-06
853.354	1.96939e-06
862.032	1.05015e-06
870.71	1.07111e-06
879.388	1.47143e-06
888.066	2.60137e-06
896.745	4.28455e-06
905.423	6.92947e-06
914.101	1.61362e-05
922.779	5.17043e-05
931.457	0.000142972
940.136	0.000159898
948.814	7.12371e-05
957.492	1.70805e-05
966.17	5.68237e-06
974.848	3.86336e-06
983.526	2.00718e-06
992.205	2.27407e-06
1000.88	2.71174e-06
1009.56	2.42787e-06
1018.24	1.71051e-06
1026.92	2.93293e-06
1035.6	7.3484e-06
1044.27	1.45574e-05
1052.95	1.74148e-05
1061.63	1.38169e-05
1070.31	7.45775e-06
1078.99	2.84051e-06
1087.66	7.83246e-07
1096.34	5.49036e-07
1105.02	1.33722e-07
1113.7	2.42618e-07
1122.38	5.67105e-07
1131.06	7.02917e-07
1139.73	1.63868e-06
1148.41	7.8931e-06
1157.09	2.02493e-05
1165.77	2.02537e-05
1174.45	6.55178e-06
1183.12	3.39178e-06
1191.8	1.05743e-05
1200.48	7.20745e-05
1209.16	0.000125711
1217.84	8.10021e-05
1226.52	1.2144e-05
1235.19	1.08191e-05
1243.87	1.45513e-05
1252.55	3.75178e-05
1261.23	9.47828e-05
1269.91	8.47432e-05
1278.58	2.41633e-05
1287.26	4.43808e-06
1295.94	1.23961e-05
1304.62	3.61496e-05
1313.3	3.68597e-05
1321.98	1.03584e-05
1330.65	5.00729e-06
1339.33	4.24271e-06
1348.01	4.25787e-06
1356.69	2.91181e-06
1365.37	1.11484e-06
1374.04	6.01101e-07
1382.72	7.43042e-07
1391.4	6.75114e-07
1400.08	5.69122e-07
1408.76	1.29475e-06
1417.44	3.94348e-06
1426.11	2.05092e-05
1434.79	4.45267e-05
1443.47	4.76488e-05
1452.15	1.42616e-05
1460.83	2.04962e-06
1469.5	1.07114e-06
1478.18	9.92315e-07
1486.86	8.47256e-07
1495.54	1.11815e-07
1504.22	-2.97511e-07
1512.9	-1.33351e-07
1521.57	-5.6687e-07
1530.25	-1.72252e-07
1538.93	-9.06938e-07
1547.61	9.69125e-08
1556.29	-4.02859e-08
1564.96	-1.07038e-08
1573.64	-1.1459e-07
1582.32	-1.56799e-07
1591	-2.39859e-07
1599.68	1.32404e-08
1608.36	2.55336e-07
1617.03	-3.03591e-07
1625.71	-1.22618e-07
1634.39	-5.70177e-07
1643.07	-1.88353e-07
1651.75	-9.58787e-07
1660.42	-1.91438e-07
1669.1	-5.46435e-07
1677.78	-2.3293e-07
1686.46	-2.50807e-07
1695.14	-7.67228e-07
1703.82	-2.2638e-07
1712.49	-1.24867e-07
1721.17	-3.65351e-08
1729.85	-1.19572e-07
1738.53	-2.99784e-07
1747.21	-3.90894e-07
1755.88	-4.75166e-07
1764.56	-1.90162e-07
1773.24	-5.25381e-07
1781.92	-2.32102e-08
1790.6	-1.12713e-08
1799.28	1.54673e-07
1807.95	1.19288e-07
1816.63	9.19312e-08
1825.31	5.78357e-07
1833.99	1.7829e-07
1842.67	-3.07547e-07
1851.34	-3.34441e-07
1860.02	-3.52303e-07
1868.7	-4.23811e-07
1877.38	-3.08627e-07
1886.06	-3.52428e-07
1894.74	-3.80319e-07
1903.41	-3.65633e-07
1912.09	-3.42407e-07
1920.77	-2.94577e-07
1929.45	-1.95988e-07
1938.13	-5.68158e-08
1946.8	-5.3026e-08
1955.48	-2.21774e-07
1964.16	-2.99935e-07
1972.84	1.13768e-08
1981.52	3.41724e-07
1990.2	3.88814e-07
1998.87	4.20612e-08
2007.55	1.82189e-08
2016.23	-6.45865e-08
2024.91	-7.461e-08
2033.59	-1.06874e-07
2042.26	3.62696e-08
2050.94	1.78672e-07
2059.62	-2.64098e-08
2068.3	-1.47273e-07
2076.98	-1.11442e-07
2085.66	2.36386e-08
2094.33	3.02002e-07
2103.01	3.64734e-07
2111.69	3.30418e-07
2120.37	-1.11684e-07
2129.05	-4.63885e-08
2137.72	-7.66455e-08
2146.4	-1.72724e-07
2155.08	-3.63069e-07
2163.76	-2.16872e-07
2172.44	-3.38829e-07
2181.12	-1.29157e-08
2189.79	4.37747e-08
2198.47	4.75309e-07
2207.15	4.29452e-07
2215.83	7.58815e-08
2224.51	-6.09467e-08
2233.18	-8.75157e-08
2241.86	-3.43905e-08
2250.54	6.20481e-08
2259.22	3.72745e-08
2267.9	2.91073e-08
2276.58	-4.49679e-08
2285.25	-1.77903e-07
2293.93	-2.03367e-07
2302.61	-1.606e-07
2311.29	-4.89938e-07
2319.97	-9.8607e-07
2328.64	-1.81034e-06
2337.32	-2.26161e-06
2346	-7.07669e-07
2354.68	-5.93406e-07
2363.36	-5.71774e-07
2372.04	4.84912e-07
2380.71	5.38695e-07
2389.39	4.98511e-07
2398.07	9.6562e-07
2406.75	1.87867e-06
2415.43	9.23051e-07
2424.1	3.35487e-07
2432.78	6.75087e-08
2441.46	3.93811e-07
2450.14	1.15926e-06
2458.82	2.27889e-06
2467.5	1.95202e-06
2476.17	1.19265e-06
2484.85	8.56763e-07
2493.53	7.09616e-07
2502.21	7.60618e-07
2510.89	1.21417e-06
2519.56	1.14942e-06
2528.24	5.53453e-07
2536.92	-1.63868e-07
2545.6	-1.91556e-07
2554.28	-8.77367e-08
2562.96	4.01508e-07
2571.63	5.28925e-07
2580.31	3.06777e-07
2588.99	2.9489e-07
2597.67	4.65551e-07
2606.35	2.17868e-07
2615.02	1.68538e-07
2623.7	-1.26899e-07
2632.38	-8.03716e-08
2641.06	1.0402e-07
2649.74	1.38867e-07
2658.42	-8.85052e-08
2667.09	-2.50983e-08
2675.77	8.88417e-08
2684.45	-1.0119e-08
2693.13	7.32637e-07
2701.81	8.41215e-07
2710.48	4.14405e-07
2719.16	4.69015e-08
2727.84	1.71019e-07
2736.52	6.3952e-07
2745.2	6.39581e-07
2753.88	3.15436e-07
2762.55	-5.4503e-08
2771.23	-1.27335e-07
2779.91	1.05298e-07
2788.59	3.12082e-08
2797.27	1.48247e-10
2805.94	4.37483e-08
2814.62	1.02786e-07
2823.3	1.39038e-07
2831.98	3.5239e-07
2840.66	7.21715e-07
2849.34	4.00528e-06
2858.01	7.12811e-06
2866.69	4.06858e-06
2875.37	7.46976e-07
2884.05	1.08066e-06
2892.73	1.039e-06
2901.4	1.25131e-06
2910.08	1.21054e-06
2918.76	1.43094e-06
2927.44	1.84501e-06
2936.12	1.91447e-06
2944.8	2.2552e-06
2953.47	4.44777e-06
2962.15	1.58459e-05
2970.83	4.3305e-05
2979.51	4.78128e-05
2988.19	1.11749e-05
2996.86	7.01558e-06
3005.54	9.58249e-06
3014.22	9.0716e-06
3022.9	5.06735e-06
3031.58	4.9752e-06
3040.26	1.1269e-06
3048.93	5.07625e-07
3057.61	2.02109e-07
3066.29	1.3057e-07
3074.97	2.75367e-07
3083.65	4.18205e-07
3092.32	1.00078e-07
3101	-3.24288e-08
3109.68	1.12956e-07
3118.36	3.74573e-08
3127.04	-5.28868e-09
3135.72	1.06871e-07
3144.39	1.65142e-07
3153.07	3.04696e-07
3161.75	6.61663e-08
3170.43	1.0121e-07
3179.11	8.90145e-08
3187.78	3.56666e-08
3196.46	1.60128e-07
3205.14	1.26882e-07
3213.82	5.78881e-08
3222.5	-1.86509e-08
3231.18	-6.72786e-08
3239.85	-5.69968e-08
3248.53	2.22598e-08
3257.21	1.18652e-08
3265.89	6.43928e-08
3274.57	-4.95308e-08
3283.24	-1.22357e-07
3291.92	3.39149e-09
3300.6	9.737e-08
3309.28	7.45163e-08
3317.96	-5.48832e-08
3326.64	3.99885e-08
3335.31	1.55315e-07
3343.99	3.08708e-08
3352.67	1.68213e-07
3361.35	9.59376e-08
3370.03	1.40016e-07
3378.7	-5.71123e-08
3387.38	1.33413e-07
3396.06	2.51322e-07
3404.74	3.85844e-07
3413.42	2.65105e-07
3422.1	5.34726e-08
3430.77	-6.37352e-08
3439.45	-9.28798e-08
3448.13	-9.38457e-08
3456.81	-6.24774e-08
3465.49	-1.57641e-07
3474.16	-2.43048e-07
3482.84	-1.60173e-07
3491.52	-1.23109e-07
3500.2	-1.66593e-07
3508.88	-1.50495e-07
3517.56	7.58333e-09
3526.23	-2.05571e-07
3534.91	-2.35194e-09
3543.59	-2.33813e-07
3552.27	-9.57093e-08
3560.95	-8.68963e-08
3569.62	-2.55596e-07
3578.3	-8.55348e-08
3586.98	-3.01386e-07
3595.66	-2.35996e-07
3604.34	-2.38043e-07
3613.02	-2.03924e-07
3621.69	-2.49954e-07
3630.37	-2.40097e-07
3639.05	3.11591e-08
3647.73	-1.50383e-07
3656.41	7.07028e-08
3665.08	2.32035e-07
3673.76	-9.85196e-08
3682.44	1.53259e-07
3691.12	-9.06671e-08
3699.8	3.22362e-07
3708.48	7.09375e-08
3717.15	4.4726e-08
3725.83	-2.0996e-07
3734.51	-3.91971e-07
3743.19	-2.91939e-07
3751.87	-2.48418e-07
3760.54	6.15677e-07
3769.22	6.73319e-07
3777.9	3.47548e-07
3786.58	2.74721e-07
3795.26	2.29327e-07
3803.94	4.75408e-07
3812.61	5.20773e-07
3821.29	-5.1448e-08
3829.97	-5.18582e-08
3838.65	-7.01037e-07
3847.33	-3.12796e-07
3856	-3.71669e-07
3864.68	-3.97316e-07
3873.36	-3.75659e-07
3882.04	-3.86931e-07
3890.72	-1.7115e-07
3899.4	1.11726e-07
3908.07	2.91839e-07
3916.75	-9.49953e-08
3925.43	-1.09136e-07
3934.11	2.57972e-07
3942.79	3.08414e-07
3951.46	5.7367e-07
3960.14	7.98697e-07
3968.82	2.69667e-07
