Infrared Spectrum: 1,1,2-Trichloroethane
Formula: Cl C H2 C H Cl2
CAS: 79-00-5
State: gas
Melting point: -36.5 C
Boiling point: 113.77 C
Class: IUPAC A
Instrument: IFS66V (Bruker)
Instrument parameters: KBr Beam Splitter; MCT Detector; Multipass cell
Sampling: 1 L/min Flow
Resolution: 0.1250
Temperature: 23 C
Pressure: 101.3 Pa
Origin: NIST, Analytical Chemistry Division, 301-975-3108
cm-1	(micromol/mol)-1m-1 (base 10)
575.05	-1.03535e-06
583.608	-8.72662e-07
592.165	2.62385e-06
600.723	-6.23786e-07
609.281	-5.35988e-07
617.838	-1.34192e-06
626.396	-4.47884e-07
634.954	1.80848e-06
643.511	3.26691e-06
652.069	1.2366e-05
660.626	4.91986e-05
669.184	0.000150802
677.742	0.000160156
686.299	8.31584e-05
694.857	1.91932e-05
703.415	1.37166e-05
711.972	2.7213e-05
720.53	5.36898e-05
729.088	0.000256562
737.645	0.000797106
746.203	0.000834751
754.761	0.000148835
763.318	2.61944e-05
771.876	3.68478e-05
780.434	7.59824e-05
788.991	0.000102816
797.549	9.8931e-05
806.106	1.97858e-05
814.664	2.16571e-06
823.222	1.31901e-06
831.779	1.30886e-06
840.337	2.57415e-06
848.895	2.71217e-06
857.452	1.02951e-06
866.01	2.00897e-07
874.568	5.31352e-07
883.125	6.65879e-07
891.683	3.16925e-06
900.241	5.32194e-06
908.798	8.03655e-06
917.356	2.41876e-05
925.914	7.8247e-05
934.471	0.000139034
943.029	0.000150857
951.586	4.84646e-05
960.144	1.04446e-05
968.702	5.28402e-06
977.259	3.8068e-06
985.817	1.55572e-06
994.375	2.13002e-06
1002.93	2.64761e-06
1011.49	2.33607e-06
1020.05	1.8665e-06
1028.61	3.03509e-06
1037.16	8.30151e-06
1045.72	1.60754e-05
1054.28	1.6782e-05
1062.84	1.23074e-05
1071.39	7.09579e-06
1079.95	2.00356e-06
1088.51	1.11101e-06
1097.07	2.96747e-07
1105.62	-1.55042e-07
1114.18	4.82041e-07
1122.74	2.0915e-07
1131.3	7.57633e-07
1139.85	1.76959e-06
1148.41	7.35145e-06
1156.97	1.8412e-05
1165.53	2.04614e-05
1174.09	6.85151e-06
1182.64	3.26663e-06
1191.2	9.39606e-06
1199.76	6.04045e-05
1208.32	8.67438e-05
1216.87	0.000101797
1225.43	1.37795e-05
1233.99	9.57272e-06
1242.55	1.54593e-05
1251.1	2.81245e-05
1259.66	9.57516e-05
1268.22	9.20073e-05
1276.78	3.40881e-05
1285.33	6.07172e-06
1293.89	8.01048e-06
1302.45	3.1943e-05
1311.01	3.47057e-05
1319.57	1.73824e-05
1328.12	5.16583e-06
1336.68	4.07767e-06
1345.24	4.20953e-06
1353.8	3.67134e-06
1362.35	1.77443e-06
1370.91	7.64014e-07
1379.47	6.67081e-07
1388.03	1.93403e-07
1396.58	8.73202e-07
1405.14	2.38352e-07
1413.7	2.12257e-06
1422.26	1.11351e-05
1430.81	4.29443e-05
1439.37	3.44108e-05
1447.93	2.84699e-05
1456.49	3.29063e-06
1465.05	4.61108e-07
1473.6	-3.20145e-07
1482.16	9.28363e-07
1490.72	4.51907e-08
1499.28	1.67364e-07
1507.83	-3.37253e-07
1516.39	-2.65466e-07
1524.95	7.05109e-08
1533.51	-1.34686e-08
1542.06	-1.80282e-06
1550.62	2.68854e-08
1559.18	7.24181e-08
1567.74	-3.96174e-08
1576.29	-2.7927e-06
1584.85	-7.06365e-08
1593.41	1.13175e-07
1601.97	1.40494e-07
1610.53	2.20152e-07
1619.08	-1.59453e-07
1627.64	-3.52683e-07
1636.2	-1.07908e-07
1644.76	1.39239e-07
1653.31	-4.941e-06
1661.87	-3.44835e-07
1670.43	-8.90163e-08
1678.99	-2.08376e-07
1687.54	8.99595e-08
1696.1	-1.9018e-06
1704.66	-2.07095e-07
1713.22	-3.38965e-07
1721.77	-9.79985e-08
1730.33	-1.82893e-07
1738.89	-4.09655e-07
1747.45	-4.00553e-07
1756.01	-6.78251e-07
1764.56	-1.56448e-07
1773.12	2.15258e-08
1781.68	-3.41968e-09
1790.24	1.63381e-07
1798.79	3.03679e-08
1807.35	3.69542e-07
1815.91	1.7501e-07
1824.47	3.81587e-07
1833.02	2.2933e-07
1841.58	-9.73163e-08
1850.14	-3.17867e-07
1858.7	-4.78776e-07
1867.25	-4.50612e-07
1875.81	-2.34889e-07
1884.37	-2.39642e-07
1892.93	-2.29343e-07
1901.49	-4.2677e-07
1910.04	-3.09684e-07
1918.6	-4.72088e-07
1927.16	-2.01675e-07
1935.72	-1.08471e-07
1944.27	-3.72517e-07
1952.83	2.19023e-08
1961.39	-3.85113e-07
1969.95	-3.17146e-07
1978.5	3.89445e-07
1987.06	8.67717e-08
1995.62	3.52836e-07
2004.18	2.91704e-07
2012.73	2.68685e-07
2021.29	1.45591e-08
2029.85	-3.91178e-07
2038.41	-9.22332e-08
2046.97	6.18017e-07
2055.52	-2.29592e-08
2064.08	8.29246e-08
2072.64	2.48827e-08
2081.2	2.47436e-08
2089.75	5.44026e-07
2098.31	1.0718e-06
2106.87	7.19397e-07
2115.43	-2.82371e-07
2123.98	-6.10385e-07
2132.54	-3.21397e-07
2141.1	-4.14806e-07
2149.66	1.55601e-07
2158.21	-1.4901e-06
2166.77	1.44497e-07
2175.33	-2.15758e-07
2183.89	-5.39064e-08
2192.45	-2.32489e-07
2201	2.29507e-07
2209.56	-2.38156e-07
2218.12	2.94729e-07
2226.68	-3.48846e-07
2235.23	2.56114e-07
2243.79	2.66652e-07
2252.35	2.42779e-08
2260.91	-9.21532e-08
2269.46	9.5179e-08
2278.02	4.51816e-07
2286.58	-1.54372e-07
2295.14	-1.56079e-07
2303.69	-3.15574e-07
2312.25	-3.42141e-07
2320.81	-8.96831e-07
2329.37	-5.77585e-07
2337.93	-8.97771e-07
2346.48	3.43567e-07
2355.04	1.35565e-06
2363.6	1.81793e-06
2372.16	1.63447e-06
2380.71	1.24987e-07
2389.27	4.18253e-07
2397.83	7.56885e-07
2406.39	2.41278e-06
2414.94	5.5942e-07
2423.5	3.54936e-07
2432.06	3.4525e-07
2440.62	1.02534e-06
2449.17	9.83392e-07
2457.73	2.34256e-06
2466.29	2.66006e-06
2474.85	1.27957e-06
2483.41	1.05132e-06
2491.96	5.99232e-07
2500.52	2.12767e-07
2509.08	1.06608e-06
2517.64	1.28264e-06
2526.19	9.54703e-07
2534.75	3.08735e-07
2543.31	-3.95314e-07
2551.87	5.36335e-08
2560.42	1.08229e-10
2568.98	5.06099e-07
2577.54	2.74625e-07
2586.1	3.9419e-07
2594.65	4.74889e-07
2603.21	5.48225e-07
2611.77	-2.11278e-07
2620.33	-6.46738e-08
2628.89	-3.94509e-07
2637.44	-2.85956e-07
2646	-7.48665e-08
2654.56	-1.19753e-08
2663.12	4.73244e-08
2671.67	-4.1018e-08
2680.23	-3.52236e-08
2688.79	3.44556e-07
2697.35	7.53135e-07
2705.9	9.42152e-07
2714.46	-1.84656e-07
2723.02	4.73217e-07
2731.58	2.8477e-08
2740.13	7.75036e-07
2748.69	6.73995e-07
2757.25	-4.68335e-07
2765.81	-3.7139e-08
2774.37	6.82254e-08
2782.92	2.33285e-07
2791.48	-2.79277e-08
2800.04	-1.30412e-08
2808.6	6.69347e-07
2817.15	6.5446e-08
2825.71	-4.96459e-07
2834.27	4.07764e-07
2842.83	1.5267e-06
2851.38	5.36647e-06
2859.94	4.07724e-06
2868.5	2.82498e-06
2877.06	1.84793e-06
2885.61	1.12449e-06
2894.17	9.83275e-07
2902.73	1.1116e-06
2911.29	1.29537e-06
2919.85	1.15765e-06
2928.4	1.90129e-06
2936.96	2.79868e-06
2945.52	2.15375e-06
2954.08	4.54494e-06
2962.63	1.74827e-05
2971.19	4.25493e-05
2979.75	4.88917e-05
2988.31	1.07225e-05
2996.86	7.28094e-06
3005.42	6.4811e-06
3013.98	9.19776e-06
3022.54	5.48339e-06
3031.09	5.08316e-06
3039.65	1.19835e-06
3048.21	8.11965e-07
3056.77	2.28669e-07
3065.33	4.57415e-07
3073.88	-1.88305e-07
3082.44	1.88517e-07
3091	3.77243e-07
3099.56	-5.01321e-07
3108.11	-5.57432e-07
3116.67	7.06837e-07
3125.23	-3.25261e-08
3133.79	-1.75584e-07
3142.34	7.09924e-07
3150.9	7.40665e-07
3159.46	4.28078e-07
3168.02	-5.03535e-07
3176.57	-1.64725e-07
3185.13	5.09014e-08
3193.69	6.89648e-08
3202.25	1.39104e-07
3210.81	6.85574e-08
3219.36	-2.73475e-08
3227.92	5.4806e-07
3236.48	-4.73711e-07
3245.04	6.83311e-07
3253.59	2.27182e-07
3262.15	-3.15141e-07
3270.71	-1.06219e-08
3279.27	3.65806e-08
3287.82	-6.85384e-07
3296.38	6.18339e-07
3304.94	-7.85845e-08
3313.5	-6.30106e-07
3322.05	-1.44838e-07
3330.61	-6.35258e-07
3339.17	2.58377e-07
3347.73	2.79433e-07
3356.29	4.72805e-07
3364.84	-3.2653e-07
3373.4	-7.36392e-07
3381.96	1.33686e-06
3390.52	2.17106e-07
3399.07	3.72379e-07
3407.63	3.87137e-07
3416.19	-8.4596e-07
3424.75	-4.91993e-07
3433.3	4.87056e-07
3441.86	-4.23191e-07
3450.42	-1.87237e-08
3458.98	-7.3009e-07
3467.53	1.86664e-07
3476.09	6.3848e-07
3484.65	-4.53674e-07
3493.21	-9.91996e-07
3501.77	-5.17235e-07
3510.32	1.43959e-07
3518.88	7.91754e-07
3527.44	-8.0024e-07
3536	-4.25496e-08
3544.55	3.5222e-07
3553.11	-1.63026e-08
3561.67	-2.43389e-07
3570.23	-4.31449e-07
3578.78	8.68809e-08
3587.34	-1.53901e-07
3595.9	5.11891e-07
3604.46	-9.73363e-08
3613.01	3.60457e-07
3621.57	-3.63016e-07
3630.13	3.78636e-07
3638.69	5.82185e-07
3647.25	-4.55327e-07
3655.8	4.75163e-08
3664.36	2.58476e-07
3672.92	-2.84561e-07
3681.48	-3.54976e-07
3690.03	3.67692e-07
3698.59	5.7979e-07
3707.15	9.62295e-08
3715.71	-4.41721e-07
3724.26	4.48653e-07
3732.82	-2.62924e-07
3741.38	5.4845e-07
3749.94	4.61854e-07
3758.49	8.80005e-07
3767.05	4.18421e-07
3775.61	5.84483e-07
3784.17	1.70797e-07
3792.73	6.30959e-07
3801.28	-1.43144e-06
3809.84	1.11043e-06
3818.4	9.71464e-07
3826.96	5.40692e-07
3835.51	5.20658e-07
3844.07	-3.91188e-07
3852.63	-4.29136e-07
3861.19	-5.24532e-07
3869.74	-4.6745e-07
3878.3	-3.17981e-07
3886.86	-2.37587e-07
3895.42	3.91989e-07
3903.97	2.76036e-07
3912.53	-7.31885e-07
3921.09	-3.79439e-07
3929.65	-5.1694e-07
3938.21	3.60194e-07
3946.76	8.288e-08
3955.32	5.01176e-07
3963.88	1.90217e-07
3972.44	1.36893e-07
