Infrared Spectrum: 1,1,2-Trichloroethane
Formula: Cl C H2 C H Cl2
CAS: 79-00-5
State: gas
Melting point: -36.5 C
Boiling point: 113.77 C
Class: IUPAC A
Instrument: IFS66V (Bruker)
Instrument parameters: KBr Beam Splitter; MCT Detector; Multipass cell
Sampling: 1 L/min Flow
Resolution: 0.4820
Temperature: 23 C
Pressure: 101.3 Pa
Origin: NIST, Analytical Chemistry Division, 301-975-3108
cm-1	(micromol/mol)-1m-1 (base 10)
575.17	3.25671e-06
583.848	-1.53296e-06
592.526	-1.98987e-06
601.205	-1.80775e-06
609.883	1.3079e-06
618.561	4.37705e-07
627.239	-9.77752e-07
635.917	6.92279e-07
644.595	6.41313e-06
653.274	1.47368e-05
661.952	5.97264e-05
670.63	0.000161819
679.308	0.000192802
687.986	6.54721e-05
696.665	1.3578e-05
705.343	1.73994e-05
714.021	2.83261e-05
722.699	7.55107e-05
731.377	0.000395889
740.055	0.000843061
748.734	0.00071854
757.412	5.14129e-05
766.09	2.69306e-05
774.768	4.34254e-05
783.446	9.11387e-05
792.124	7.30523e-05
800.803	5.70923e-05
809.481	7.63779e-06
818.159	1.61567e-06
826.837	2.65715e-06
835.515	2.32581e-06
844.194	2.71861e-06
852.872	1.96661e-06
861.55	7.34947e-07
870.228	1.36558e-06
878.906	1.53832e-06
887.584	3.05013e-06
896.263	4.18798e-06
904.941	6.89824e-06
913.619	1.52336e-05
922.297	4.81423e-05
930.975	0.000139518
939.654	0.000155027
948.332	7.48657e-05
957.01	1.85469e-05
965.688	5.2935e-06
974.366	4.16602e-06
983.044	1.4431e-06
991.723	2.61565e-06
1000.4	2.69656e-06
1009.08	2.1176e-06
1017.76	1.36277e-06
1026.44	2.60433e-06
1035.11	6.88465e-06
1043.79	1.39707e-05
1052.47	1.78255e-05
1061.15	1.48112e-05
1069.83	8.49488e-06
1078.5	2.93483e-06
1087.18	8.54389e-07
1095.86	7.47362e-07
1104.54	4.74847e-07
1113.22	4.02452e-07
1121.9	5.04707e-07
1130.57	8.07489e-07
1139.25	1.60218e-06
1147.93	7.41113e-06
1156.61	1.84527e-05
1165.29	1.99136e-05
1173.96	7.1653e-06
1182.64	3.4781e-06
1191.32	9.34608e-06
1200	6.45499e-05
1208.68	0.000113181
1217.36	9.08759e-05
1226.03	1.25533e-05
1234.71	9.96156e-06
1243.39	1.46574e-05
1252.07	3.38767e-05
1260.75	9.75059e-05
1269.42	8.75221e-05
1278.1	2.62255e-05
1286.78	4.65736e-06
1295.46	1.11092e-05
1304.14	3.46089e-05
1312.82	3.62336e-05
1321.49	1.11169e-05
1330.17	5.24841e-06
1338.85	4.53614e-06
1347.53	4.68341e-06
1356.21	3.37863e-06
1364.88	1.55559e-06
1373.56	1.06828e-06
1382.24	5.65445e-07
1390.92	5.35842e-07
1399.6	4.42088e-07
1408.28	1.46056e-06
1416.95	3.44257e-06
1425.63	1.90605e-05
1434.31	4.55129e-05
1442.99	5.00333e-05
1451.67	1.58682e-05
1460.34	2.03695e-06
1469.02	1.44943e-06
1477.7	1.19415e-06
1486.38	9.95411e-07
1495.06	2.72234e-07
1503.74	5.40701e-08
1512.41	-5.92063e-07
1521.09	-1.48279e-06
1529.77	1.76761e-07
1538.45	-2.76589e-07
1547.13	1.52762e-07
1555.8	1.6862e-07
1564.48	3.70775e-07
1573.16	-3.45186e-07
1581.84	4.96291e-08
1590.52	-2.17867e-07
1599.2	-2.63477e-07
1607.87	2.14211e-07
1616.55	-1.83737e-06
1625.23	-3.00523e-08
1633.91	-3.61866e-07
1642.59	-2.10904e-07
1651.26	-1.48359e-07
1659.94	-1.52432e-07
1668.62	-7.25418e-08
1677.3	-6.33196e-08
1685.98	-2.51609e-07
1694.66	-2.32501e-07
1703.33	-1.79839e-07
1712.01	-2.90791e-08
1720.69	-9.04961e-08
1729.37	1.05527e-07
1738.05	-3.26225e-08
1746.72	-1.81711e-07
1755.4	-6.71166e-07
1764.08	-1.92138e-07
1772.76	-2.41171e-06
1781.44	1.91234e-07
1790.12	-6.24483e-08
1798.79	2.57614e-07
1807.47	2.16725e-07
1816.15	3.63059e-08
1824.83	3.40041e-07
1833.51	1.74945e-07
1842.18	-3.04458e-07
1850.86	-3.61109e-07
1859.54	-3.077e-07
1868.22	-3.63972e-07
1876.9	-3.95216e-07
1885.58	-3.4293e-07
1894.25	-2.65227e-07
1902.93	-2.38188e-07
1911.61	7.59006e-08
1920.29	-1.26495e-07
1928.97	-3.22312e-07
1937.64	8.24989e-08
1946.32	-9.75874e-08
1955	-1.00069e-07
1963.68	-4.11809e-07
1972.36	-2.95566e-08
1981.04	4.61164e-07
1989.71	5.08675e-07
1998.39	-3.06449e-07
2007.07	-5.09733e-08
2015.75	-2.21479e-07
2024.43	4.95399e-09
2033.1	-3.78086e-07
2041.78	2.07175e-07
2050.46	1.97545e-07
2059.14	2.71404e-07
2067.82	-2.13109e-07
2076.5	2.71288e-07
2085.17	3.61138e-07
2093.85	6.10587e-07
2102.53	7.07473e-07
2111.21	7.98967e-07
2119.89	-5.18695e-07
2128.56	1.32327e-07
2137.24	-2.05799e-08
2145.92	-6.91067e-08
2154.6	-1.58781e-06
2163.28	1.71541e-07
2171.96	-1.30605e-07
2180.63	1.35545e-07
2189.31	2.15648e-07
2197.99	7.26437e-07
2206.67	7.18121e-07
2215.35	-8.84261e-08
2224.02	-4.43441e-07
2232.7	3.75792e-08
2241.38	-6.69203e-08
2250.06	9.08826e-08
2258.74	3.70262e-07
2267.42	1.14924e-07
2276.09	-1.43084e-07
2284.77	-3.26833e-07
2293.45	-2.90641e-07
2302.13	-5.53989e-08
2310.81	-4.9204e-07
2319.48	-2.61909e-07
2328.16	-5.22307e-07
2336.84	7.98541e-08
2345.52	-5.02955e-07
2354.2	-6.93727e-07
2362.88	-6.30979e-06
2371.55	-1.10927e-06
2380.23	1.01819e-06
2388.91	6.82223e-07
2397.59	1.0498e-06
2406.27	2.221e-06
2414.94	7.95113e-07
2423.62	5.93542e-07
2432.3	-3.65199e-07
2440.98	1.2416e-07
2449.66	1.21469e-06
2458.34	2.16925e-06
2467.01	2.2555e-06
2475.69	1.0764e-06
2484.37	8.93946e-07
2493.05	1.08415e-06
2501.73	6.97973e-07
2510.4	1.25754e-06
2519.08	1.31717e-06
2527.76	9.53082e-07
2536.44	8.3594e-08
2545.12	-4.90902e-07
2553.8	-2.39149e-07
2562.47	7.86854e-07
2571.15	5.28081e-07
2579.83	6.30877e-07
2588.51	4.05046e-07
2597.19	3.37576e-07
2605.86	2.10362e-07
2614.54	2.36786e-08
2623.22	-2.40005e-08
2631.9	-5.0856e-08
2640.58	2.62833e-07
2649.26	3.61332e-07
2657.93	-3.4647e-08
2666.61	7.87218e-08
2675.29	-7.23827e-08
2683.97	2.06847e-07
2692.65	6.80302e-07
2701.32	5.64476e-07
2710	3.89759e-07
2718.68	1.3596e-08
2727.36	9.99493e-08
2736.04	4.63062e-07
2744.71	6.48306e-07
2753.39	2.14075e-07
2762.07	-4.56964e-07
2770.75	1.51752e-07
2779.43	3.00328e-07
2788.11	1.79391e-07
2796.78	5.26922e-08
2805.46	-3.52793e-07
2814.14	-1.65091e-07
2822.82	2.80964e-07
2831.5	3.31842e-07
2840.17	5.54832e-07
2848.85	3.27319e-06
2857.53	7.9115e-06
2866.21	4.34122e-06
2874.89	2.54934e-07
2883.57	1.30212e-06
2892.24	9.63465e-07
2900.92	1.31184e-06
2909.6	1.25562e-06
2918.28	1.76873e-06
2926.96	1.76224e-06
2935.63	2.17026e-06
2944.31	1.88172e-06
2952.99	4.12837e-06
2961.67	1.4557e-05
2970.35	4.58337e-05
2979.03	4.86718e-05
2987.7	1.21978e-05
2996.38	6.33376e-06
3005.06	6.42358e-06
3013.74	9.59113e-06
3022.42	5.71012e-06
3031.09	5.32441e-06
3039.77	1.55332e-06
3048.45	3.48155e-07
3057.13	2.13242e-07
3065.81	2.48467e-07
3074.49	7.01589e-07
3083.16	4.58667e-07
3091.84	-7.12649e-08
3100.52	1.14589e-07
3109.2	5.85518e-07
3117.88	-8.35812e-08
3126.55	-2.67662e-07
3135.23	-7.53885e-08
3143.91	2.23864e-07
3152.59	2.05614e-07
3161.27	2.80179e-07
3169.95	2.83288e-08
3178.62	3.1117e-07
3187.3	4.71291e-07
3195.98	-3.05729e-07
3204.66	-2.72394e-07
3213.34	3.24412e-07
3222.01	-2.36064e-07
3230.69	-2.60742e-07
3239.37	-1.23137e-07
3248.05	-3.52297e-07
3256.73	3.56431e-07
3265.41	-1.96627e-07
3274.08	-5.22072e-07
3282.76	3.03625e-07
3291.44	-6.46747e-08
3300.12	6.62182e-07
3308.8	-3.57823e-07
3317.47	3.60391e-07
3326.15	2.81004e-07
3334.83	-5.45795e-07
3343.51	1.49403e-07
3352.19	5.89772e-07
3360.87	6.76958e-07
3369.54	5.90084e-07
3378.22	-2.21822e-07
3386.9	2.35403e-08
3395.58	7.87323e-07
3404.26	4.19849e-07
3412.93	3.20725e-07
3421.61	-3.53447e-07
3430.29	5.78924e-07
3438.97	-1.95278e-07
3447.65	3.38706e-07
3456.33	-3.80662e-07
3465	-2.79914e-08
3473.68	-5.40218e-07
3482.36	-1.29538e-07
3491.04	-2.43358e-07
3499.72	-7.73179e-07
3508.39	5.7767e-07
3517.07	3.42494e-07
3525.75	-6.97807e-07
3534.43	-1.44318e-07
3543.11	-6.4195e-07
3551.79	-8.04198e-08
3560.46	-2.8799e-08
3569.14	-8.05399e-08
3577.82	-5.15532e-07
3586.5	-9.03817e-07
3595.18	-2.35356e-07
3603.85	-3.71746e-07
3612.53	-6.88037e-07
3621.21	-7.51114e-07
3629.89	-3.08312e-07
3638.57	2.44237e-07
3647.25	-3.76649e-07
3655.92	2.47952e-07
3664.6	4.77857e-07
3673.28	-2.82732e-07
3681.96	3.28999e-07
3690.64	3.65008e-07
3699.31	-5.6161e-08
3707.99	2.00273e-07
3716.67	3.87576e-07
3725.35	-1.94665e-07
3734.03	6.17462e-08
3742.71	3.23799e-07
3751.38	4.10592e-07
3760.06	7.15268e-07
3768.74	6.88283e-07
3777.42	-5.4392e-08
3786.1	3.43248e-07
3794.77	1.88407e-07
3803.45	-6.93195e-08
3812.13	3.14684e-07
3820.81	-9.10921e-07
3829.49	-5.76635e-08
3838.17	-2.52664e-07
3846.84	-5.69531e-07
3855.52	1.25843e-07
3864.2	-4.56255e-07
3872.88	-4.68317e-07
3881.56	3.40286e-08
3890.23	-3.23666e-07
3898.91	3.83772e-07
3907.59	3.66212e-07
3916.27	-3.47566e-07
3924.95	-6.8436e-07
3933.63	2.3421e-07
3942.3	8.66116e-08
3950.98	4.31825e-07
3959.66	1.38905e-06
3968.34	-6.10297e-07
