Infrared Spectrum: 1,1,2-Trichloroethane
Formula: Cl C H2 C H Cl2
CAS: 79-00-5
State: gas
Melting point: -36.5 C
Boiling point: 113.77 C
Class: IUPAC A
Instrument: IFS66V (Bruker)
Instrument parameters: KBr Beam Splitter; MCT Detector; Multipass cell
Sampling: 1 L/min Flow
Resolution: 0.9640
Temperature: 23 C
Pressure: 101.3 Pa
Origin: NIST, Analytical Chemistry Division, 301-975-3108
cm-1	(micromol/mol)-1m-1 (base 10)
575.17	-8.98472e-07
583.848	-5.52777e-07
592.526	-5.78254e-07
601.205	-1.30873e-06
609.883	-3.10873e-08
618.561	-3.71336e-07
627.239	-4.33631e-07
635.917	1.12344e-06
644.595	5.35969e-06
653.274	1.39139e-05
661.952	6.01226e-05
670.63	0.000160459
679.308	0.000191526
687.986	6.45885e-05
696.665	1.39858e-05
705.343	1.75481e-05
714.021	2.8837e-05
722.699	7.55548e-05
731.377	0.000396475
740.055	0.000843188
748.734	0.000712762
757.412	5.26964e-05
766.09	2.69466e-05
774.768	4.34254e-05
783.446	9.10374e-05
792.125	7.44023e-05
800.803	5.70323e-05
809.481	8.39317e-06
818.159	1.35744e-06
826.837	2.43922e-06
835.515	2.03136e-06
844.194	2.47547e-06
852.872	1.93682e-06
861.55	9.56542e-07
870.228	9.50035e-07
878.906	1.49475e-06
887.584	2.50859e-06
896.263	4.22819e-06
904.941	6.93295e-06
913.619	1.50708e-05
922.297	4.81438e-05
930.975	0.000139161
939.654	0.000154193
948.332	7.5064e-05
957.01	1.85242e-05
965.688	5.75424e-06
974.366	3.86524e-06
983.044	1.97284e-06
991.723	2.34037e-06
1000.4	2.72646e-06
1009.08	2.33333e-06
1017.76	1.58674e-06
1026.44	2.82627e-06
1035.11	6.96296e-06
1043.79	1.40634e-05
1052.47	1.76735e-05
1061.15	1.44208e-05
1069.83	7.97222e-06
1078.5	3.03753e-06
1087.18	7.14617e-07
1095.86	6.29674e-07
1104.54	2.32396e-07
1113.22	2.96081e-07
1121.9	6.77684e-07
1130.57	7.44016e-07
1139.25	1.44753e-06
1147.93	7.19883e-06
1156.61	1.90129e-05
1165.29	2.04229e-05
1173.96	7.08319e-06
1182.64	3.21004e-06
1191.32	9.54313e-06
1200	6.43233e-05
1208.68	0.000127145
1217.36	9.10401e-05
1226.03	1.28214e-05
1234.71	1.01375e-05
1243.39	1.46181e-05
1252.07	3.40105e-05
1260.75	9.68393e-05
1269.42	8.76406e-05
1278.1	2.63313e-05
1286.78	4.62056e-06
1295.46	1.10976e-05
1304.14	3.46706e-05
1312.82	3.65552e-05
1321.49	1.115e-05
1330.17	5.08618e-06
1338.85	4.29122e-06
1347.53	4.30311e-06
1356.21	3.41027e-06
1364.88	1.09918e-06
1373.56	5.23181e-07
1382.24	6.97959e-07
1390.92	6.07366e-07
1399.6	4.56207e-07
1408.28	1.29124e-06
1416.95	3.59836e-06
1425.63	1.89483e-05
1434.31	4.62102e-05
1442.99	4.92125e-05
1451.67	1.56738e-05
1460.34	2.14045e-06
1469.02	1.16007e-06
1477.7	1.02205e-06
1486.38	9.13912e-07
1495.06	4.22414e-07
1503.74	-3.34692e-09
1512.41	-2.23396e-07
1521.09	-8.37734e-07
1529.77	-1.29779e-07
1538.45	-7.5624e-07
1547.13	6.29567e-08
1555.8	1.14679e-07
1564.48	-4.32126e-08
1573.16	-1.53224e-07
1581.84	-1.19258e-07
1590.52	-3.04307e-07
1599.2	-2.38796e-08
1607.87	2.56175e-07
1616.55	-8.4313e-07
1625.23	-4.98037e-09
1633.91	-3.47332e-07
1642.59	-2.54898e-07
1651.26	-3.14922e-07
1659.94	-1.83989e-07
1668.62	-4.87197e-07
1677.3	-2.64253e-07
1685.98	-2.08876e-07
1694.66	-2.61963e-07
1703.33	-1.08997e-07
1712.01	-9.07716e-08
1720.69	1.24582e-08
1729.37	-1.03373e-07
1738.05	-1.55115e-07
1746.72	-3.59337e-07
1755.4	-4.45794e-07
1764.08	-1.78622e-07
1772.76	-8.42462e-07
1781.44	-7.42117e-08
1790.12	3.01751e-08
1798.79	1.63929e-07
1807.47	1.16471e-07
1816.15	1.32912e-07
1824.83	3.82419e-07
1833.51	1.85473e-07
1842.18	-2.1168e-07
1850.86	-2.90346e-07
1859.54	-3.17126e-07
1868.22	-4.09512e-07
1876.9	-3.22366e-07
1885.58	-3.49394e-07
1894.25	-3.30044e-07
1902.93	-3.42803e-07
1911.61	-2.94109e-07
1920.29	-2.71278e-07
1928.97	-1.74173e-07
1937.64	-6.06312e-08
1946.32	-7.14886e-08
1955	-2.04016e-07
1963.68	-3.61446e-07
1972.36	2.41051e-08
1981.04	3.58358e-07
1989.71	4.55e-07
1998.39	3.10591e-09
2007.07	2.41015e-08
2015.75	-5.86139e-08
2024.43	-1.89729e-08
2033.1	-8.44571e-08
2041.78	3.81567e-08
2050.46	1.17328e-07
2059.14	4.87414e-08
2067.82	-1.71738e-07
2076.5	4.40739e-09
2085.17	1.29539e-07
2093.85	4.61058e-07
2102.53	4.9069e-07
2111.21	1.79936e-07
2119.89	-3.96023e-07
2128.56	-1.35177e-08
2137.24	-1.76905e-08
2145.92	-8.08737e-08
2154.6	-6.03539e-07
2163.28	-1.13143e-07
2171.96	-1.9194e-07
2180.63	-2.94766e-09
2189.31	2.16313e-08
2197.99	6.00491e-07
2206.67	4.0866e-07
2215.35	2.08137e-08
2224.02	-8.55712e-08
2232.7	-3.66388e-08
2241.38	-8.4699e-08
2250.06	8.87171e-08
2258.74	9.31909e-08
2267.42	6.35652e-08
2276.09	-2.67545e-08
2284.77	-1.84003e-07
2293.45	-2.31018e-07
2302.13	-1.12359e-07
2310.81	-6.70471e-07
2319.48	-1.1097e-06
2328.16	-1.62402e-06
2336.84	-1.50719e-06
2345.52	-8.29642e-07
2354.2	-7.63973e-07
2362.88	-1.03651e-06
2371.55	4.07062e-07
2380.23	5.9611e-07
2388.91	5.31889e-07
2397.59	9.38062e-07
2406.27	2.1787e-06
2414.94	9.62113e-07
2423.62	3.87374e-07
2432.3	6.84819e-08
2440.98	4.02142e-07
2449.66	1.10952e-06
2458.34	2.18895e-06
2467.01	2.06721e-06
2475.69	1.22077e-06
2484.37	8.78637e-07
2493.05	7.48014e-07
2501.73	7.72409e-07
2510.4	1.16625e-06
2519.08	1.10632e-06
2527.76	6.24332e-07
2536.44	-1.14452e-07
2545.12	-2.1e-07
2553.8	-9.71163e-08
2562.47	3.81324e-07
2571.15	5.58853e-07
2579.83	3.6126e-07
2588.51	2.92461e-07
2597.19	3.80906e-07
2605.86	2.10324e-07
2614.54	2.22273e-07
2623.22	-9.2396e-08
2631.9	4.0254e-09
2640.58	1.84129e-07
2649.26	1.5364e-07
2657.93	5.24321e-09
2666.61	2.26181e-08
2675.29	5.44039e-08
2683.97	6.97215e-09
2692.65	7.09888e-07
2701.32	7.46824e-07
2710	3.67883e-07
2718.68	4.21221e-08
2727.36	2.16238e-07
2736.04	5.89943e-07
2744.72	6.33733e-07
2753.39	3.573e-07
2762.07	-1.42247e-07
2770.75	-7.29775e-08
2779.43	1.95576e-07
2788.11	-3.05298e-08
2796.78	-1.67282e-08
2805.46	1.55155e-07
2814.14	4.2666e-08
2822.82	2.53249e-07
2831.5	3.19844e-07
2840.18	6.23182e-07
2848.85	3.6226e-06
2857.53	7.45629e-06
2866.21	4.44392e-06
2874.89	5.48482e-07
2883.57	1.08996e-06
2892.24	1.03582e-06
2900.92	1.29829e-06
2909.6	1.21902e-06
2918.28	1.52075e-06
2926.96	1.84424e-06
2935.63	1.95978e-06
2944.31	2.16542e-06
2952.99	4.32378e-06
2961.67	1.46391e-05
2970.35	4.57266e-05
2979.03	4.88692e-05
2987.7	1.20056e-05
2996.38	6.52151e-06
3005.06	7.25378e-06
3013.74	9.54636e-06
3022.42	5.44505e-06
3031.09	5.16436e-06
3039.77	1.19928e-06
3048.45	5.97608e-07
3057.13	2.26453e-07
3065.81	5.66412e-08
3074.49	4.04693e-07
3083.16	4.38213e-07
3091.84	1.36271e-07
3100.52	7.79988e-08
3109.2	1.62974e-07
3117.88	6.81817e-08
3126.55	2.75248e-08
3135.23	1.76172e-07
3143.91	5.62156e-08
3152.59	2.90376e-07
3161.27	1.1456e-07
3169.95	1.64263e-07
3178.62	1.34567e-07
3187.3	1.61263e-07
3195.98	7.75186e-08
3204.66	2.86398e-09
3213.34	1.05565e-07
3222.01	-8.90236e-08
3230.69	-2.51254e-07
3239.37	-1.0519e-07
3248.05	4.58383e-10
3256.73	8.2569e-08
3265.41	1.48953e-07
3274.08	-1.0798e-07
3282.76	8.92492e-08
3291.44	2.96494e-09
3300.12	2.5021e-07
3308.8	-3.99985e-08
3317.47	-2.78013e-08
3326.15	9.79912e-08
3334.83	-2.05317e-08
3343.51	3.44651e-08
3352.19	2.68467e-07
3360.87	3.23387e-08
3369.54	1.1683e-07
3378.22	-9.90098e-08
3386.9	1.04118e-07
3395.58	2.29817e-07
3404.26	5.16718e-07
3412.93	2.39706e-07
3421.61	4.94208e-08
3430.29	1.01892e-07
3438.97	-2.40751e-08
3447.65	2.59168e-08
3456.33	-1.09771e-07
3465	-7.68364e-08
3473.68	-3.58928e-07
3482.36	-1.11354e-07
3491.04	-1.20595e-07
3499.72	-2.58875e-07
3508.39	-1.25128e-07
3517.07	6.79316e-08
3525.75	-2.99726e-07
3534.43	8.93456e-08
3543.11	-2.74154e-07
3551.79	-2.06553e-07
3560.46	-1.07616e-07
3569.14	-2.79783e-07
3577.82	-1.28566e-07
3586.5	-3.15044e-07
3595.18	-2.53068e-07
3603.85	-2.21511e-07
3612.53	-2.96121e-07
3621.21	-4.14814e-07
3629.89	-4.57421e-07
3638.57	1.06781e-07
3647.25	-2.20889e-07
3655.92	-8.14776e-08
3664.6	2.29241e-07
3673.28	-2.42679e-08
3681.96	1.2167e-07
3690.64	-4.85668e-08
3699.31	2.55782e-07
3707.99	1.1896e-07
3716.67	9.95164e-08
3725.35	-1.02558e-07
3734.03	-2.55127e-07
3742.71	1.52985e-07
3751.38	9.81613e-08
3760.06	4.83938e-07
3768.74	7.71114e-07
3777.42	4.46701e-07
3786.1	2.16221e-07
3794.77	2.02834e-07
3803.45	3.02878e-07
3812.13	4.49305e-07
3820.81	-1.89965e-07
3829.49	-1.14307e-07
3838.17	-1.13258e-06
3846.84	-4.30241e-07
3855.52	-1.65486e-07
3864.2	-3.28058e-07
3872.88	-2.88017e-07
3881.56	-3.26295e-07
3890.23	-2.28946e-08
3898.91	4.21194e-08
3907.59	3.3606e-07
3916.27	-6.60781e-08
3924.95	-1.9606e-07
3933.63	1.66096e-07
3942.3	2.08897e-07
3950.98	4.61474e-07
3959.66	9.67871e-07
3968.34	2.60803e-07
