Infrared Spectrum: 1,1,2-Trichloroethane
Formula: Cl C H2 C H Cl2
CAS: 79-00-5
State: gas
Melting point: -36.5 C
Boiling point: 113.77 C
Class: IUPAC A
Instrument: IFS66V (Bruker)
Instrument parameters: KBr Beam Splitter; MCT Detector; Multipass cell
Sampling: 1 L/min Flow
Resolution: 0.4820
Temperature: 23 C
Pressure: 101.3 Pa
Origin: NIST, Analytical Chemistry Division, 301-975-3108
cm-1	(micromol/mol)-1m-1 (base 10)
575.17	5.09022e-07
583.848	-6.34514e-07
592.526	-1.1586e-06
601.205	-1.75291e-06
609.883	3.10421e-07
618.561	-3.17358e-07
627.239	-5.46864e-07
635.917	6.45424e-07
644.595	5.73082e-06
653.274	1.40314e-05
661.952	5.9786e-05
670.63	0.000161187
679.308	0.000192694
687.986	6.46153e-05
696.665	1.3795e-05
705.343	1.74134e-05
714.021	2.8448e-05
722.699	7.52804e-05
731.377	0.000395862
740.055	0.00084312
748.734	0.000716053
757.412	5.19925e-05
766.09	2.69039e-05
774.768	4.33038e-05
783.446	9.11501e-05
792.124	7.3552e-05
800.803	5.69319e-05
809.481	8.11346e-06
818.159	1.45867e-06
826.837	2.33649e-06
835.515	2.16594e-06
844.194	2.54598e-06
852.872	1.91087e-06
861.55	8.95536e-07
870.228	8.08908e-07
878.906	1.49716e-06
887.584	2.68608e-06
896.263	4.33945e-06
904.941	6.9696e-06
913.619	1.50703e-05
922.297	4.81169e-05
930.975	0.000139396
939.654	0.000154887
948.332	7.50259e-05
957.01	1.85136e-05
965.688	5.55214e-06
974.366	3.87523e-06
983.044	1.81e-06
991.723	2.37264e-06
1000.4	2.77021e-06
1009.08	2.23403e-06
1017.76	1.48037e-06
1026.44	2.82161e-06
1035.11	6.96911e-06
1043.79	1.39598e-05
1052.47	1.77527e-05
1061.15	1.4458e-05
1069.83	8.14443e-06
1078.5	3.08376e-06
1087.18	5.82537e-07
1095.86	6.65706e-07
1104.54	3.59757e-07
1113.22	3.3979e-07
1121.9	6.82843e-07
1130.57	7.03161e-07
1139.25	1.47865e-06
1147.93	7.21882e-06
1156.61	1.87339e-05
1165.29	2.0182e-05
1173.96	7.02131e-06
1182.64	3.24073e-06
1191.32	9.43861e-06
1200	6.41918e-05
1208.68	0.000120481
1217.36	9.10411e-05
1226.03	1.2843e-05
1234.71	1.01374e-05
1243.39	1.46843e-05
1252.07	3.38914e-05
1260.75	9.73118e-05
1269.42	8.76519e-05
1278.1	2.6275e-05
1286.78	4.61141e-06
1295.46	1.10203e-05
1304.14	3.46885e-05
1312.82	3.63557e-05
1321.49	1.11167e-05
1330.17	5.09617e-06
1338.85	4.38818e-06
1347.53	4.31476e-06
1356.21	3.55695e-06
1364.88	1.20786e-06
1373.56	4.63029e-07
1382.24	6.7345e-07
1390.92	4.1097e-07
1399.6	5.04874e-07
1408.28	1.40814e-06
1416.95	3.65432e-06
1425.63	1.89421e-05
1434.31	4.62577e-05
1442.99	4.93456e-05
1451.67	1.56778e-05
1460.34	2.01269e-06
1469.02	1.23605e-06
1477.7	1.05745e-06
1486.38	8.87108e-07
1495.06	3.63709e-07
1503.74	-4.94672e-09
1512.41	-3.60603e-07
1521.09	-1.23339e-06
1529.77	-4.13245e-08
1538.45	-3.88133e-07
1547.13	6.95996e-08
1555.8	7.48856e-08
1564.48	3.85114e-08
1573.16	-2.29252e-07
1581.84	-7.3103e-08
1590.52	-2.75498e-07
1599.2	-6.91331e-08
1607.87	2.62007e-07
1616.55	-1.46236e-06
1625.23	3.87716e-08
1633.91	-4.05333e-07
1642.59	-2.79557e-07
1651.26	-2.14223e-07
1659.94	-2.04942e-07
1668.62	-3.34866e-07
1677.3	-2.35733e-07
1685.98	-1.57195e-07
1694.66	-1.49532e-07
1703.33	-3.32437e-08
1712.01	-5.40464e-08
1720.69	-2.2016e-08
1729.37	-3.21286e-08
1738.05	-8.06481e-08
1746.72	-3.63626e-07
1755.4	-5.18419e-07
1764.08	-1.4189e-07
1772.76	-1.39237e-06
1781.44	2.68327e-08
1790.12	2.9101e-08
1798.79	1.61305e-07
1807.47	1.13322e-07
1816.15	1.30762e-07
1824.83	2.76106e-07
1833.51	2.12957e-07
1842.18	-2.23106e-07
1850.86	-3.19738e-07
1859.54	-3.30048e-07
1868.22	-4.34128e-07
1876.9	-2.94034e-07
1885.58	-3.44338e-07
1894.25	-2.51393e-07
1902.93	-3.39412e-07
1911.61	-1.8917e-07
1920.29	-2.29335e-07
1928.97	-1.52934e-07
1937.64	-3.46088e-08
1946.32	-7.6941e-08
1955	-1.65351e-07
1963.68	-3.99361e-07
1972.36	3.82222e-08
1981.04	4.20908e-07
1989.71	4.75319e-07
1998.39	-8.74329e-08
2007.07	1.61289e-08
2015.75	-1.03696e-07
2024.43	-8.63379e-09
2033.1	-1.70758e-07
2041.78	4.50543e-08
2050.46	5.82155e-08
2059.14	1.34718e-07
2067.82	-1.67429e-07
2076.5	1.2045e-07
2085.17	2.10983e-07
2093.85	5.58957e-07
2102.53	6.29737e-07
2111.21	2.30121e-07
2119.89	-5.98409e-07
2128.56	8.98822e-08
2137.24	-1.72603e-08
2145.92	-1.41211e-07
2154.6	-9.453e-07
2163.28	-2.08355e-08
2171.96	-7.11321e-08
2180.63	1.23356e-07
2189.31	1.68442e-07
2197.99	6.87976e-07
2206.67	4.41536e-07
2215.35	-3.0517e-08
2224.02	-1.73871e-07
2232.7	-4.23659e-08
2241.38	-1.47158e-07
2250.06	1.22203e-07
2258.74	1.62898e-07
2267.42	9.8696e-08
2276.09	-6.10704e-08
2284.77	-2.07213e-07
2293.45	-2.85981e-07
2302.13	-5.95016e-08
2310.81	-7.83678e-07
2319.48	-1.17327e-06
2328.16	-8.82872e-07
2336.84	-6.45819e-07
2345.52	-6.3133e-07
2354.2	-1.28808e-06
2362.88	-3.06826e-06
2371.55	-3.05155e-07
2380.23	7.24673e-07
2388.91	5.81315e-07
2397.59	8.91904e-07
2406.27	2.23228e-06
2414.94	9.03282e-07
2423.62	4.13522e-07
2432.3	-9.38139e-09
2440.98	3.49761e-07
2449.66	1.15166e-06
2458.34	2.07859e-06
2467.01	2.08603e-06
2475.69	1.19469e-06
2484.37	8.76937e-07
2493.05	8.20003e-07
2501.73	7.42858e-07
2510.4	1.14567e-06
2519.08	1.12478e-06
2527.76	6.54997e-07
2536.44	-4.24868e-08
2545.12	-3.44299e-07
2553.8	-1.39646e-07
2562.47	4.85777e-07
2571.15	5.7483e-07
2579.83	4.43779e-07
2588.51	2.94095e-07
2597.19	3.55501e-07
2605.86	1.6889e-07
2614.54	1.89639e-07
2623.22	-6.60299e-08
2631.9	-2.75539e-08
2640.58	2.67188e-07
2649.26	1.75978e-07
2657.93	4.39247e-08
2666.61	7.38133e-08
2675.29	-6.74842e-10
2683.97	3.25006e-08
2692.65	7.12987e-07
2701.32	6.43044e-07
2710	2.76149e-07
2718.68	1.64818e-08
2727.36	2.32034e-07
2736.04	6.22683e-07
2744.71	6.52736e-07
2753.39	4.51231e-07
2762.07	-2.33846e-07
2770.75	-2.94957e-08
2779.43	2.41022e-07
2788.11	3.5109e-08
2796.78	-9.06125e-08
2805.46	3.63105e-08
2814.14	-4.48188e-08
2822.82	3.96569e-07
2831.5	3.37089e-07
2840.17	5.97094e-07
2848.85	3.55267e-06
2857.53	7.67814e-06
2866.21	4.44261e-06
2874.89	4.35319e-07
2883.57	1.12071e-06
2892.24	1.06821e-06
2900.92	1.32407e-06
2909.6	1.19313e-06
2918.28	1.61434e-06
2926.96	1.79322e-06
2935.63	2.08963e-06
2944.31	2.06011e-06
2952.99	4.30488e-06
2961.67	1.45385e-05
2970.35	4.59049e-05
2979.03	4.90707e-05
2987.7	1.2065e-05
2996.38	6.36502e-06
3005.06	6.76404e-06
3013.74	9.56175e-06
3022.42	5.4651e-06
3031.09	5.15595e-06
3039.77	1.25503e-06
3048.45	6.80843e-07
3057.13	1.90736e-07
3065.81	-4.49197e-09
3074.49	6.12331e-07
3083.16	4.65238e-07
3091.84	1.25578e-07
3100.52	1.26306e-07
3109.2	2.85674e-07
3117.88	7.65581e-08
3126.55	-1.90993e-09
3135.23	2.31185e-07
3143.91	5.00019e-08
3152.59	2.40356e-07
3161.27	1.46088e-07
3169.95	1.52329e-07
3178.62	1.82765e-07
3187.3	2.33162e-07
3195.98	-1.00929e-07
3204.66	-1.20586e-07
3213.34	9.65351e-08
3222.01	-1.96329e-07
3230.69	-3.22602e-07
3239.37	-1.56908e-07
3248.05	1.6761e-08
3256.73	1.51181e-07
3265.41	1.25129e-07
3274.08	-2.53709e-07
3282.76	2.90018e-07
3291.44	-6.68684e-08
3300.12	3.26871e-07
3308.8	-1.86755e-07
3317.47	1.45265e-07
3326.15	1.82704e-07
3334.83	-1.07637e-07
3343.51	-3.10527e-08
3352.19	3.13147e-07
3360.87	1.20804e-07
3369.54	1.18686e-07
3378.22	-7.83144e-08
3386.9	1.78959e-07
3395.58	3.015e-07
3404.26	5.76057e-07
3412.93	3.02837e-07
3421.61	-1.04e-08
3430.29	1.47995e-07
3438.97	-1.25198e-07
3447.65	5.68841e-08
3456.33	-1.31871e-07
3465	-5.1227e-08
3473.68	-3.43271e-07
3482.36	-1.27179e-07
3491.04	-1.29688e-07
3499.72	-3.96669e-07
3508.39	5.09496e-09
3517.07	1.28061e-07
3525.75	-4.28641e-07
3534.43	1.39939e-07
3543.11	-3.93557e-07
3551.79	-3.09141e-07
3560.46	-4.81566e-08
3569.14	-2.47005e-07
3577.82	-1.33022e-07
3586.5	-4.24478e-07
3595.18	-3.34545e-07
3603.85	-2.48877e-07
3612.53	-5.19972e-07
3621.21	-5.46656e-07
3629.89	-5.74516e-07
3638.57	1.41107e-07
3647.25	-3.25105e-07
3655.92	1.09985e-08
3664.6	2.22773e-07
3673.28	5.39328e-10
3681.96	2.22764e-07
3690.64	8.12693e-08
3699.31	1.72999e-07
3707.99	1.03194e-07
3716.67	1.84464e-07
3725.35	-1.03851e-07
3734.03	-1.38559e-07
3742.71	2.28766e-07
3751.38	3.2132e-07
3760.06	4.95208e-07
3768.74	7.86551e-07
3777.42	3.76008e-07
3786.1	2.57396e-07
3794.77	1.60101e-07
3803.45	2.18249e-07
3812.13	4.82196e-07
3820.81	-4.29337e-07
3829.49	-2.34131e-07
3838.17	-1.17591e-06
3846.84	-5.19873e-07
3855.52	-6.16052e-08
3864.2	-3.85935e-07
3872.88	-3.34929e-07
3881.56	-2.3106e-07
3890.23	1.5736e-08
3898.91	1.03332e-07
3907.59	3.69445e-07
3916.27	-2.06997e-07
3924.95	-3.64863e-07
3933.63	1.59577e-07
3942.3	9.6677e-08
3950.98	4.24519e-07
3959.66	1.09796e-06
3968.34	4.20203e-08
