Infrared Spectrum: 1,1,2-Trichloroethane
Formula: Cl C H2 C H Cl2
CAS: 79-00-5
State: gas
Melting point: -36.5 C
Boiling point: 113.77 C
Class: IUPAC A
Instrument: IFS66V (Bruker)
Instrument parameters: KBr Beam Splitter; MCT Detector; Multipass cell
Sampling: 1 L/min Flow
Resolution: 1.9290
Temperature: 23 C
Pressure: 101.3 Pa
Origin: NIST, Analytical Chemistry Division, 301-975-3108
cm-1	(micromol/mol)-1m-1 (base 10)
575.652	-1.1965e-06
584.33	-6.25402e-08
593.008	-5.06358e-07
601.687	-8.69107e-07
610.365	-1.32682e-07
619.043	-2.33405e-07
627.721	2.67705e-07
636.399	2.07576e-06
645.077	6.46627e-06
653.756	1.65117e-05
662.434	6.53019e-05
671.112	0.000156886
679.79	0.00018765
688.468	6.20024e-05
697.147	1.56599e-05
705.825	2.04398e-05
714.503	3.33033e-05
723.181	8.89666e-05
731.859	0.000428639
740.537	0.000826852
749.216	0.00067021
757.894	5.89237e-05
766.572	3.15354e-05
775.25	4.805e-05
783.928	9.38142e-05
792.607	7.72529e-05
801.285	5.24244e-05
809.963	8.76457e-06
818.641	2.20216e-06
827.319	2.71743e-06
835.997	2.67289e-06
844.676	2.76971e-06
853.354	2.25284e-06
862.032	1.3268e-06
870.71	1.36027e-06
879.388	1.74626e-06
888.066	2.90887e-06
896.745	4.64967e-06
905.423	7.47044e-06
914.101	1.6945e-05
922.779	5.21766e-05
931.457	0.000139612
940.136	0.000157028
948.814	7.15329e-05
957.492	1.81015e-05
966.17	6.33116e-06
974.848	4.1659e-06
983.526	2.31826e-06
992.205	2.47408e-06
1000.88	2.87321e-06
1009.56	2.56104e-06
1018.24	1.90275e-06
1026.92	3.11035e-06
1035.6	7.448e-06
1044.27	1.44484e-05
1052.95	1.72685e-05
1061.63	1.37018e-05
1070.31	7.50205e-06
1078.99	2.9862e-06
1087.66	9.25548e-07
1096.34	6.98741e-07
1105.02	2.64031e-07
1113.7	3.96248e-07
1122.38	7.01561e-07
1131.06	8.87453e-07
1139.73	1.86824e-06
1148.41	8.04825e-06
1157.09	1.9473e-05
1165.77	1.9999e-05
1174.45	7.00033e-06
1183.12	4.0474e-06
1191.8	1.16042e-05
1200.48	7.12407e-05
1209.16	0.00013236
1217.84	7.97746e-05
1226.52	1.3374e-05
1235.19	1.14162e-05
1243.87	1.52281e-05
1252.55	3.8003e-05
1261.23	9.30001e-05
1269.91	8.29911e-05
1278.58	2.48297e-05
1287.26	5.31073e-06
1295.94	1.28599e-05
1304.62	3.49211e-05
1313.3	3.6107e-05
1321.98	1.07406e-05
1330.65	5.26926e-06
1339.33	4.37621e-06
1348.01	4.31914e-06
1356.69	2.98576e-06
1365.37	1.25554e-06
1374.04	7.03178e-07
1382.72	8.36133e-07
1391.4	7.71165e-07
1400.08	7.42984e-07
1408.76	1.48747e-06
1417.44	4.37138e-06
1426.11	2.05909e-05
1434.79	4.56158e-05
1443.47	4.6593e-05
1452.15	1.45245e-05
1460.83	2.39184e-06
1469.5	1.21492e-06
1478.18	1.10661e-06
1486.86	8.61222e-07
1495.54	1.55612e-07
1504.22	-1.76985e-07
1512.9	-1.08809e-07
1521.57	-5.60317e-07
1530.25	-1.42988e-07
1538.93	-9.22972e-07
1547.61	1.06684e-07
1556.29	5.12743e-08
1564.96	-3.66825e-08
1573.64	-1.30796e-07
1582.32	-1.29084e-07
1591	-2.21861e-07
1599.68	1.6429e-08
1608.36	2.62225e-07
1617.03	-3.70437e-07
1625.71	-8.85279e-08
1634.39	-5.04868e-07
1643.07	-2.08009e-07
1651.75	-8.55468e-07
1660.42	-1.81942e-07
1669.1	-5.88991e-07
1677.78	-2.37511e-07
1686.46	-1.43715e-07
1695.14	-7.51955e-07
1703.82	-2.41924e-07
1712.49	-1.28849e-07
1721.17	-5.40201e-08
1729.85	-1.42381e-07
1738.53	-2.45468e-07
1747.21	-3.66759e-07
1755.88	-4.85153e-07
1764.56	-1.89945e-07
1773.24	-5.18129e-07
1781.92	-4.01813e-08
1790.6	3.2969e-09
1799.28	1.33855e-07
1807.95	1.11757e-07
1816.63	9.91217e-08
1825.31	5.47793e-07
1833.99	1.63699e-07
1842.67	-2.64633e-07
1851.34	-3.18559e-07
1860.02	-3.27391e-07
1868.7	-4.29689e-07
1877.38	-3.01857e-07
1886.06	-3.49354e-07
1894.74	-3.79212e-07
1903.41	-3.58016e-07
1912.09	-3.2748e-07
1920.77	-2.88666e-07
1929.45	-1.91788e-07
1938.13	-5.52852e-08
1946.8	-5.28141e-08
1955.48	-2.12814e-07
1964.16	-2.86799e-07
1972.84	3.93245e-08
1981.52	3.40633e-07
1990.2	3.98853e-07
1998.87	3.6295e-08
2007.55	1.46392e-08
2016.23	-4.26487e-08
2024.91	-7.33958e-08
2033.59	-9.40849e-08
2042.26	3.41077e-08
2050.94	1.753e-07
2059.62	-3.00004e-08
2068.3	-1.45254e-07
2076.98	-1.07469e-07
2085.66	2.74448e-08
2094.33	2.70054e-07
2103.01	3.17159e-07
2111.69	2.54773e-07
2120.37	-1.26687e-07
2129.05	1.05264e-08
2137.72	-4.95235e-08
2146.4	-1.76708e-07
2155.08	-3.93776e-07
2163.76	-1.1648e-07
2172.44	-4.11782e-07
2181.12	6.30513e-08
2189.79	-2.5996e-08
2198.47	5.15739e-07
2207.15	4.25858e-07
2215.83	7.29566e-08
2224.51	-6.00791e-08
2233.18	-8.45089e-08
2241.86	-4.90879e-08
2250.54	6.8832e-08
2259.22	3.84341e-08
2267.9	2.52911e-08
2276.58	-4.25869e-08
2285.25	-1.79802e-07
2293.93	-2.0656e-07
2302.61	-1.76569e-07
2311.29	-4.87489e-07
2319.97	-9.60855e-07
2328.64	-1.78121e-06
2337.32	-2.20583e-06
2346	-7.13346e-07
2354.68	-5.84954e-07
2363.36	-5.24501e-07
2372.04	4.8113e-07
2380.71	5.4139e-07
2389.39	5.15611e-07
2398.07	9.52912e-07
2406.75	1.83882e-06
2415.43	9.11173e-07
2424.1	3.56334e-07
2432.78	1.03434e-07
2441.46	4.08655e-07
2450.14	1.15611e-06
2458.82	2.25075e-06
2467.5	1.93091e-06
2476.17	1.19182e-06
2484.85	8.41556e-07
2493.53	7.07629e-07
2502.21	7.69972e-07
2510.89	1.19534e-06
2519.56	1.14907e-06
2528.24	5.58784e-07
2536.92	-1.67652e-07
2545.6	-1.95384e-07
2554.28	-8.99968e-08
2562.96	3.81556e-07
2571.63	5.2073e-07
2580.31	3.20377e-07
2588.99	2.99449e-07
2597.67	4.56914e-07
2606.35	2.17838e-07
2615.02	1.88887e-07
2623.7	-1.05064e-07
2632.38	-7.52212e-08
2641.06	1.11702e-07
2649.74	1.64388e-07
2658.42	-6.95196e-08
2667.09	-2.31492e-08
2675.77	1.02805e-07
2684.45	-5.36599e-10
2693.13	7.37491e-07
2701.81	8.31752e-07
2710.48	4.09901e-07
2719.16	8.97094e-08
2727.84	1.70997e-07
2736.52	6.1403e-07
2745.2	6.16914e-07
2753.88	3.40875e-07
2762.55	-5.14289e-08
2771.23	-9.79121e-08
2779.91	1.14802e-07
2788.59	1.15141e-08
2797.27	5.71433e-09
2805.94	7.72739e-08
2814.62	9.1703e-08
2823.3	1.62569e-07
2831.98	3.90381e-07
2840.66	7.68985e-07
2849.34	3.95825e-06
2858.01	7.3422e-06
2866.69	4.02539e-06
2875.37	7.1983e-07
2884.05	1.13944e-06
2892.73	1.05462e-06
2901.4	1.25132e-06
2910.08	1.24744e-06
2918.76	1.44803e-06
2927.44	1.91346e-06
2936.12	1.98866e-06
2944.8	2.36174e-06
2953.47	4.70569e-06
2962.15	1.62233e-05
2970.83	4.31132e-05
2979.51	4.67005e-05
2988.19	1.15849e-05
2996.86	7.25147e-06
3005.54	9.41042e-06
3014.22	8.99667e-06
3022.9	5.09302e-06
3031.58	4.90571e-06
3040.26	1.23258e-06
3048.93	5.49727e-07
3057.61	2.50414e-07
3066.29	1.3983e-07
3074.97	3.13764e-07
3083.65	4.05428e-07
3092.32	1.18325e-07
3101	-3.75619e-10
3109.68	1.22858e-07
3118.36	3.96056e-08
3127.04	4.39738e-09
3135.72	8.38923e-08
3144.39	1.30459e-07
3153.07	3.28309e-07
3161.75	7.94158e-08
3170.43	1.35198e-07
3179.11	1.12366e-07
3187.78	6.86583e-08
3196.46	1.58194e-07
3205.14	1.05615e-07
3213.82	4.88196e-08
3222.5	-2.19997e-08
3231.18	-8.33247e-08
3239.85	-6.21891e-08
3248.53	4.41275e-08
3257.21	4.38711e-08
3265.89	7.94612e-08
3274.57	-5.16772e-08
3283.24	-1.10082e-07
3291.92	1.22308e-08
3300.6	1.00709e-07
3309.28	7.88219e-08
3317.96	-5.47749e-08
3326.64	4.55209e-08
3335.31	1.78044e-07
3343.99	4.16465e-08
3352.67	1.72303e-07
3361.35	6.95914e-08
3370.03	1.54775e-07
3378.7	-4.6725e-08
3387.38	1.30579e-07
3396.06	2.6212e-07
3404.74	3.9621e-07
3413.42	3.14877e-07
3422.1	4.73908e-08
3430.77	1.56851e-08
3439.45	-9.54091e-08
3448.13	-7.04145e-08
3456.81	-2.15777e-08
3465.49	-1.37581e-07
3474.16	-2.54755e-07
3482.84	-1.53266e-07
3491.52	-1.09881e-07
3500.2	-1.68133e-07
3508.88	-1.47691e-07
3517.56	1.32176e-08
3526.23	-2.05412e-07
3534.91	1.04073e-08
3543.59	-2.6246e-07
3552.27	-8.21997e-08
3560.95	-9.33664e-08
3569.62	-2.34517e-07
3578.3	-7.89183e-08
3586.98	-2.74702e-07
3595.66	-2.69546e-07
3604.34	-2.48389e-07
3613.02	-2.22785e-07
3621.69	-2.15553e-07
3630.37	-1.99302e-07
3639.05	9.20404e-09
3647.73	-1.36649e-07
3656.41	3.91299e-08
3665.08	2.37702e-07
3673.76	-3.39813e-08
3682.44	1.35734e-07
3691.12	-1.59873e-07
3699.8	3.03588e-07
3708.48	9.39467e-08
3717.15	5.82465e-08
3725.83	-1.98066e-07
3734.51	-3.90208e-07
3743.19	-1.87949e-07
3751.87	-3.03038e-07
3760.54	5.8642e-07
3769.22	6.70273e-07
3777.9	3.7805e-07
3786.58	2.79273e-07
3795.26	2.37035e-07
3803.94	4.66265e-07
3812.61	5.12554e-07
3821.29	-7.60043e-08
3829.97	-3.12783e-08
3838.65	-6.38374e-07
3847.33	-3.0197e-07
3856	-2.62136e-07
3864.68	-4.11054e-07
3873.36	-3.76769e-07
3882.04	-3.7324e-07
3890.72	-1.60003e-07
3899.4	8.25162e-08
3908.07	3.1875e-07
3916.75	-7.96158e-08
3925.43	-8.27136e-08
3934.11	2.79433e-07
3942.79	2.53724e-07
3951.46	5.69876e-07
3960.14	8.35144e-07
3968.82	2.85286e-07
