Infrared Spectrum: Trichloroethene
Formula: C2 H Cl3
CAS: 79-01-6
State: gas
Melting point: -73 C
Boiling point: 87 C
Class: IUPAC A
Instrument: IFS66V (Bruker)
Instrument parameters: KBr Beam Splitter; MCT Detector; Multipass cell
Sampling: 1 L/min Flow
Resolution: 0.9640
Temperature: 23 C
Pressure: 101.3 Pa
Origin: NIST, Analytical Chemistry Division, 301-975-3108
cm-1	(micromol/mol)-1m-1 (base 10)
575.17	1.30005e-07
583.848	4.16666e-07
592.526	4.25368e-09
601.205	1.31483e-06
609.883	6.09745e-06
618.561	2.72899e-05
627.239	7.78724e-05
635.917	8.13352e-05
644.595	2.40068e-05
653.274	3.9623e-06
661.952	1.97636e-06
670.63	1.56074e-06
679.308	1.27367e-06
687.986	6.15334e-07
696.664	5.90441e-09
705.343	3.04299e-07
714.021	4.0846e-07
722.699	3.84785e-07
731.377	1.2157e-06
740.055	2.0348e-06
748.734	2.36619e-06
757.412	5.20611e-06
766.09	3.7208e-05
774.768	9.47608e-05
783.446	0.000312523
792.124	9.81629e-05
800.803	4.09274e-05
809.481	1.63492e-05
818.159	7.21278e-06
826.837	2.65558e-05
835.515	0.000243707
844.194	0.000710389
852.872	0.000695684
861.55	2.66738e-05
870.228	6.2564e-06
878.906	3.65909e-06
887.584	3.89696e-06
896.263	1.06193e-05
904.941	2.42644e-05
913.619	3.60534e-05
922.297	9.77238e-05
930.975	0.000425606
939.653	0.000505708
948.332	0.000446269
957.01	6.5252e-05
965.688	8.21197e-06
974.366	8.77126e-06
983.044	1.25703e-05
991.723	1.12384e-05
1000.4	4.6946e-06
1009.08	8.2843e-06
1017.76	9.08344e-06
1026.44	6.75106e-06
1035.11	2.23429e-06
1043.79	1.45851e-06
1052.47	1.1052e-06
1061.15	9.18599e-07
1069.83	6.66486e-07
1078.5	6.11497e-07
1087.18	7.36274e-07
1095.86	1.0316e-06
1104.54	2.26532e-06
1113.22	3.2177e-06
1121.9	2.17644e-06
1130.57	1.40199e-06
1139.25	9.46044e-07
1147.93	6.2503e-07
1156.61	4.78325e-07
1165.29	4.16261e-07
1173.96	5.51202e-07
1182.64	7.10032e-07
1191.32	7.02703e-07
1200	1.01687e-06
1208.68	2.43476e-06
1217.36	4.9205e-06
1226.03	1.07358e-05
1234.71	1.54691e-05
1243.39	4.30847e-05
1252.07	5.22405e-05
1260.75	4.07522e-05
1269.42	1.72874e-05
1278.1	4.0724e-06
1286.78	9.03663e-07
1295.46	5.32988e-07
1304.14	1.03234e-06
1312.82	1.92028e-06
1321.49	2.21418e-06
1330.17	1.49169e-06
1338.85	6.83598e-07
1347.53	4.87538e-07
1356.21	4.5764e-07
1364.88	7.1692e-07
1373.56	5.28453e-07
1382.24	9.9046e-07
1390.92	1.02001e-06
1399.6	7.89806e-07
1408.28	1.17132e-06
1416.95	1.22534e-06
1425.63	1.6147e-06
1434.31	9.86391e-07
1442.99	7.38324e-07
1451.67	6.17634e-07
1460.34	5.77827e-07
1469.02	6.45943e-07
1477.7	6.92298e-07
1486.38	5.30727e-07
1495.06	3.7427e-07
1503.73	5.08038e-07
1512.41	3.57683e-07
1521.09	-4.76858e-07
1529.77	9.72162e-07
1538.45	2.92307e-06
1547.13	1.5949e-05
1555.8	5.51003e-05
1564.48	5.00308e-05
1573.16	2.14132e-05
1581.84	3.52344e-05
1590.52	3.69681e-05
1599.19	3.22314e-05
1607.87	5.69107e-06
1616.55	-4.46977e-07
1625.23	5.36126e-07
1633.91	4.66056e-07
1642.59	3.28094e-07
1651.26	1.32958e-07
1659.94	1.73654e-07
1668.62	8.17113e-08
1677.3	5.22093e-07
1685.98	5.7704e-07
1694.65	4.70506e-07
1703.33	3.64926e-07
1712.01	1.57091e-07
1720.69	4.19891e-07
1729.37	3.34148e-07
1738.05	6.9415e-07
1746.72	1.13158e-06
1755.4	2.39468e-06
1764.08	2.48432e-06
1772.76	1.28678e-06
1781.44	2.20777e-06
1790.11	2.48903e-06
1798.79	9.42576e-07
1807.47	7.33338e-07
1816.15	5.2897e-07
1824.83	3.71468e-07
1833.51	6.52104e-07
1842.18	6.65498e-07
1850.86	7.9081e-07
1859.54	1.48326e-06
1868.22	1.6612e-06
1876.9	1.18095e-06
1885.57	7.89727e-07
1894.25	3.10725e-07
1902.93	2.51207e-07
1911.61	4.64518e-07
1920.29	6.13969e-07
1928.97	5.67918e-07
1937.64	6.21459e-07
1946.32	5.62828e-07
1955	7.82693e-07
1963.68	7.657e-07
1972.36	9.3187e-07
1981.03	7.17817e-07
1989.71	6.10131e-07
1998.39	6.31157e-07
2007.07	6.59335e-07
2015.75	6.68285e-07
2024.43	7.54856e-07
2033.1	8.63251e-07
2041.78	8.28904e-07
2050.46	7.369e-07
2059.14	7.70449e-07
2067.82	9.33649e-07
2076.49	1.11835e-06
2085.17	1.36976e-06
2093.85	1.74966e-06
2102.53	1.51365e-06
2111.21	7.98416e-07
2119.89	5.89942e-07
2128.56	7.41652e-07
2137.24	7.17607e-07
2145.92	9.78167e-07
2154.6	6.90752e-07
2163.28	1.04836e-06
2171.95	1.03639e-06
2180.63	1.09278e-06
2189.31	1.11192e-06
2197.99	1.21839e-06
2206.67	1.01306e-06
2215.35	1.40945e-06
2224.02	1.35744e-06
2232.7	1.2078e-06
2241.38	1.07487e-06
2250.06	1.05525e-06
2258.74	1.07198e-06
2267.41	1.03779e-06
2276.09	1.04118e-06
2284.77	1.10769e-06
2293.45	1.09983e-06
2302.13	1.01579e-06
2310.81	1.06983e-06
2319.48	9.4641e-07
2328.16	9.72883e-07
2336.84	9.97088e-07
2345.52	9.79724e-07
2354.2	8.88889e-07
2362.87	6.99231e-07
2371.55	9.60772e-07
2380.23	1.14554e-06
2388.91	9.70484e-07
2397.59	1.1438e-06
2406.27	1.05713e-06
2414.94	1.25205e-06
2423.62	1.48075e-06
2432.3	1.63677e-06
2440.98	1.33802e-06
2449.66	1.37922e-06
2458.33	1.29342e-06
2467.01	1.61331e-06
2475.69	1.89945e-06
2484.37	2.08953e-06
2493.05	1.81307e-06
2501.73	1.56759e-06
2510.4	1.55014e-06
2519.08	1.71962e-06
2527.76	1.6957e-06
2536.44	1.52329e-06
2545.12	1.4022e-06
2553.79	1.27668e-06
2562.47	1.21717e-06
2571.15	1.31714e-06
2579.83	1.23924e-06
2588.51	1.05495e-06
2597.19	1.30419e-06
2605.86	1.37239e-06
2614.54	1.2781e-06
2623.22	1.22682e-06
2631.9	1.29809e-06
2640.58	1.3192e-06
2649.25	1.22344e-06
2657.93	1.17397e-06
2666.61	1.43296e-06
2675.29	1.42284e-06
2683.97	1.31509e-06
2692.65	1.33231e-06
2701.32	1.13371e-06
2710	1.44493e-06
2718.68	1.57354e-06
2727.36	1.39453e-06
2736.04	1.32071e-06
2744.71	1.24596e-06
2753.39	1.54054e-06
2762.07	1.52453e-06
2770.75	1.65359e-06
2779.43	1.38264e-06
2788.11	1.51932e-06
2796.78	1.80396e-06
2805.46	2.24762e-06
2814.14	2.50967e-06
2822.82	2.94158e-06
2831.5	2.82037e-06
2840.17	2.61573e-06
2848.85	1.75099e-06
2857.53	1.75193e-06
2866.21	1.60495e-06
2874.89	1.92331e-06
2883.57	1.6724e-06
2892.24	2.00427e-06
2900.92	2.18247e-06
2909.6	2.101e-06
2918.28	2.06009e-06
2926.96	2.16613e-06
2935.63	2.63011e-06
2944.31	2.81859e-06
2952.99	2.59985e-06
2961.67	1.8572e-06
2970.35	3.14658e-06
2979.03	3.58648e-06
2987.7	3.71615e-06
2996.38	3.16517e-06
3005.06	2.86155e-06
3013.74	2.55373e-06
3022.42	2.38076e-06
3031.09	2.04168e-06
3039.77	2.23496e-06
3048.45	2.39654e-06
3057.13	2.43327e-06
3065.81	3.02008e-06
3074.49	5.91081e-06
3083.16	2.01819e-05
3091.84	6.63178e-05
3100.52	7.68615e-05
3109.2	1.27298e-05
3117.88	4.52636e-06
3126.55	3.84903e-06
3135.23	4.3571e-06
3143.91	4.86336e-06
3152.59	5.15311e-06
3161.27	8.93473e-06
3169.95	1.09239e-05
3178.62	8.87996e-06
3187.3	2.68367e-06
3195.98	2.18524e-06
3204.66	2.85767e-06
3213.34	2.23165e-06
3222.01	2.82855e-06
3230.69	2.9003e-06
3239.37	2.87225e-06
3248.05	2.54767e-06
3256.73	2.91668e-06
3265.41	2.96668e-06
3274.08	3.0511e-06
3282.76	2.41746e-06
3291.44	2.36125e-06
3300.12	2.54678e-06
3308.8	2.61053e-06
3317.47	2.63307e-06
3326.15	2.46199e-06
3334.83	2.11216e-06
3343.51	2.4732e-06
3352.19	2.00383e-06
3360.86	2.7191e-06
3369.54	2.42397e-06
3378.22	2.05549e-06
3386.9	2.60861e-06
3395.58	2.78704e-06
3404.26	2.23128e-06
3412.93	2.32992e-06
3421.61	2.30972e-06
3430.29	2.40267e-06
3438.97	2.71088e-06
3447.65	2.29288e-06
3456.32	2.53474e-06
3465	2.49152e-06
3473.68	2.41943e-06
3482.36	2.64685e-06
3491.04	2.45025e-06
3499.72	2.64953e-06
3508.39	2.51435e-06
3517.07	2.60814e-06
3525.75	2.72687e-06
3534.43	2.85139e-06
3543.11	2.39039e-06
3551.78	2.39216e-06
3560.46	2.43263e-06
3569.14	2.85384e-06
3577.82	2.45013e-06
3586.5	2.76749e-06
3595.18	2.55298e-06
3603.85	2.61406e-06
3612.53	2.6239e-06
3621.21	2.82178e-06
3629.89	2.43226e-06
3638.57	2.93687e-06
3647.24	2.70324e-06
3655.92	2.56502e-06
3664.6	3.30775e-06
3673.28	3.06269e-06
3681.96	3.01409e-06
3690.64	2.91763e-06
3699.31	3.34331e-06
3707.99	3.25664e-06
3716.67	3.78953e-06
3725.35	4.01952e-06
3734.03	3.52557e-06
3742.7	3.34257e-06
3751.38	2.74244e-06
3760.06	2.89866e-06
3768.74	3.30498e-06
3777.42	2.99081e-06
3786.1	3.33301e-06
3794.77	3.31344e-06
3803.45	3.06478e-06
3812.13	3.1019e-06
3820.81	2.86981e-06
3829.49	3.25694e-06
3838.16	1.98079e-06
3846.84	3.08293e-06
3855.52	2.86042e-06
3864.2	3.36363e-06
3872.88	3.44508e-06
3881.56	3.25031e-06
3890.23	3.30213e-06
3898.91	2.91916e-06
3907.59	3.21176e-06
3916.27	3.0874e-06
3924.95	3.02188e-06
3933.62	3.47223e-06
3942.3	3.87398e-06
3950.98	3.86574e-06
3959.66	3.39031e-06
3968.34	3.34394e-06
