Infrared Spectrum: Trichloroethene
Formula: C2 H Cl3
CAS: 79-01-6
State: gas
Melting point: -73 C
Boiling point: 87 C
Class: IUPAC A
Instrument: IFS66V (Bruker)
Instrument parameters: KBr Beam Splitter; MCT Detector; Multipass cell
Sampling: 1 L/min Flow
Resolution: 0.2410
Temperature: 23 C
Pressure: 101.3 Pa
Origin: NIST, Analytical Chemistry Division, 301-975-3108
cm-1	(micromol/mol)-1m-1 (base 10)
575.05	3.26782e-06
583.608	2.25424e-06
592.165	-2.31079e-06
600.723	1.10356e-06
609.281	4.03396e-06
617.838	2.45689e-05
626.396	7.7974e-05
634.954	7.19858e-05
643.511	2.8252e-05
652.069	4.65699e-06
660.626	1.71749e-06
669.184	9.2907e-07
677.742	2.16411e-07
686.299	1.07708e-06
694.857	2.14377e-07
703.415	-7.54893e-07
711.972	-9.34205e-08
720.53	-2.15558e-07
729.088	1.20749e-06
737.645	1.45662e-06
746.203	2.00869e-06
754.761	2.33505e-06
763.318	2.00336e-05
771.876	8.22418e-05
780.434	9.83845e-05
788.991	0.000106194
797.549	6.24383e-05
806.106	1.97031e-05
814.664	5.47564e-06
823.222	1.28008e-05
831.779	9.02258e-05
840.337	0.000562907
848.895	0.000861086
857.452	0.000323023
866.01	5.53274e-06
874.568	4.12425e-06
883.125	3.00741e-06
891.683	5.2206e-06
900.241	1.90102e-05
908.798	1.97639e-05
917.356	4.34714e-05
925.914	0.000184387
934.471	0.000585722
943.029	0.000618474
951.586	0.000201529
960.144	2.6071e-05
968.702	6.71344e-06
977.259	1.24515e-05
985.817	1.03898e-05
994.375	7.82509e-06
1002.93	4.84245e-06
1011.49	8.55174e-06
1020.05	8.19585e-06
1028.61	4.38911e-06
1037.16	2.19698e-06
1045.72	1.65334e-06
1054.28	1.18607e-06
1062.84	5.6174e-07
1071.39	6.64499e-07
1079.95	8.16621e-07
1088.51	9.28718e-07
1097.07	1.41754e-06
1105.62	2.40422e-06
1114.18	3.62883e-06
1122.74	1.38468e-06
1131.3	1.65916e-06
1139.85	7.00557e-07
1148.41	2.26971e-07
1156.97	4.69635e-07
1165.53	2.60745e-07
1174.09	2.67962e-07
1182.64	7.71406e-07
1191.2	6.04057e-07
1199.76	1.16521e-06
1208.32	2.60779e-06
1216.87	4.53014e-06
1225.43	1.04649e-05
1233.99	1.35982e-05
1242.55	3.88829e-05
1251.1	5.43799e-05
1259.66	4.49727e-05
1268.22	1.78283e-05
1276.78	4.96153e-06
1285.33	1.24677e-06
1293.89	7.3198e-07
1302.45	9.13477e-07
1311.01	1.46813e-06
1319.57	2.02841e-06
1328.12	1.94845e-06
1336.68	6.5824e-07
1345.24	3.40976e-07
1353.8	2.97428e-07
1362.35	8.1534e-08
1370.91	9.0814e-07
1379.47	1.15825e-06
1388.03	1.08844e-06
1396.58	1.11346e-06
1405.14	7.37093e-07
1413.7	1.2414e-06
1422.26	1.39306e-06
1430.81	1.38219e-06
1439.37	9.81855e-07
1447.93	-1.43553e-07
1456.49	-7.22742e-07
1465.05	-4.63456e-09
1473.6	-4.20895e-07
1482.16	6.83439e-07
1490.72	-3.56612e-07
1499.28	1.44184e-08
1507.83	2.16373e-07
1516.39	2.10616e-07
1524.95	1.87314e-07
1533.51	9.85995e-07
1542.06	5.02306e-06
1550.62	2.98126e-05
1559.18	3.21342e-05
1567.74	4.15519e-05
1576.29	1.94863e-05
1584.85	4.48318e-05
1593.41	4.21482e-05
1601.97	1.81336e-05
1610.53	2.90436e-06
1619.08	8.03908e-07
1627.64	2.93461e-08
1636.2	-8.45643e-08
1644.76	3.22749e-07
1653.31	-3.59069e-06
1661.87	4.23902e-07
1670.43	6.1115e-08
1678.99	2.98109e-07
1687.54	5.84382e-07
1696.1	-1.53408e-06
1704.66	-1.52977e-07
1713.22	6.72265e-09
1721.77	4.19253e-07
1730.33	6.4155e-07
1738.89	4.47324e-07
1747.45	1.19075e-06
1756.01	2.53402e-06
1764.56	2.55269e-06
1773.12	2.11913e-06
1781.68	2.0956e-06
1790.24	2.76471e-06
1798.79	8.80004e-07
1807.35	6.84672e-07
1815.91	7.22272e-07
1824.47	5.21246e-07
1833.02	8.13378e-07
1841.58	5.54188e-07
1850.14	5.78747e-07
1858.7	1.27969e-06
1867.25	1.45237e-06
1875.81	1.33053e-06
1884.37	8.97391e-07
1892.93	2.87474e-07
1901.49	2.11671e-07
1910.04	3.18691e-07
1918.6	4.658e-07
1927.16	6.24879e-07
1935.72	4.81954e-07
1944.27	4.85643e-07
1952.83	5.66198e-07
1961.39	7.82995e-07
1969.95	7.57961e-07
1978.5	9.80882e-07
1987.06	6.31489e-07
1995.62	8.59687e-07
2004.18	9.26002e-07
2012.73	5.84407e-07
2021.29	7.07341e-07
2029.85	6.54658e-07
2038.41	4.48051e-07
2046.97	8.22232e-07
2055.52	9.01734e-07
2064.08	7.24328e-07
2072.64	1.00885e-06
2081.2	1.43443e-06
2089.75	1.15686e-06
2098.31	1.57984e-06
2106.87	1.34657e-06
2115.43	5.98671e-07
2123.98	8.37867e-07
2132.54	8.30781e-07
2141.1	5.45886e-07
2149.66	7.7338e-07
2158.21	3.15477e-07
2166.77	1.06315e-06
2175.33	1.34053e-06
2183.89	1.20299e-06
2192.45	1.01069e-06
2201	1.02948e-06
2209.56	1.35272e-06
2218.12	1.41479e-06
2226.68	1.37404e-06
2235.23	1.15112e-06
2243.79	1.1399e-06
2252.35	1.13434e-06
2260.91	8.81381e-07
2269.46	1.01829e-06
2278.02	1.28307e-06
2286.58	9.10096e-07
2295.14	1.22487e-06
2303.69	9.89414e-07
2312.25	1.18867e-06
2320.81	1.02205e-06
2329.37	9.89489e-07
2337.93	6.03853e-07
2346.48	8.16002e-07
2355.04	1.3247e-06
2363.6	8.73991e-07
2372.16	1.26121e-06
2380.71	1.01876e-06
2389.27	9.94826e-07
2397.83	1.40045e-06
2406.39	9.29603e-07
2414.94	1.33347e-06
2423.5	1.58832e-06
2432.06	1.54487e-06
2440.62	1.31687e-06
2449.17	9.7927e-07
2457.73	1.4078e-06
2466.29	1.59572e-06
2474.85	1.98003e-06
2483.41	1.73705e-06
2491.96	1.91215e-06
2500.52	1.79266e-06
2509.08	1.51853e-06
2517.64	2.18043e-06
2526.19	1.55595e-06
2534.75	1.56905e-06
2543.31	1.21696e-06
2551.87	1.35142e-06
2560.42	1.32458e-06
2568.98	1.08238e-06
2577.54	1.28274e-06
2586.1	1.39815e-06
2594.65	1.17272e-06
2603.21	1.20649e-06
2611.77	1.50573e-06
2620.33	1.19907e-06
2628.89	1.60746e-06
2637.44	1.50272e-06
2646	1.32694e-06
2654.56	1.01456e-06
2663.12	1.04973e-06
2671.67	1.32204e-06
2680.23	1.51254e-06
2688.79	1.09989e-06
2697.35	1.32449e-06
2705.9	1.42595e-06
2714.46	9.61967e-07
2723.02	1.24496e-06
2731.58	1.28559e-06
2740.13	1.32161e-06
2748.69	1.08146e-06
2757.25	8.7803e-07
2765.81	1.34678e-06
2774.37	1.54366e-06
2782.92	1.29867e-06
2791.48	1.55055e-06
2800.04	1.871e-06
2808.6	2.55016e-06
2817.15	2.37024e-06
2825.71	3.46197e-06
2834.27	3.51055e-06
2842.83	2.23656e-06
2851.38	1.99954e-06
2859.94	1.7028e-06
2868.5	2.02315e-06
2877.06	2.03981e-06
2885.61	2.27204e-06
2894.17	1.70467e-06
2902.73	1.89851e-06
2911.29	2.28417e-06
2919.85	2.35248e-06
2928.4	2.60319e-06
2936.96	2.17485e-06
2945.52	1.97415e-06
2954.08	2.48715e-06
2962.63	3.76734e-06
2971.19	3.21957e-06
2979.75	3.50893e-06
2988.31	3.79336e-06
2996.86	3.29092e-06
3005.42	2.98662e-06
3013.98	2.63148e-06
3022.54	2.71739e-06
3031.09	1.75234e-06
3039.65	2.34359e-06
3048.21	2.62993e-06
3056.77	2.10353e-06
3065.33	2.97383e-06
3073.88	5.45405e-06
3082.44	1.67178e-05
3091	6.88855e-05
3099.56	7.50331e-05
3108.11	1.50395e-05
3116.67	4.45403e-06
3125.23	2.96647e-06
3133.79	4.46415e-06
3142.34	4.46706e-06
3150.9	4.91572e-06
3159.46	7.85748e-06
3168.02	1.18105e-05
3176.57	9.85961e-06
3185.13	2.60593e-06
3193.69	2.15249e-06
3202.25	2.63559e-06
3210.81	2.81897e-06
3219.36	2.17005e-06
3227.92	2.3231e-06
3236.48	2.29603e-06
3245.04	3.08468e-06
3253.59	2.72379e-06
3262.15	3.96546e-06
3270.71	2.96628e-06
3279.27	2.47822e-06
3287.82	2.63227e-06
3296.38	2.42175e-06
3304.94	1.65119e-06
3313.5	2.12976e-06
3322.05	2.48484e-06
3330.61	2.00986e-06
3339.17	1.96053e-06
3347.73	2.7607e-06
3356.29	3.12499e-06
3364.84	2.96862e-06
3373.4	2.21507e-06
3381.96	2.10506e-06
3390.52	2.47743e-06
3399.07	2.05761e-06
3407.63	2.1433e-06
3416.19	2.41267e-06
3424.75	2.45789e-06
3433.3	2.57889e-06
3441.86	2.28378e-06
3450.42	2.49868e-06
3458.98	2.28003e-06
3467.53	2.26942e-06
3476.09	2.2911e-06
3484.65	2.9134e-06
3493.21	2.72795e-06
3501.77	2.66287e-06
3510.32	3.20498e-06
3518.88	2.4565e-06
3527.44	2.64545e-06
3536	2.73656e-06
3544.55	3.10201e-06
3553.11	3.31748e-06
3561.67	2.57405e-06
3570.23	2.55252e-06
3578.78	2.60233e-06
3587.34	2.35965e-06
3595.9	3.29855e-06
3604.46	3.38097e-06
3613.01	2.60228e-06
3621.57	3.21621e-06
3630.13	3.46997e-06
3638.69	2.71154e-06
3647.25	2.94817e-06
3655.8	2.76972e-06
3664.36	3.70574e-06
3672.92	3.24186e-06
3681.48	3.35469e-06
3690.03	2.92177e-06
3698.59	3.83553e-06
3707.15	3.35191e-06
3715.71	3.78675e-06
3724.26	3.77153e-06
3732.82	3.51552e-06
3741.38	2.64123e-06
3749.94	2.97198e-06
3758.49	3.17418e-06
3767.05	3.23363e-06
3775.61	2.84975e-06
3784.17	2.99376e-06
3792.73	3.46318e-06
3801.28	1.16131e-06
3809.84	3.23551e-06
3818.4	2.71477e-06
3826.96	3.11541e-06
3835.51	2.61236e-06
3844.07	2.99096e-06
3852.63	3.55083e-06
3861.19	3.97693e-06
3869.74	2.97279e-06
3878.3	3.43246e-06
3886.86	2.95389e-06
3895.42	3.08959e-06
3903.97	3.5422e-06
3912.53	3.43905e-06
3921.09	2.32099e-06
3929.65	3.57673e-06
3938.21	3.74953e-06
3946.76	3.3424e-06
3955.32	3.10403e-06
3963.88	3.71726e-06
3972.44	2.86014e-06
