Infrared Spectrum: Trichloroethene
Formula: C2 H Cl3
CAS: 79-01-6
State: gas
Melting point: -73 C
Boiling point: 87 C
Class: IUPAC A
Instrument: IFS66V (Bruker)
Instrument parameters: KBr Beam Splitter; MCT Detector; Multipass cell
Sampling: 1 L/min Flow
Resolution: 0.1250
Temperature: 23 C
Pressure: 101.3 Pa
Origin: NIST, Analytical Chemistry Division, 301-975-3108
cm-1	(micromol/mol)-1m-1 (base 10)
575.05	2.64195e-06
583.608	3.36167e-06
592.165	-2.87117e-06
600.723	2.75236e-07
609.281	3.49405e-06
617.838	2.43419e-05
626.396	7.77878e-05
634.954	7.18517e-05
643.511	2.76022e-05
652.069	4.58079e-06
660.626	1.72429e-06
669.184	7.1687e-07
677.742	-1.82785e-07
686.299	1.30488e-06
694.857	4.43233e-07
703.415	-1.08857e-06
711.972	-4.07766e-07
720.53	-3.74693e-07
729.088	1.29921e-06
737.645	1.63944e-06
746.203	1.60063e-06
754.761	2.08866e-06
763.318	1.99373e-05
771.876	8.19692e-05
780.434	9.67576e-05
788.991	0.000106869
797.549	6.26313e-05
806.106	1.93949e-05
814.664	5.2099e-06
823.222	1.16279e-05
831.779	8.92921e-05
840.337	0.000564593
848.895	0.000860816
857.452	0.000322205
866.01	4.5862e-06
874.568	3.95712e-06
883.125	2.78354e-06
891.683	5.25646e-06
900.241	1.90573e-05
908.798	1.93788e-05
917.356	4.26209e-05
925.914	0.000183676
934.471	0.000587975
943.029	0.000621764
951.586	0.000200406
960.144	2.52742e-05
968.702	6.62655e-06
977.259	1.23364e-05
985.817	1.0206e-05
994.375	7.81579e-06
1002.93	4.8953e-06
1011.49	8.43473e-06
1020.05	8.21423e-06
1028.61	4.25582e-06
1037.16	2.41312e-06
1045.72	1.6325e-06
1054.28	1.13151e-06
1062.84	6.50462e-07
1071.39	6.4649e-07
1079.95	8.87312e-07
1088.51	1.11325e-06
1097.07	1.42002e-06
1105.62	2.52764e-06
1114.18	3.92003e-06
1122.74	1.08721e-06
1131.3	1.74585e-06
1139.85	7.85186e-07
1148.41	1.52404e-07
1156.97	4.19688e-07
1165.53	3.02936e-07
1174.09	5.13094e-08
1182.64	8.59108e-07
1191.2	5.92538e-07
1199.76	1.17263e-06
1208.32	2.70826e-06
1216.87	4.32985e-06
1225.43	1.0556e-05
1233.99	1.33263e-05
1242.55	3.89009e-05
1251.1	5.50362e-05
1259.66	4.52732e-05
1268.22	1.79452e-05
1276.78	4.94569e-06
1285.33	1.23783e-06
1293.89	9.23858e-07
1302.45	1.05797e-06
1311.01	1.43452e-06
1319.57	1.97747e-06
1328.12	2.16613e-06
1336.68	6.03251e-07
1345.24	2.2763e-07
1353.8	2.15545e-07
1362.35	-9.61125e-08
1370.91	9.22544e-07
1379.47	1.24066e-06
1388.03	1.18607e-06
1396.58	1.13511e-06
1405.14	7.63054e-07
1413.7	1.38995e-06
1422.26	1.37389e-06
1430.81	1.27806e-06
1439.37	1.11348e-06
1447.93	-3.60019e-07
1456.49	-9.46721e-07
1465.05	4.06251e-08
1473.6	-5.24656e-07
1482.16	6.77189e-07
1490.72	-5.46394e-07
1499.28	2.30382e-08
1507.83	2.35235e-07
1516.39	3.12562e-07
1524.95	2.53918e-08
1533.51	1.03992e-06
1542.06	4.69414e-06
1550.62	2.99622e-05
1559.18	3.17338e-05
1567.74	4.1674e-05
1576.29	1.90194e-05
1584.85	4.49884e-05
1593.41	4.24281e-05
1601.97	1.81227e-05
1610.53	2.85258e-06
1619.08	9.61085e-07
1627.64	-1.60263e-08
1636.2	-1.47276e-07
1644.76	3.86944e-07
1653.31	-4.29659e-06
1661.87	5.03557e-07
1670.43	-3.99703e-08
1678.99	2.98682e-07
1687.54	5.4372e-07
1696.1	-1.48587e-06
1704.66	-8.99246e-08
1713.22	-1.15384e-07
1721.77	4.63228e-07
1730.33	6.38077e-07
1738.89	3.95931e-07
1747.45	1.15848e-06
1756.01	2.65703e-06
1764.56	2.59607e-06
1773.12	2.29369e-06
1781.68	2.04857e-06
1790.24	2.77115e-06
1798.79	8.46027e-07
1807.35	6.30385e-07
1815.91	8.8763e-07
1824.47	5.00543e-07
1833.02	7.67825e-07
1841.58	4.34053e-07
1850.14	3.69504e-07
1858.7	1.25033e-06
1867.25	1.4097e-06
1875.81	1.28472e-06
1884.37	7.79331e-07
1892.93	3.68693e-07
1901.49	2.45113e-07
1910.04	1.8376e-07
1918.6	5.13821e-07
1927.16	6.70408e-07
1935.72	3.24117e-07
1944.27	4.45249e-07
1952.83	4.22323e-07
1961.39	8.36167e-07
1969.95	7.41087e-07
1978.5	1.11348e-06
1987.06	6.39414e-07
1995.62	8.59832e-07
2004.18	9.79047e-07
2012.73	5.07673e-07
2021.29	6.91258e-07
2029.85	5.88618e-07
2038.41	2.72077e-07
2046.97	8.81281e-07
2055.52	9.71225e-07
2064.08	7.40549e-07
2072.64	1.10653e-06
2081.2	1.45167e-06
2089.75	9.33316e-07
2098.31	1.61149e-06
2106.87	1.41721e-06
2115.43	6.0933e-07
2123.98	7.90378e-07
2132.54	8.4481e-07
2141.1	3.6942e-07
2149.66	7.26176e-07
2158.21	2.16116e-07
2166.77	1.08599e-06
2175.33	1.34543e-06
2183.89	1.20827e-06
2192.45	9.43309e-07
2201	1.03286e-06
2209.56	1.36384e-06
2218.12	1.46268e-06
2226.68	1.47152e-06
2235.23	1.15514e-06
2243.79	1.27934e-06
2252.35	1.13738e-06
2260.91	8.40448e-07
2269.46	9.80536e-07
2278.02	1.37024e-06
2286.58	9.00314e-07
2295.14	1.32596e-06
2303.69	1.03417e-06
2312.25	1.12581e-06
2320.81	1.05313e-06
2329.37	9.94014e-07
2337.93	4.89864e-07
2346.48	7.83517e-07
2355.04	1.44154e-06
2363.6	8.72699e-07
2372.16	1.24135e-06
2380.71	9.74427e-07
2389.27	9.43307e-07
2397.83	1.51139e-06
2406.39	9.46561e-07
2414.94	1.40264e-06
2423.5	1.63985e-06
2432.06	1.47217e-06
2440.62	1.29056e-06
2449.17	8.41501e-07
2457.73	1.41972e-06
2466.29	1.57509e-06
2474.85	1.9404e-06
2483.41	1.78719e-06
2491.96	2.01143e-06
2500.52	1.82707e-06
2509.08	1.45513e-06
2517.64	2.30823e-06
2526.19	1.64562e-06
2534.75	1.59244e-06
2543.31	1.24803e-06
2551.87	1.16483e-06
2560.42	1.24035e-06
2568.98	1.06181e-06
2577.54	1.31172e-06
2586.1	1.44626e-06
2594.65	1.01938e-06
2603.21	1.25638e-06
2611.77	1.59085e-06
2620.33	1.14236e-06
2628.89	1.71976e-06
2637.44	1.49087e-06
2646	1.4251e-06
2654.56	8.02777e-07
2663.12	9.47529e-07
2671.67	1.23223e-06
2680.23	1.6428e-06
2688.79	9.94125e-07
2697.35	1.26769e-06
2705.9	1.42251e-06
2714.46	8.19034e-07
2723.02	1.07843e-06
2731.58	1.19111e-06
2740.13	1.37773e-06
2748.69	1.08699e-06
2757.25	7.4833e-07
2765.81	1.20944e-06
2774.37	1.60128e-06
2782.92	1.17552e-06
2791.48	1.61039e-06
2800.04	1.80924e-06
2808.6	2.42567e-06
2817.15	2.22734e-06
2825.71	3.54665e-06
2834.27	3.54875e-06
2842.83	2.26478e-06
2851.38	1.90115e-06
2859.94	1.66189e-06
2868.5	2.20648e-06
2877.06	2.20626e-06
2885.61	2.3297e-06
2894.17	1.52347e-06
2902.73	1.96382e-06
2911.29	2.27656e-06
2919.85	2.22192e-06
2928.4	2.75207e-06
2936.96	1.91141e-06
2945.52	1.7731e-06
2954.08	2.38538e-06
2962.63	3.9995e-06
2971.19	3.36461e-06
2979.75	3.56484e-06
2988.31	3.83528e-06
2996.86	3.25381e-06
3005.42	2.87295e-06
3013.98	2.86076e-06
3022.54	2.8337e-06
3031.09	1.72388e-06
3039.65	2.46409e-06
3048.21	2.67112e-06
3056.77	2.08924e-06
3065.33	2.97605e-06
3073.88	5.3477e-06
3082.44	1.65035e-05
3091	6.93252e-05
3099.56	7.55042e-05
3108.11	1.47948e-05
3116.67	4.20179e-06
3125.23	2.70742e-06
3133.79	4.72014e-06
3142.34	4.3701e-06
3150.9	4.99721e-06
3159.46	7.79672e-06
3168.02	1.20569e-05
3176.57	9.77609e-06
3185.13	2.49503e-06
3193.69	2.08923e-06
3202.25	2.75733e-06
3210.81	2.91331e-06
3219.36	2.11025e-06
3227.92	2.3124e-06
3236.48	2.24651e-06
3245.04	3.20412e-06
3253.59	2.80952e-06
3262.15	4.14645e-06
3270.71	3.23701e-06
3279.27	2.58098e-06
3287.82	2.43808e-06
3296.38	2.34078e-06
3304.94	1.30231e-06
3313.5	2.30978e-06
3322.05	2.61433e-06
3330.61	1.93975e-06
3339.17	1.84421e-06
3347.73	2.90254e-06
3356.29	3.6609e-06
3364.84	3.09585e-06
3373.4	2.02807e-06
3381.96	1.99282e-06
3390.52	2.35395e-06
3399.07	2.01944e-06
3407.63	2.00187e-06
3416.19	2.5422e-06
3424.75	2.43278e-06
3433.3	2.66792e-06
3441.86	2.33666e-06
3450.42	2.41544e-06
3458.98	1.98151e-06
3467.53	2.441e-06
3476.09	2.18339e-06
3484.65	3.33387e-06
3493.21	2.67629e-06
3501.77	2.53813e-06
3510.32	3.22371e-06
3518.88	2.27032e-06
3527.44	2.51112e-06
3536	2.90001e-06
3544.55	3.38685e-06
3553.11	3.47116e-06
3561.67	2.51429e-06
3570.23	2.54623e-06
3578.78	2.45607e-06
3587.34	2.20433e-06
3595.9	3.2718e-06
3604.46	3.44323e-06
3613.01	2.58362e-06
3621.57	3.50622e-06
3630.13	3.73144e-06
3638.69	2.52193e-06
3647.25	2.94512e-06
3655.8	2.8441e-06
3664.36	3.86283e-06
3672.92	3.18323e-06
3681.48	3.52278e-06
3690.03	2.94444e-06
3698.59	4.11101e-06
3707.15	3.2614e-06
3715.71	3.86541e-06
3724.26	3.75457e-06
3732.82	3.41251e-06
3741.38	2.65048e-06
3749.94	3.04698e-06
3758.49	3.32912e-06
3767.05	3.48427e-06
3775.61	2.82165e-06
3784.17	2.86522e-06
3792.73	3.34086e-06
3801.28	1.19232e-06
3809.84	3.22512e-06
3818.4	2.48784e-06
3826.96	3.21291e-06
3835.51	2.57904e-06
3844.07	3.14826e-06
3852.63	3.75527e-06
3861.19	4.24204e-06
3869.74	2.87746e-06
3878.3	3.5307e-06
3886.86	2.96896e-06
3895.42	2.89857e-06
3903.97	3.75525e-06
3912.53	3.68417e-06
3921.09	2.1116e-06
3929.65	3.75297e-06
3938.21	3.71411e-06
3946.76	3.31613e-06
3955.32	2.95415e-06
3963.88	3.8118e-06
3972.44	2.68952e-06
