Infrared Spectrum: Trichloroethene
Formula: C2 H Cl3
CAS: 79-01-6
State: gas
Melting point: -73 C
Boiling point: 87 C
Class: IUPAC A
Instrument: IFS66V (Bruker)
Instrument parameters: KBr Beam Splitter; MCT Detector; Multipass cell
Sampling: 1 L/min Flow
Resolution: 0.2410
Temperature: 23 C
Pressure: 101.3 Pa
Origin: NIST, Analytical Chemistry Division, 301-975-3108
cm-1	(micromol/mol)-1m-1 (base 10)
575.05	3.7879e-06
583.608	2.42323e-06
592.165	-2.81014e-06
600.723	1.0851e-06
609.281	3.83134e-06
617.838	2.45763e-05
626.396	7.85169e-05
634.954	7.18811e-05
643.511	2.79953e-05
652.069	4.5076e-06
660.626	1.66177e-06
669.184	8.70573e-07
677.742	8.69943e-08
686.299	1.20779e-06
694.857	1.45447e-07
703.415	-8.78469e-07
711.972	-1.42e-07
720.53	-3.33648e-07
729.088	1.16638e-06
737.645	1.42985e-06
746.203	1.99617e-06
754.761	2.14828e-06
763.318	1.98143e-05
771.876	8.23339e-05
780.434	9.66149e-05
788.991	0.000106308
797.549	6.22317e-05
806.106	1.9469e-05
814.664	5.21538e-06
823.222	1.22626e-05
831.779	8.91712e-05
840.337	0.000564484
848.895	0.000865342
857.452	0.000322485
866.01	4.6553e-06
874.568	3.81982e-06
883.125	2.81928e-06
891.683	5.023e-06
900.241	1.8832e-05
908.798	1.93562e-05
917.356	4.29525e-05
925.914	0.000183781
934.471	0.000588241
943.029	0.000621287
951.586	0.000200434
960.144	2.53853e-05
968.702	6.4168e-06
977.259	1.23689e-05
985.817	1.01061e-05
994.375	7.76954e-06
1002.93	4.74459e-06
1011.49	8.53953e-06
1020.05	8.16288e-06
1028.61	4.37107e-06
1037.16	2.21544e-06
1045.72	1.66237e-06
1054.28	1.17576e-06
1062.84	5.29926e-07
1071.39	6.53534e-07
1079.95	8.1187e-07
1088.51	9.48202e-07
1097.07	1.45244e-06
1105.62	2.4059e-06
1114.18	3.64934e-06
1122.74	1.36615e-06
1131.3	1.69384e-06
1139.85	7.02086e-07
1148.41	1.6022e-07
1156.97	4.54201e-07
1165.53	2.26308e-07
1174.09	2.31853e-07
1182.64	8.02384e-07
1191.2	5.78894e-07
1199.76	1.18467e-06
1208.32	2.61281e-06
1216.87	4.50862e-06
1225.43	1.04703e-05
1233.99	1.34959e-05
1242.55	3.8982e-05
1251.1	5.47565e-05
1259.66	4.50936e-05
1268.22	1.77478e-05
1276.78	4.92033e-06
1285.33	1.23766e-06
1293.89	7.27467e-07
1302.45	9.2261e-07
1311.01	1.42331e-06
1319.57	2.01498e-06
1328.12	1.98935e-06
1336.68	6.33614e-07
1345.24	3.27486e-07
1353.8	2.71722e-07
1362.35	4.63783e-08
1370.91	9.36433e-07
1379.47	1.12952e-06
1388.03	1.12404e-06
1396.58	1.15456e-06
1405.14	7.13274e-07
1413.7	1.23952e-06
1422.26	1.39398e-06
1430.81	1.40395e-06
1439.37	1.00124e-06
1447.93	-2.11405e-07
1456.49	-7.40361e-07
1465.05	-6.82851e-08
1473.6	-5.07564e-07
1482.16	6.77335e-07
1490.72	-4.4525e-07
1499.28	-1.55007e-08
1507.83	2.58558e-07
1516.39	2.05683e-07
1524.95	1.50596e-07
1533.51	9.65589e-07
1542.06	4.7877e-06
1550.62	2.99131e-05
1559.18	3.17336e-05
1567.74	4.16765e-05
1576.29	1.91585e-05
1584.85	4.49674e-05
1593.41	4.22284e-05
1601.97	1.80943e-05
1610.53	2.85236e-06
1619.08	8.14136e-07
1627.64	-3.02992e-08
1636.2	-7.59554e-08
1644.76	3.25141e-07
1653.31	-3.90876e-06
1661.87	4.39397e-07
1670.43	5.17095e-08
1678.99	2.92876e-07
1687.54	5.77112e-07
1696.1	-1.73123e-06
1704.66	-2.02751e-07
1713.22	-9.54195e-09
1721.77	3.93204e-07
1730.33	6.53176e-07
1738.89	4.33999e-07
1747.45	1.18752e-06
1756.01	2.54774e-06
1764.56	2.53782e-06
1773.12	2.17909e-06
1781.68	2.09081e-06
1790.24	2.80644e-06
1798.79	8.71335e-07
1807.35	7.05017e-07
1815.91	7.42939e-07
1824.47	5.0469e-07
1833.02	8.23018e-07
1841.58	5.39733e-07
1850.14	5.55494e-07
1858.7	1.28019e-06
1867.25	1.42498e-06
1875.81	1.33674e-06
1884.37	8.88707e-07
1892.93	2.854e-07
1901.49	2.02093e-07
1910.04	3.08886e-07
1918.6	4.64871e-07
1927.16	6.4225e-07
1935.72	4.8408e-07
1944.27	4.70597e-07
1952.83	5.52394e-07
1961.39	7.72883e-07
1969.95	7.55551e-07
1978.5	9.90311e-07
1987.06	6.18637e-07
1995.62	8.77437e-07
2004.18	9.69114e-07
2012.73	5.73794e-07
2021.29	7.00718e-07
2029.85	6.46031e-07
2038.41	4.21148e-07
2046.97	8.2508e-07
2055.52	9.105e-07
2064.08	7.19148e-07
2072.64	1.02579e-06
2081.2	1.46587e-06
2089.75	1.13931e-06
2098.31	1.58045e-06
2106.87	1.36327e-06
2115.43	5.6509e-07
2123.98	8.75742e-07
2132.54	8.22989e-07
2141.1	5.09023e-07
2149.66	7.70437e-07
2158.21	2.43447e-07
2166.77	1.07144e-06
2175.33	1.37973e-06
2183.89	1.19431e-06
2192.45	1.00038e-06
2201	1.02213e-06
2209.56	1.37062e-06
2218.12	1.427e-06
2226.68	1.36201e-06
2235.23	1.15418e-06
2243.79	1.15504e-06
2252.35	1.13875e-06
2260.91	8.66269e-07
2269.46	1.02785e-06
2278.02	1.31338e-06
2286.58	8.95614e-07
2295.14	1.23646e-06
2303.69	9.71051e-07
2312.25	1.17968e-06
2320.81	1.01762e-06
2329.37	9.95495e-07
2337.93	6.0157e-07
2346.48	7.99747e-07
2355.04	1.38013e-06
2363.6	8.80117e-07
2372.16	1.30376e-06
2380.71	1.02419e-06
2389.27	1.00076e-06
2397.83	1.40997e-06
2406.39	9.126e-07
2414.94	1.33371e-06
2423.5	1.61317e-06
2432.06	1.54278e-06
2440.62	1.30945e-06
2449.17	9.66993e-07
2457.73	1.41789e-06
2466.29	1.59964e-06
2474.85	1.98985e-06
2483.41	1.71195e-06
2491.96	1.93793e-06
2500.52	1.79638e-06
2509.08	1.52003e-06
2517.64	2.21927e-06
2526.19	1.5444e-06
2534.75	1.58127e-06
2543.31	1.20472e-06
2551.87	1.37785e-06
2560.42	1.34268e-06
2568.98	1.06166e-06
2577.54	1.28241e-06
2586.1	1.42448e-06
2594.65	1.15811e-06
2603.21	1.17937e-06
2611.77	1.53232e-06
2620.33	1.19155e-06
2628.89	1.63851e-06
2637.44	1.52503e-06
2646	1.31618e-06
2654.56	9.79756e-07
2663.12	1.04412e-06
2671.67	1.31487e-06
2680.23	1.50739e-06
2688.79	1.06853e-06
2697.35	1.36022e-06
2705.9	1.40988e-06
2714.46	9.16906e-07
2723.02	1.2506e-06
2731.58	1.27555e-06
2740.13	1.28458e-06
2748.69	1.05943e-06
2757.25	8.11986e-07
2765.81	1.37577e-06
2774.37	1.56562e-06
2782.92	1.26411e-06
2791.48	1.56883e-06
2800.04	1.84884e-06
2808.6	2.59185e-06
2817.15	2.33501e-06
2825.71	3.51414e-06
2834.27	3.55468e-06
2842.83	2.22732e-06
2851.38	2.0257e-06
2859.94	1.7175e-06
2868.5	2.05437e-06
2877.06	2.05545e-06
2885.61	2.31883e-06
2894.17	1.67511e-06
2902.73	1.88751e-06
2911.29	2.32056e-06
2919.85	2.36809e-06
2928.4	2.63064e-06
2936.96	2.12147e-06
2945.52	1.87848e-06
2954.08	2.46074e-06
2962.63	3.89419e-06
2971.19	3.23658e-06
2979.75	3.50841e-06
2988.31	3.80074e-06
2996.86	3.33403e-06
3005.42	2.99008e-06
3013.98	2.6123e-06
3022.54	2.77508e-06
3031.09	1.69936e-06
3039.65	2.3463e-06
3048.21	2.65232e-06
3056.77	2.08054e-06
3065.33	2.93793e-06
3073.88	5.4087e-06
3082.44	1.65866e-05
3091	6.92751e-05
3099.56	7.5549e-05
3108.11	1.48134e-05
3116.67	4.37927e-06
3125.23	2.85481e-06
3133.79	4.43603e-06
3142.34	4.4219e-06
3150.9	4.91127e-06
3159.46	7.8173e-06
3168.02	1.18756e-05
3176.57	9.91752e-06
3185.13	2.51572e-06
3193.69	2.10208e-06
3202.25	2.64939e-06
3210.81	2.82852e-06
3219.36	2.15308e-06
3227.92	2.31047e-06
3236.48	2.25403e-06
3245.04	3.10034e-06
3253.59	2.69281e-06
3262.15	4.05921e-06
3270.71	2.96575e-06
3279.27	2.47623e-06
3287.82	2.61269e-06
3296.38	2.40934e-06
3304.94	1.55608e-06
3313.5	2.09451e-06
3322.05	2.52677e-06
3330.61	1.9525e-06
3339.17	1.91694e-06
3347.73	2.78414e-06
3356.29	3.17492e-06
3364.84	3.03648e-06
3373.4	2.21077e-06
3381.96	2.07771e-06
3390.52	2.47476e-06
3399.07	2.07469e-06
3407.63	2.1255e-06
3416.19	2.45016e-06
3424.75	2.42887e-06
3433.3	2.60265e-06
3441.86	2.25438e-06
3450.42	2.55011e-06
3458.98	2.23997e-06
3467.53	2.15889e-06
3476.09	2.24601e-06
3484.65	2.93935e-06
3493.21	2.7578e-06
3501.77	2.72292e-06
3510.32	3.23674e-06
3518.88	2.44539e-06
3527.44	2.68034e-06
3536	2.75112e-06
3544.55	3.14506e-06
3553.11	3.39492e-06
3561.67	2.52946e-06
3570.23	2.54308e-06
3578.78	2.55007e-06
3587.34	2.31252e-06
3595.9	3.36895e-06
3604.46	3.4384e-06
3613.01	2.59543e-06
3621.57	3.23391e-06
3630.13	3.56253e-06
3638.69	2.66169e-06
3647.25	2.96753e-06
3655.8	2.77275e-06
3664.36	3.77002e-06
3672.92	3.25667e-06
3681.48	3.37758e-06
3690.03	2.90107e-06
3698.59	3.8625e-06
3707.15	3.38123e-06
3715.71	3.79307e-06
3724.26	3.7456e-06
3732.82	3.53122e-06
3741.38	2.5363e-06
3749.94	3.02154e-06
3758.49	3.17552e-06
3767.05	3.23212e-06
3775.61	2.78855e-06
3784.17	2.99425e-06
3792.73	3.50199e-06
3801.28	9.66705e-07
3809.84	3.24119e-06
3818.4	2.64442e-06
3826.96	3.13459e-06
3835.51	2.57572e-06
3844.07	2.97501e-06
3852.63	3.61961e-06
3861.19	3.9818e-06
3869.74	3.02263e-06
3878.3	3.48613e-06
3886.86	2.93184e-06
3895.42	3.06265e-06
3903.97	3.55477e-06
3912.53	3.43248e-06
3921.09	2.26736e-06
3929.65	3.58466e-06
3938.21	3.76462e-06
3946.76	3.2675e-06
3955.32	3.0541e-06
3963.88	3.76422e-06
3972.44	2.84714e-06
