Infrared Spectrum: Trichloroethene
Formula: C2 H Cl3
CAS: 79-01-6
State: gas
Melting point: -73 C
Boiling point: 87 C
Class: IUPAC A
Instrument: IFS66V (Bruker)
Instrument parameters: KBr Beam Splitter; MCT Detector; Multipass cell
Sampling: 1 L/min Flow
Resolution: 0.9640
Temperature: 23 C
Pressure: 101.3 Pa
Origin: NIST, Analytical Chemistry Division, 301-975-3108
cm-1	(micromol/mol)-1m-1 (base 10)
575.17	-9.72936e-08
583.848	1.99707e-07
592.526	-1.50047e-07
601.205	1.14664e-06
609.883	5.81446e-06
618.561	2.69939e-05
627.239	7.88841e-05
635.917	8.24476e-05
644.595	2.34573e-05
653.274	3.60974e-06
661.952	1.82681e-06
670.63	1.46263e-06
679.308	1.24591e-06
687.986	5.31729e-07
696.664	-1.40119e-07
705.343	2.05984e-07
714.021	3.06193e-07
722.699	1.98478e-07
731.377	1.07951e-06
740.055	1.8577e-06
748.734	2.06455e-06
757.412	4.59459e-06
766.09	3.67347e-05
774.768	9.45795e-05
783.446	0.000337095
792.124	9.82957e-05
800.803	4.0141e-05
809.481	1.54965e-05
818.159	5.66899e-06
826.837	2.35788e-05
835.515	0.000241316
844.194	0.000718537
852.872	0.000705375
861.55	1.84028e-05
870.228	4.30396e-06
878.906	2.56343e-06
887.584	3.0393e-06
896.263	9.80101e-06
904.941	2.36241e-05
913.619	3.47304e-05
922.297	9.50606e-05
930.975	0.000429294
939.653	0.000505652
948.332	0.000450419
957.01	6.23826e-05
965.688	6.60162e-06
974.366	7.95127e-06
983.044	1.2076e-05
991.723	1.10679e-05
1000.4	4.38328e-06
1009.08	8.17043e-06
1017.76	8.98646e-06
1026.44	6.67904e-06
1035.11	2.09216e-06
1043.79	1.34921e-06
1052.47	1.00687e-06
1061.15	8.49319e-07
1069.83	5.87138e-07
1078.5	5.24557e-07
1087.18	6.68617e-07
1095.86	9.71699e-07
1104.54	2.22687e-06
1113.22	3.22145e-06
1121.9	2.14076e-06
1130.57	1.36433e-06
1139.25	9.06887e-07
1147.93	5.78645e-07
1156.61	4.39946e-07
1165.29	3.89553e-07
1173.96	5.16862e-07
1182.64	6.69071e-07
1191.32	6.49552e-07
1200	9.27793e-07
1208.68	2.36304e-06
1217.36	4.83299e-06
1226.03	1.0732e-05
1234.71	1.53081e-05
1243.39	4.35643e-05
1252.07	5.25644e-05
1260.75	4.10595e-05
1269.42	1.72913e-05
1278.1	3.88759e-06
1286.78	7.80446e-07
1295.46	4.47827e-07
1304.14	9.88313e-07
1312.82	1.88829e-06
1321.49	2.22252e-06
1330.17	1.47386e-06
1338.85	6.57874e-07
1347.53	4.544e-07
1356.21	4.24082e-07
1364.88	7.10755e-07
1373.56	4.77489e-07
1382.24	9.51548e-07
1390.92	1.02427e-06
1399.6	7.56306e-07
1408.28	1.17728e-06
1416.95	1.22994e-06
1425.63	1.63164e-06
1434.31	9.8404e-07
1442.99	7.24772e-07
1451.67	6.0874e-07
1460.34	5.69936e-07
1469.02	6.27625e-07
1477.7	7.01508e-07
1486.38	5.08021e-07
1495.06	3.62394e-07
1503.73	5.01246e-07
1512.41	3.18825e-07
1521.09	-6.08122e-07
1529.77	9.01662e-07
1538.45	2.66615e-06
1547.13	1.57589e-05
1555.8	5.6481e-05
1564.48	5.09823e-05
1573.16	2.09948e-05
1581.84	3.53574e-05
1590.52	3.68261e-05
1599.19	3.24936e-05
1607.87	5.45541e-06
1616.55	-7.01632e-07
1625.23	4.92044e-07
1633.91	4.57438e-07
1642.59	2.89551e-07
1651.26	1.60616e-07
1659.94	1.57083e-07
1668.62	2.33412e-08
1677.3	5.34396e-07
1685.98	6.15938e-07
1694.65	5.14046e-07
1703.33	3.78037e-07
1712.01	1.50782e-07
1720.69	4.17863e-07
1729.37	3.06676e-07
1738.05	6.95814e-07
1746.72	1.11258e-06
1755.4	2.42213e-06
1764.08	2.48674e-06
1772.76	1.21264e-06
1781.44	2.18727e-06
1790.11	2.52764e-06
1798.79	9.17396e-07
1807.47	7.33723e-07
1816.15	5.28875e-07
1824.83	3.51497e-07
1833.51	6.50059e-07
1842.18	6.56636e-07
1850.86	7.76063e-07
1859.54	1.49716e-06
1868.22	1.6686e-06
1876.9	1.17081e-06
1885.57	7.74598e-07
1894.25	3.00907e-07
1902.93	2.36293e-07
1911.61	4.65009e-07
1920.29	6.16581e-07
1928.97	5.63983e-07
1937.64	6.19119e-07
1946.32	5.48515e-07
1955	7.96322e-07
1963.68	7.60137e-07
1972.36	9.33992e-07
1981.03	7.0244e-07
1989.71	5.99714e-07
1998.39	6.19039e-07
2007.07	6.60493e-07
2015.75	6.56434e-07
2024.43	7.56717e-07
2033.1	8.72708e-07
2041.78	8.24349e-07
2050.46	7.29884e-07
2059.14	7.55348e-07
2067.82	9.34924e-07
2076.49	1.12513e-06
2085.17	1.38016e-06
2093.85	1.76479e-06
2102.53	1.50583e-06
2111.21	7.79895e-07
2119.89	5.59933e-07
2128.56	7.27062e-07
2137.24	7.04164e-07
2145.92	9.79951e-07
2154.6	6.64271e-07
2163.28	1.05885e-06
2171.95	1.02556e-06
2180.63	1.08551e-06
2189.31	1.10452e-06
2197.99	1.23743e-06
2206.67	1.00307e-06
2215.35	1.41726e-06
2224.02	1.36607e-06
2232.7	1.20735e-06
2241.38	1.0742e-06
2250.06	1.05218e-06
2258.74	1.07465e-06
2267.41	1.03806e-06
2276.09	1.05086e-06
2284.77	1.11597e-06
2293.45	1.10579e-06
2302.13	1.00689e-06
2310.81	1.06594e-06
2319.48	9.33936e-07
2328.16	9.71825e-07
2336.84	9.92605e-07
2345.52	9.82004e-07
2354.2	8.90226e-07
2362.87	6.97718e-07
2371.55	9.5798e-07
2380.23	1.15545e-06
2388.91	9.44174e-07
2397.59	1.13799e-06
2406.27	1.03824e-06
2414.94	1.25e-06
2423.62	1.48431e-06
2432.3	1.63794e-06
2440.98	1.32473e-06
2449.66	1.39211e-06
2458.33	1.28462e-06
2467.01	1.61324e-06
2475.69	1.8961e-06
2484.37	2.10577e-06
2493.05	1.81964e-06
2501.73	1.55711e-06
2510.4	1.53414e-06
2519.08	1.7177e-06
2527.76	1.69022e-06
2536.44	1.53034e-06
2545.12	1.4258e-06
2553.79	1.28041e-06
2562.47	1.2309e-06
2571.15	1.31203e-06
2579.83	1.23533e-06
2588.51	1.03226e-06
2597.19	1.30086e-06
2605.86	1.37549e-06
2614.54	1.26485e-06
2623.22	1.20904e-06
2631.9	1.29109e-06
2640.58	1.32001e-06
2649.25	1.19654e-06
2657.93	1.15936e-06
2666.61	1.44675e-06
2675.29	1.42942e-06
2683.97	1.30548e-06
2692.65	1.32868e-06
2701.32	1.12267e-06
2710	1.44435e-06
2718.68	1.58964e-06
2727.36	1.38821e-06
2736.04	1.31849e-06
2744.71	1.23161e-06
2753.39	1.55335e-06
2762.07	1.53826e-06
2770.75	1.66057e-06
2779.43	1.37995e-06
2788.11	1.51737e-06
2796.78	1.8071e-06
2805.46	2.27869e-06
2814.14	2.49698e-06
2822.82	2.94016e-06
2831.5	2.8006e-06
2840.17	2.61522e-06
2848.85	1.72594e-06
2857.53	1.74376e-06
2866.21	1.58676e-06
2874.89	1.91887e-06
2883.57	1.65691e-06
2892.24	2.01032e-06
2900.92	2.18232e-06
2909.6	2.10255e-06
2918.28	2.03326e-06
2926.96	2.14285e-06
2935.63	2.64902e-06
2944.31	2.826e-06
2952.99	2.5817e-06
2961.67	1.74687e-06
2970.35	3.14214e-06
2979.03	3.60766e-06
2987.7	3.73791e-06
2996.38	3.16903e-06
3005.06	2.87395e-06
3013.74	2.543e-06
3022.42	2.3643e-06
3031.09	2.01033e-06
3039.77	2.22531e-06
3048.45	2.3563e-06
3057.13	2.359e-06
3065.81	2.923e-06
3074.49	5.73276e-06
3083.16	1.98078e-05
3091.84	6.73746e-05
3100.52	7.88734e-05
3109.2	1.22362e-05
3117.88	4.33262e-06
3126.55	3.76205e-06
3135.23	4.31325e-06
3143.91	4.83923e-06
3152.59	5.08761e-06
3161.27	8.93945e-06
3169.95	1.09943e-05
3178.62	8.98694e-06
3187.3	2.58572e-06
3195.98	2.15824e-06
3204.66	2.86552e-06
3213.34	2.19428e-06
3222.01	2.82268e-06
3230.69	2.91433e-06
3239.37	2.87695e-06
3248.05	2.50516e-06
3256.73	2.91116e-06
3265.41	2.9904e-06
3274.08	3.07303e-06
3282.76	2.4144e-06
3291.44	2.33162e-06
3300.12	2.53719e-06
3308.8	2.60657e-06
3317.47	2.63323e-06
3326.15	2.43688e-06
3334.83	2.07197e-06
3343.51	2.47063e-06
3352.19	1.96546e-06
3360.86	2.74178e-06
3369.54	2.4171e-06
3378.22	2.03144e-06
3386.9	2.62092e-06
3395.58	2.829e-06
3404.26	2.21849e-06
3412.93	2.3259e-06
3421.61	2.29911e-06
3430.29	2.42943e-06
3438.97	2.73797e-06
3447.65	2.25893e-06
3456.32	2.54338e-06
3465	2.49574e-06
3473.68	2.39038e-06
3482.36	2.651e-06
3491.04	2.43014e-06
3499.72	2.64613e-06
3508.39	2.50771e-06
3517.07	2.60655e-06
3525.75	2.75914e-06
3534.43	2.87466e-06
3543.11	2.36864e-06
3551.78	2.34549e-06
3560.46	2.3976e-06
3569.14	2.88568e-06
3577.82	2.42825e-06
3586.5	2.78589e-06
3595.18	2.53347e-06
3603.85	2.60384e-06
3612.53	2.59873e-06
3621.21	2.81894e-06
3629.89	2.40433e-06
3638.57	2.92078e-06
3647.24	2.67154e-06
3655.92	2.53153e-06
3664.6	3.33972e-06
3673.28	3.10716e-06
3681.96	3.03142e-06
3690.64	2.90791e-06
3699.31	3.36112e-06
3707.99	3.26767e-06
3716.67	3.8132e-06
3725.35	4.06089e-06
3734.03	3.54924e-06
3742.7	3.41017e-06
3751.38	2.69918e-06
3760.06	2.88508e-06
3768.74	3.34054e-06
3777.42	2.97706e-06
3786.1	3.35992e-06
3794.77	3.32607e-06
3803.45	3.05929e-06
3812.13	3.08884e-06
3820.81	2.85133e-06
3829.49	3.25691e-06
3838.16	1.87104e-06
3846.84	3.07536e-06
3855.52	2.88611e-06
3864.2	3.33932e-06
3872.88	3.48867e-06
3881.56	3.26851e-06
3890.23	3.31272e-06
3898.91	2.89476e-06
3907.59	3.23302e-06
3916.27	3.06478e-06
3924.95	2.99925e-06
3933.62	3.45488e-06
3942.3	3.88958e-06
3950.98	3.88132e-06
3959.66	3.38586e-06
3968.34	3.33144e-06
