Infrared Spectrum: Trichloroethylene
Formula: C 2 H Cl 3
CAS: 79-01-6
State: liquid
Instrument: Bruker Tensor 27 FTIR
Resolution: 0.4821395
Origin: Pacific Northwest National Laboratory Under IARPA Contract
1/cm	dispersion index
7797.62	1.45941
7779.06	1.45941
7760.5	1.45941
7741.94	1.45941
7723.38	1.4594
7704.81	1.4594
7686.25	1.4594
7667.69	1.4594
7649.13	1.4594
7630.57	1.4594
7612.01	1.45939
7593.44	1.45939
7574.88	1.45938
7556.32	1.45938
7537.76	1.45938
7519.2	1.45938
7500.64	1.45937
7482.07	1.45937
7463.51	1.45937
7444.95	1.45936
7426.39	1.45936
7407.83	1.45936
7389.26	1.45935
7370.7	1.45935
7352.14	1.45934
7333.58	1.45934
7315.02	1.45933
7296.46	1.45933
7277.89	1.45933
7259.33	1.45932
7240.77	1.45932
7222.21	1.45931
7203.65	1.45931
7185.09	1.4593
7166.52	1.4593
7147.96	1.45929
7129.4	1.45929
7110.84	1.45928
7092.28	1.45927
7073.71	1.45927
7055.15	1.45926
7036.59	1.45925
7018.03	1.45924
6999.47	1.45923
6980.91	1.45921
6962.34	1.45919
6943.78	1.45912
6925.22	1.45935
6906.66	1.45931
6888.1	1.45927
6869.54	1.45924
6850.97	1.45923
6832.41	1.45922
6813.85	1.45922
6795.29	1.45921
6776.73	1.4592
6758.16	1.45919
6739.6	1.45918
6721.04	1.45917
6702.48	1.45916
6683.92	1.45915
6665.36	1.45914
6646.79	1.45914
6628.23	1.45913
6609.67	1.45912
6591.11	1.45911
6572.55	1.4591
6553.99	1.45909
6535.42	1.45908
6516.86	1.45907
6498.3	1.45906
6479.74	1.45904
6461.18	1.45904
6442.61	1.45902
6424.05	1.45901
6405.49	1.459
6386.93	1.45898
6368.37	1.45897
6349.81	1.45896
6331.24	1.45894
6312.68	1.45892
6294.12	1.45891
6275.56	1.45888
6257	1.4589
6238.44	1.45886
6219.87	1.45888
6201.31	1.45886
6182.75	1.45883
6164.19	1.4588
6145.63	1.45877
6127.06	1.45874
6108.5	1.4587
6089.94	1.45865
6071.38	1.45855
6052.82	1.4589
6034.26	1.45887
6015.69	1.45875
5997.13	1.45869
5978.57	1.45864
5960.01	1.45859
5941.45	1.45852
5922.89	1.4585
5904.32	1.45849
5885.76	1.45856
5867.2	1.45842
5848.64	1.45848
5830.08	1.45837
5811.51	1.4585
5792.95	1.45839
5774.39	1.45831
5755.83	1.45821
5737.27	1.45833
5718.71	1.45823
5700.14	1.45816
5681.58	1.45809
5663.02	1.45804
5644.46	1.45794
5625.9	1.45788
5607.34	1.45776
5588.77	1.45763
5570.21	1.45747
5551.65	1.45728
5533.09	1.457
5514.53	1.45665
5495.96	1.45585
5477.4	1.45615
5458.84	1.45404
5440.28	1.4604
5421.72	1.46283
5403.16	1.46042
5384.59	1.45954
5366.03	1.45905
5347.47	1.45876
5328.91	1.45845
5310.35	1.45828
5291.79	1.45853
5273.22	1.45825
5254.66	1.45806
5236.1	1.45794
5217.54	1.45779
5198.98	1.45765
5180.41	1.45751
5161.85	1.45729
5143.29	1.45727
5124.73	1.45739
5106.17	1.45722
5087.61	1.45704
5069.04	1.45686
5050.48	1.4567
5031.92	1.45654
5013.36	1.45633
4994.8	1.45621
4976.24	1.45609
4957.67	1.45581
4939.11	1.45573
4920.55	1.45547
4901.99	1.45523
4883.43	1.45491
4864.86	1.45461
4846.3	1.45415
4827.74	1.4541
4809.18	1.45355
4790.62	1.45313
4772.06	1.45271
4753.49	1.45172
4734.93	1.45064
4716.37	1.44827
4697.81	1.43854
4679.25	1.45466
4660.69	1.45787
4642.12	1.45372
4623.56	1.45168
4605	1.45009
4586.44	1.4485
4567.88	1.44632
4549.31	1.4439
4530.75	1.43272
4512.19	1.45133
4493.63	1.44477
4475.07	1.43963
4456.51	1.43465
4437.94	1.42869
4419.38	1.41812
4400.82	1.40354
4382.26	1.3595
4363.7	1.63679
4345.14	1.47109
4326.57	1.2749
4308.01	1.57508
4289.45	1.53481
4270.89	1.54202
4252.33	1.50899
4233.76	1.48778
4215.2	1.37734
4196.64	1.5099
4178.08	1.49631
4159.52	1.48893
4140.96	1.47985
4122.39	1.52868
4103.83	1.49265
4085.27	1.99842e-05
4066.71	1.77131e-05
4048.15	1.14393e-05
4029.58	2.09319e-05
4011.02	2.33926e-05
3992.46	2.29059e-05
3973.9	2.30955e-05
3955.34	2.1878e-05
3936.78	1.97417e-05
3918.21	1.38727e-05
3899.65	1.46035e-05
3881.09	2.0283e-05
3862.53	2.26344e-05
3843.97	3.21817e-05
3825.41	3.16404e-05
3806.84	2.01738e-05
3788.28	1.87411e-05
3769.72	1.90928e-05
3751.16	1.793e-05
3732.6	1.7416e-05
3714.03	1.69839e-05
3695.47	1.97691e-05
3676.91	1.64153e-05
3658.35	1.53873e-05
3639.79	1.64699e-05
3621.23	1.66851e-05
3602.66	2.1878e-05
3584.1	1.65502e-05
3565.54	1.54966e-05
3546.98	1.48733e-05
3528.42	1.41442e-05
3509.86	1.42517e-05
3491.29	1.35755e-05
3472.73	1.31964e-05
3454.17	1.36302e-05
3435.61	1.18713e-05
3417.05	1.1412e-05
3398.48	1.01962e-05
3379.92	1.06555e-05
3361.36	1.06555e-05
3342.8	1.26295e-05
3324.24	1.2872e-05
3305.68	1.52524e-05
3287.11	1.87411e-05
3268.55	2.1878e-05
3249.99	6.59856e-05
3231.43	0.000816708
3212.87	0.000142517
3194.31	4.13755e-05
3175.74	3.13706e-05
3157.18	3.48866e-05
3138.62	5.21932e-05
3120.06	3.29928e-05
3101.5	1.86062e-05
3082.93	1.65229e-05
3064.37	1.60089e-05
3045.81	1.45762e-05
3027.25	1.10602e-05
3008.69	1.19806e-05
2990.13	1.54146e-05
2971.56	2.55288e-05
2953	3.00182e-05
2934.44	1.90109e-05
2915.88	1.73886e-05
2897.32	1.62531e-05
2878.76	1.57118e-05
2860.19	1.55222e-05
2841.63	1.81724e-05
2823.07	2.01208e-05
2804.51	1.74706e-05
2785.95	1.73613e-05
2767.38	2.11744e-05
2748.82	1.83893e-05
2730.26	1.49553e-05
2711.7	1.03037e-05
2693.14	1.17091e-05
2674.58	1.0466e-05
2656.01	1.26568e-05
2637.45	1.42244e-05
2618.89	1.43867e-05
2600.33	2.09849e-05
2581.77	3.19119e-05
2563.21	0.000132241
2544.64	4.05644e-05
2526.08	0.000179026
2507.52	5.67901e-05
2488.96	2.2771e-05
2470.4	1.60089e-05
2451.83	1.56588e-05
2433.27	2.02557e-05
2414.71	2.09046e-05
2396.15	7.65319e-05
2377.59	0.000151443
2359.03	0.00124129
2340.46	0.000263943
2321.9	2.9207e-05
2303.34	1.4414e-05
2284.78	1.12771e-05
2266.22	2.03906e-05
2247.66	4.24581e-05
2229.09	0.000149819
2210.53	0.000411059
2191.97	0.000139543
2173.41	0.000111688
2154.85	0.00021851
2136.28	0.000225542
2117.72	0.000237171
2099.16	6.00363e-05
2080.6	6.65269e-05
2062.04	0.000226081
2043.48	0.00013684
2024.91	3.48866e-05
2006.35	5.89537e-05
1987.79	4.13755e-05
1969.23	0.000127103
1950.67	4.59741e-05
1932.11	0.000133054
1913.54	4.65137e-05
1894.98	5.35457e-05
1876.42	8.16701e-05
1857.86	0.000121425
1839.3	0.000154688
1820.73	0.000348859
1802.17	0.000508415
1783.61	0.00400241
1765.05	0.00367789
1746.49	0.0204718
1727.93	0.00255559
1709.36	0.000332633
1690.8	0.000135487
1672.24	9.95198e-05
1653.68	0.000160096
1635.12	0.000138732
1616.56	0.000730169
1597.99	0.00058684
1579.43	5.35457e-05
1560.87	1.0384e-05
1542.31	6.57158e-05
1523.75	1.69839e-05
1505.18	2.10395e-05
1486.62	4.75963e-05
1468.06	7.81558e-05
1449.5	0.000657153
1430.94	0.000551684
1412.38	0.000263131
1393.81	6.78794e-05
1375.25	4.27279e-05
1356.69	6.97714e-05
1338.13	1.81998e-05
1319.57	5.48981e-05
1301.01	0.000191466
1282.44	0.000194441
1263.88	3.24515e-05
1245.32	0.000559797
1226.76	0.000182542
1208.2	9.65451e-05
1189.63	5.32759e-05
1171.07	4.67852e-05
1152.51	3.0288e-05
1133.95	0.000816708
1115.39	0.000316407
1096.83	0.00107632
1078.26	0.00100872
1059.7	0.000148197
1041.14	0.000635518
1022.58	0.000359677
1004.02	0.00239874
985.455	0.0275842
966.894	0.00600362
948.332	0.000354267
929.77	0.000217968
911.208	0.000708535
892.647	0.000302885
874.085	0.000115204
855.523	0.00297476
836.961	0.00373198
818.399	0.0203366
799.838	0.00259616
781.276	0.000370494
762.714	0.000805891
744.152	0.000519231
725.591	0.00114393
707.029	0.0170914
688.467	0.0130619
669.905	0.273138
651.344	0.0870795
632.782	0.034345
614.22	0.167128
595.658	0.170102
577.096	0.0195794
558.535	0.00163342
539.973	0.00202825
521.411	0.0164153
502.849	0.00713944
484.288	0.00359676
465.726	0.000239334
447.164	0.00109255
428.602	0.0905951
410.041	0.00400241
