Infrared Spectrum: 1,1,2-Trichloroethane
Formula: Cl C H2 C H Cl2
CAS: 79-00-5
State: gas
Melting point: -36.5 C
Boiling point: 113.77 C
Class: IUPAC A
Instrument: IFS66V (Bruker)
Instrument parameters: KBr Beam Splitter; MCT Detector; Multipass cell
Sampling: 1 L/min Flow
Resolution: 0.1250
Temperature: 23 C
Pressure: 101.3 Pa
Origin: NIST, Analytical Chemistry Division, 301-975-3108
cm-1	(micromol/mol)-1m-1 (base 10)
575.05	-2.68027e-06
583.608	8.84062e-07
592.165	1.83604e-06
600.723	7.88072e-07
609.281	8.4778e-07
617.838	-2.65732e-06
626.396	6.21218e-08
634.954	2.44969e-06
643.511	3.11879e-06
652.069	1.35642e-05
660.626	5.02398e-05
669.184	0.000150875
677.742	0.000160018
686.299	8.39392e-05
694.857	1.94568e-05
703.415	1.46637e-05
711.972	2.72154e-05
720.53	5.37486e-05
729.088	0.000256094
737.645	0.000796606
746.203	0.000836853
754.761	0.000149182
763.318	2.60854e-05
771.876	3.57735e-05
780.434	7.61967e-05
788.991	0.000102102
797.549	9.9151e-05
806.106	2.01245e-05
814.664	1.52732e-06
823.222	3.27148e-07
831.779	5.14444e-07
840.337	2.3081e-06
848.895	2.8285e-06
857.452	1.27043e-06
866.01	-2.47517e-07
874.568	4.98243e-07
883.125	9.96944e-07
891.683	2.89084e-06
900.241	5.71338e-06
908.798	7.07885e-06
917.356	2.40363e-05
925.914	7.83562e-05
934.471	0.000139693
943.029	0.000151699
951.586	4.75215e-05
960.144	1.05299e-05
968.702	4.56124e-06
977.259	3.90136e-06
985.817	1.38537e-06
994.375	1.75437e-06
1002.93	2.29777e-06
1011.49	2.08413e-06
1020.05	2.34479e-06
1028.61	3.4244e-06
1037.16	8.05719e-06
1045.72	1.60568e-05
1054.28	1.64765e-05
1062.84	1.19782e-05
1071.39	6.86636e-06
1079.95	2.12369e-06
1088.51	1.30696e-06
1097.07	7.36721e-07
1105.62	1.56942e-07
1114.18	1.49128e-07
1122.74	9.52427e-08
1131.3	5.23114e-07
1139.85	1.93227e-06
1148.41	7.08645e-06
1156.97	1.80836e-05
1165.53	2.04354e-05
1174.09	6.34409e-06
1182.64	3.42587e-06
1191.2	9.5151e-06
1199.76	6.04364e-05
1208.32	8.65436e-05
1216.87	0.000101293
1225.43	1.39966e-05
1233.99	9.78742e-06
1242.55	1.57947e-05
1251.1	2.78685e-05
1259.66	9.55339e-05
1268.22	9.18381e-05
1276.78	3.41885e-05
1285.33	6.12674e-06
1293.89	8.17068e-06
1302.45	3.217e-05
1311.01	3.48874e-05
1319.57	1.73487e-05
1328.12	5.62229e-06
1336.68	4.37393e-06
1345.24	4.37403e-06
1353.8	3.44147e-06
1362.35	2.31284e-06
1370.91	2.41543e-07
1379.47	6.09505e-07
1388.03	-3.6819e-07
1396.58	7.00474e-07
1405.14	1.73898e-07
1413.7	1.99172e-06
1422.26	1.12386e-05
1430.81	4.29472e-05
1439.37	3.45524e-05
1447.93	2.86506e-05
1456.49	2.74487e-06
1465.05	2.54123e-07
1473.6	-9.02187e-08
1482.16	9.41435e-07
1490.72	-1.37299e-07
1499.28	1.18319e-07
1507.83	-3.56377e-07
1516.39	-2.61498e-07
1524.95	3.55447e-08
1533.51	-1.66182e-08
1542.06	-1.42311e-06
1550.62	6.58853e-08
1559.18	-1.75576e-07
1567.74	1.59704e-07
1576.29	-2.71616e-06
1584.85	2.44726e-08
1593.41	3.05596e-07
1601.97	1.73078e-07
1610.53	1.39167e-07
1619.08	-5.48734e-07
1627.64	-9.18803e-08
1636.2	-3.28428e-07
1644.76	-9.97456e-08
1653.31	-5.52407e-06
1661.87	-4.29857e-07
1670.43	-1.93368e-07
1678.99	7.66409e-08
1687.54	2.73931e-07
1696.1	-2.01163e-06
1704.66	-8.61696e-08
1713.22	-1.51767e-07
1721.77	-2.26563e-07
1730.33	-3.12128e-07
1738.89	-5.2587e-07
1747.45	-5.21228e-07
1756.01	-5.24678e-07
1764.56	2.01579e-08
1773.12	-2.59232e-08
1781.68	7.34131e-08
1790.24	3.23155e-07
1798.79	-1.52538e-07
1807.35	6.49224e-07
1815.91	1.68893e-07
1824.47	2.28041e-07
1833.02	3.35957e-08
1841.58	-4.11787e-07
1850.14	-4.60698e-07
1858.7	-6.30754e-07
1867.25	-5.53245e-07
1875.81	-2.59878e-07
1884.37	1.20708e-08
1892.93	-3.78676e-07
1901.49	-2.06593e-07
1910.04	-3.56851e-07
1918.6	-6.40042e-07
1927.16	-4.0449e-07
1935.72	-2.58843e-07
1944.27	-4.75842e-07
1952.83	-4.74954e-08
1961.39	-3.5316e-07
1969.95	-3.23235e-07
1978.5	2.69009e-07
1987.06	1.88787e-07
1995.62	5.00195e-07
2004.18	6.83012e-07
2012.73	3.02705e-07
2021.29	-8.28473e-08
2029.85	-6.26892e-07
2038.41	3.56584e-08
2046.97	7.97098e-07
2055.52	-3.37539e-08
2064.08	1.41456e-07
2072.64	1.36072e-07
2081.2	2.65397e-07
2089.75	4.06895e-07
2098.31	1.05896e-06
2106.87	8.05555e-07
2115.43	-1.99029e-07
2123.98	-7.09673e-07
2132.54	-1.28978e-07
2141.1	-4.96979e-07
2149.66	2.72912e-07
2158.21	-1.18205e-06
2166.77	2.44294e-07
2175.33	-1.93863e-07
2183.89	-2.69715e-07
2192.45	-4.18733e-07
2201	1.7572e-07
2209.56	-6.32096e-10
2218.12	3.10953e-07
2226.68	-4.22372e-07
2235.23	3.36257e-07
2243.79	1.31963e-07
2252.35	-3.2145e-08
2260.91	1.46125e-07
2269.46	6.846e-08
2278.02	4.58759e-07
2286.58	-1.48067e-07
2295.14	8.14039e-08
2303.69	-4.15219e-07
2312.25	-4.54568e-07
2320.81	-5.42339e-07
2329.37	-2.5506e-07
2337.93	-4.40835e-07
2346.48	6.44182e-07
2355.04	1.73956e-06
2363.6	1.91151e-06
2372.16	1.74383e-06
2380.71	1.9363e-08
2389.27	1.92964e-07
2397.83	9.63638e-07
2406.39	2.58467e-06
2414.94	5.08078e-07
2423.5	1.18768e-07
2432.06	3.54866e-07
2440.62	1.11529e-06
2449.17	8.34874e-07
2457.73	2.11606e-06
2466.29	3.17075e-06
2474.85	1.50101e-06
2483.41	1.32994e-06
2491.96	5.6917e-07
2500.52	2.51018e-07
2509.08	1.38424e-06
2517.64	1.43434e-06
2526.19	1.3392e-06
2534.75	3.44992e-07
2543.31	-3.52366e-07
2551.87	-4.27051e-08
2560.42	-1.25419e-09
2568.98	1.61573e-07
2577.54	-1.42309e-07
2586.1	3.73222e-07
2594.65	5.19452e-07
2603.21	3.7201e-07
2611.77	-4.76198e-07
2620.33	1.8763e-07
2628.89	-5.44626e-07
2637.44	-6.91905e-07
2646	-1.92644e-07
2654.56	1.92444e-07
2663.12	7.671e-08
2671.67	-4.55132e-07
2680.23	-4.12417e-08
2688.79	4.65858e-07
2697.35	8.71945e-07
2705.9	8.24538e-07
2714.46	-6.95924e-07
2723.02	9.27811e-07
2731.58	-2.4031e-07
2740.13	7.60997e-07
2748.69	5.58795e-07
2757.25	-7.17387e-07
2765.81	3.91776e-07
2774.37	1.70107e-07
2782.92	4.9218e-07
2791.48	3.55411e-07
2800.04	6.76679e-08
2808.6	1.09902e-06
2817.15	1.4744e-07
2825.71	-1.04233e-06
2834.27	1.01799e-07
2842.83	1.75159e-06
2851.38	5.61111e-06
2859.94	3.58186e-06
2868.5	2.80602e-06
2877.06	2.46414e-06
2885.61	9.83918e-07
2894.17	1.36223e-06
2902.73	8.16311e-07
2911.29	1.29282e-06
2919.85	1.39626e-06
2928.4	1.51224e-06
2936.96	3.18463e-06
2945.52	2.18523e-06
2954.08	4.15264e-06
2962.63	1.80814e-05
2971.19	4.30773e-05
2979.75	4.9376e-05
2988.31	1.17082e-05
2996.86	7.29433e-06
3005.42	6.58408e-06
3013.98	9.39509e-06
3022.54	5.26567e-06
3031.09	4.82026e-06
3039.65	9.07901e-07
3048.21	1.5523e-06
3056.77	-1.36362e-07
3065.33	5.80114e-07
3073.88	-3.12328e-07
3082.44	2.70261e-07
3091	5.75629e-07
3099.56	-7.47481e-07
3108.11	-6.01227e-07
3116.67	1.08668e-06
3125.23	-5.57299e-08
3133.79	-3.02101e-07
3142.34	1.25998e-06
3150.9	1.32004e-06
3159.46	4.93825e-07
3168.02	-6.7552e-07
3176.57	-3.24049e-07
3185.13	2.22955e-07
3193.69	-3.27252e-07
3202.25	1.59538e-07
3210.81	-1.0787e-07
3219.36	-1.94389e-07
3227.92	2.78155e-07
3236.48	-3.23479e-07
3245.04	6.75671e-07
3253.59	-1.24539e-07
3262.15	-3.39235e-07
3270.71	1.10377e-07
3279.27	1.25432e-07
3287.82	-1.29929e-06
3296.38	5.68032e-07
3304.94	-1.54235e-07
3313.5	-5.83603e-07
3322.05	-7.04858e-07
3330.61	-1.19076e-06
3339.17	4.65935e-07
3347.73	2.05806e-07
3356.29	4.95417e-07
3364.84	-2.68463e-07
3373.4	-1.39256e-06
3381.96	1.9068e-06
3390.52	-1.00055e-07
3399.07	1.06359e-06
3407.63	2.3091e-07
3416.19	-1.10306e-06
3424.75	2.49846e-08
3433.3	7.38427e-07
3441.86	-7.38975e-07
3450.42	-2.83713e-07
3458.98	-1.31801e-06
3467.53	-3.3873e-08
3476.09	6.40364e-07
3484.65	-1.84532e-07
3493.21	-1.06461e-06
3501.77	-8.98175e-07
3510.32	4.15345e-07
3518.88	1.38277e-06
3527.44	-7.15138e-07
3536	-4.41886e-07
3544.55	-4.05733e-07
3553.11	5.36572e-08
3561.67	-4.33512e-07
3570.23	-4.45241e-07
3578.78	3.17812e-07
3587.34	-1.06262e-07
3595.9	8.18696e-07
3604.46	-4.04518e-07
3613.01	7.44445e-08
3621.57	-7.06244e-07
3630.13	2.64203e-07
3638.69	7.00855e-07
3647.25	6.24347e-08
3655.8	1.4577e-07
3664.36	1.48738e-07
3672.92	-4.47224e-07
3681.48	-5.58515e-07
3690.03	6.9798e-07
3698.59	6.50359e-07
3707.15	1.1958e-08
3715.71	-7.12118e-07
3724.26	6.84484e-07
3732.82	2.76686e-07
3741.38	7.46698e-07
3749.94	8.05669e-07
3758.49	5.88965e-07
3767.05	6.99535e-07
3775.61	3.73143e-07
3784.17	5.38873e-07
3792.73	1.18572e-06
3801.28	-1.57537e-06
3809.84	1.4763e-06
3818.4	9.19826e-07
3826.96	3.93357e-07
3835.51	1.0694e-06
3844.07	7.89374e-08
3852.63	-3.09033e-07
3861.19	-8.19837e-07
3869.74	-3.95946e-07
3878.3	1.57312e-07
3886.86	-4.9213e-07
3895.42	1.35213e-07
3903.97	6.91322e-07
3912.53	-6.19092e-07
3921.09	-5.54281e-07
3929.65	-1.19969e-06
3938.21	3.85784e-07
3946.76	-1.51791e-07
3955.32	4.81475e-07
3963.88	-7.58433e-08
3972.44	5.72133e-08
