Infrared Spectrum: 1,1,2-Trichloroethane
Formula: Cl C H2 C H Cl2
CAS: 79-00-5
State: gas
Melting point: -36.5 C
Boiling point: 113.77 C
Class: IUPAC A
Instrument: IFS66V (Bruker)
Instrument parameters: KBr Beam Splitter; MCT Detector; Multipass cell
Sampling: 1 L/min Flow
Resolution: 0.9640
Temperature: 23 C
Pressure: 101.3 Pa
Origin: NIST, Analytical Chemistry Division, 301-975-3108
cm-1	(micromol/mol)-1m-1 (base 10)
575.17	1.89164e-06
583.848	-6.64175e-07
592.526	-1.19902e-06
601.205	-1.80964e-06
609.883	5.24789e-07
618.561	-1.3113e-07
627.239	-3.56038e-07
635.917	3.35273e-07
644.595	6.14238e-06
653.274	1.42224e-05
661.952	5.97291e-05
670.63	0.00016176
679.308	0.000193363
687.986	6.49644e-05
696.665	1.4013e-05
705.343	1.76415e-05
714.021	2.86815e-05
722.699	7.54554e-05
731.377	0.000395851
740.055	0.000844395
748.734	0.000711075
757.412	5.08305e-05
766.09	2.63424e-05
774.768	4.28663e-05
783.446	9.08769e-05
792.125	7.30422e-05
800.803	5.67016e-05
809.481	7.86842e-06
818.159	1.20311e-06
826.837	2.18518e-06
835.515	2.19928e-06
844.194	2.4288e-06
852.872	1.81861e-06
861.55	7.99981e-07
870.228	4.87823e-07
878.906	1.44241e-06
887.584	2.70688e-06
896.263	4.4471e-06
904.941	6.8749e-06
913.619	1.5039e-05
922.297	4.80882e-05
930.975	0.000139353
939.654	0.0001552
948.332	7.49615e-05
957.01	1.84144e-05
965.688	5.38091e-06
974.366	3.84773e-06
983.044	1.78388e-06
991.723	2.26896e-06
1000.4	2.62353e-06
1009.08	2.13973e-06
1017.76	1.29748e-06
1026.44	2.79272e-06
1035.11	6.95691e-06
1043.79	1.38382e-05
1052.47	1.77789e-05
1061.15	1.44321e-05
1069.83	8.17214e-06
1078.5	3.17844e-06
1087.18	4.83032e-07
1095.86	5.83492e-07
1104.54	3.65788e-07
1113.22	2.67117e-07
1121.9	6.74687e-07
1130.57	5.83722e-07
1139.25	1.47425e-06
1147.93	7.12819e-06
1156.61	1.85749e-05
1165.29	2.00579e-05
1173.96	6.81149e-06
1182.64	3.17508e-06
1191.32	9.25422e-06
1200	6.38936e-05
1208.68	0.000113784
1217.36	9.119e-05
1226.03	1.29059e-05
1234.71	1.02156e-05
1243.39	1.47378e-05
1252.07	3.38687e-05
1260.75	9.7488e-05
1269.42	8.76508e-05
1278.1	2.62577e-05
1286.78	4.61189e-06
1295.46	1.09507e-05
1304.14	3.47579e-05
1312.82	3.61131e-05
1321.49	1.11176e-05
1330.17	5.03016e-06
1338.85	4.36534e-06
1347.53	4.26868e-06
1356.21	3.57947e-06
1364.88	1.29847e-06
1373.56	2.39844e-07
1382.24	5.72014e-07
1390.92	5.34043e-08
1399.6	3.62877e-07
1408.28	1.18513e-06
1416.95	3.40977e-06
1425.63	1.82724e-05
1434.31	4.40832e-05
1442.99	5.08926e-05
1451.67	1.62231e-05
1460.34	2.30659e-06
1469.02	1.51488e-06
1477.7	1.26305e-06
1486.38	1.04184e-06
1495.06	3.04669e-07
1503.74	1.28627e-07
1512.41	-3.24783e-07
1521.09	-1.27789e-06
1529.77	1.11773e-07
1538.45	1.53767e-07
1547.13	2.83079e-08
1555.8	2.52527e-07
1564.48	-2.15231e-08
1573.16	-3.70521e-07
1581.84	-5.47695e-08
1590.52	-1.91071e-07
1599.2	-1.02727e-08
1607.87	3.04233e-07
1616.55	-1.83745e-06
1625.23	1.94835e-07
1633.91	-3.19017e-07
1642.59	-2.98845e-07
1651.26	-4.11088e-07
1659.94	-9.13874e-08
1668.62	-1.7209e-07
1677.3	-2.04337e-07
1685.98	-4.25889e-07
1694.66	-3.20633e-07
1703.33	9.06261e-08
1712.01	-3.38549e-08
1720.69	-5.3348e-08
1729.37	4.02213e-08
1738.05	8.54912e-08
1746.72	-3.43673e-07
1755.4	-4.75541e-07
1764.08	-7.87964e-08
1772.76	-1.57334e-06
1781.44	1.68514e-07
1790.12	6.50576e-08
1798.79	1.98062e-07
1807.47	1.2126e-07
1816.15	1.2329e-07
1824.83	1.91452e-07
1833.51	2.73058e-07
1842.18	-2.57908e-07
1850.86	-3.16323e-07
1859.54	-3.06998e-07
1868.22	-4.64586e-07
1876.9	-2.18606e-07
1885.58	-3.5002e-07
1894.25	-1.74726e-07
1902.93	-3.41711e-07
1911.61	-1.24881e-07
1920.29	-1.91654e-07
1928.97	-8.29591e-08
1937.64	-1.32449e-08
1946.32	-7.82271e-08
1955	-1.16095e-07
1963.68	-4.23214e-07
1972.36	3.49544e-08
1981.04	4.88168e-07
1989.71	5.04394e-07
1998.39	-1.01803e-07
2007.07	-9.66606e-09
2015.75	-1.57155e-07
2024.43	-4.05096e-08
2033.1	-2.13667e-07
2041.78	5.90614e-08
2050.46	-3.78275e-08
2059.14	2.20181e-07
2067.82	-1.50554e-07
2076.5	1.43003e-07
2085.17	2.14129e-07
2093.85	5.66154e-07
2102.53	8.42592e-07
2111.21	1.94356e-07
2119.89	-7.61962e-07
2128.56	1.34262e-07
2137.24	6.88602e-08
2145.92	-2.1853e-07
2154.6	-1.00418e-06
2163.28	-1.94795e-07
2171.96	1.87902e-07
2180.63	3.21608e-07
2189.31	3.74948e-07
2197.99	7.39482e-07
2206.67	4.71663e-07
2215.35	-8.99095e-08
2224.02	-1.75818e-07
2232.7	-1.99897e-08
2241.38	-1.78244e-07
2250.06	1.05671e-07
2258.74	2.50191e-07
2267.42	1.76471e-07
2276.09	-4.95108e-08
2284.77	-1.09127e-07
2293.45	-2.30095e-07
2302.13	1.01755e-07
2310.81	-7.02286e-07
2319.48	-1.12412e-06
2328.16	-1.18334e-06
2336.84	6.6696e-07
2345.52	-8.30984e-07
2354.2	-1.79431e-06
2362.88	-4.53085e-06
2371.55	-1.15497e-06
2380.23	7.68023e-07
2388.91	6.3312e-07
2397.59	8.29312e-07
2406.27	2.26621e-06
2414.94	8.5334e-07
2423.62	4.05925e-07
2432.3	8.89026e-09
2440.98	3.69575e-07
2449.66	1.22777e-06
2458.34	1.93188e-06
2467.01	2.11856e-06
2475.69	1.20859e-06
2484.37	8.49183e-07
2493.05	8.42705e-07
2501.73	7.19468e-07
2510.4	1.06411e-06
2519.08	1.08751e-06
2527.76	6.55403e-07
2536.44	1.96577e-08
2545.12	-4.19371e-07
2553.8	-1.79543e-07
2562.47	4.98961e-07
2571.15	5.65632e-07
2579.83	4.76504e-07
2588.51	2.68594e-07
2597.19	3.51511e-07
2605.86	9.12928e-08
2614.54	1.67957e-07
2623.22	-7.18579e-08
2631.9	3.91535e-09
2640.58	2.51908e-07
2649.26	2.01962e-07
2657.93	-2.08692e-08
2666.61	7.98869e-08
2675.29	-3.50972e-09
2683.97	1.76668e-08
2692.65	7.25266e-07
2701.32	6.20735e-07
2710	1.76723e-07
2718.68	-8.15567e-08
2727.36	2.27704e-07
2736.04	6.4968e-07
2744.72	6.26224e-07
2753.39	5.9863e-07
2762.07	-1.97359e-07
2770.75	9.22678e-09
2779.43	3.11147e-07
2788.11	7.8841e-08
2796.78	-1.92792e-07
2805.46	-1.279e-07
2814.14	-6.10977e-08
2822.82	5.8134e-07
2831.5	4.21087e-07
2840.18	4.64643e-07
2848.85	3.57531e-06
2857.53	7.74297e-06
2866.21	4.44588e-06
2874.89	3.09839e-07
2883.57	1.09082e-06
2892.24	1.13547e-06
2900.92	1.30655e-06
2909.6	1.21617e-06
2918.28	1.7263e-06
2926.96	1.64201e-06
2935.63	2.0912e-06
2944.31	2.07566e-06
2952.99	4.26172e-06
2961.67	1.42748e-05
2970.35	4.53483e-05
2979.03	4.94735e-05
2987.7	1.23342e-05
2996.38	6.31429e-06
3005.06	6.79821e-06
3013.74	9.65138e-06
3022.42	5.50232e-06
3031.09	5.17364e-06
3039.77	1.32517e-06
3048.45	8.67364e-07
3057.13	2.07818e-07
3065.81	-5.30824e-08
3074.49	8.33554e-07
3083.16	5.92392e-07
3091.84	1.18659e-07
3100.52	1.30243e-07
3109.2	3.20381e-07
3117.88	1.80944e-07
3126.55	-1.22868e-07
3135.23	4.15399e-07
3143.91	-3.93082e-09
3152.59	2.53425e-07
3161.27	2.57832e-07
3169.95	2.43254e-07
3178.62	2.37122e-07
3187.3	3.33149e-07
3195.98	-1.60103e-07
3204.66	-1.7006e-07
3213.34	7.4289e-08
3222.01	-2.9058e-07
3230.69	-3.51937e-07
3239.37	-1.74349e-07
3248.05	1.47035e-07
3256.73	9.07726e-08
3265.41	1.80361e-07
3274.08	-2.89182e-07
3282.76	4.34532e-07
3291.44	-3.55565e-08
3300.12	2.94171e-07
3308.8	-3.54264e-07
3317.47	2.47864e-07
3326.15	1.41838e-07
3334.83	-1.09219e-07
3343.51	-1.08599e-07
3352.19	3.34833e-07
3360.87	1.56613e-07
3369.54	-3.36338e-08
3378.22	-1.63872e-08
3386.9	2.81775e-07
3395.58	2.32536e-07
3404.26	6.97229e-07
3412.93	3.83312e-07
3421.61	-6.37398e-08
3430.29	2.21079e-08
3438.97	-2.17544e-07
3447.65	4.04823e-08
3456.33	-2.00499e-07
3465	-1.18877e-07
3473.68	-3.27497e-07
3482.36	-1.27856e-07
3491.04	-1.36459e-07
3499.72	-4.5539e-07
3508.39	5.28277e-08
3517.07	1.46878e-07
3525.75	-5.06564e-07
3534.43	3.56211e-07
3543.11	-4.62114e-07
3551.79	-5.28813e-07
3560.46	-1.82162e-08
3569.14	-1.5826e-07
3577.82	-7.70993e-08
3586.5	-4.33276e-07
3595.18	-3.45009e-07
3603.85	-2.87141e-07
3612.53	-6.65296e-07
3621.21	-5.62661e-07
3629.89	-7.47463e-07
3638.57	1.28952e-07
3647.25	-5.17774e-07
3655.92	2.27836e-08
3664.6	2.44797e-07
3673.28	3.06796e-07
3681.96	3.87685e-07
3690.64	1.84852e-07
3699.31	7.88155e-08
3707.99	4.96309e-08
3716.67	2.98294e-07
3725.35	-7.33667e-08
3734.03	4.03022e-08
3742.71	3.30128e-07
3751.38	5.60414e-07
3760.06	5.09288e-07
3768.74	7.22174e-07
3777.42	3.57617e-07
3786.1	2.42747e-07
3794.77	1.35977e-07
3803.45	1.50409e-07
3812.13	5.23174e-07
3820.81	-5.74409e-07
3829.49	-3.78229e-07
3838.17	-1.43779e-06
3846.84	-6.30016e-07
3855.52	-2.18081e-07
3864.2	-4.49052e-07
3872.88	-2.91841e-07
3881.56	-3.23341e-07
3890.23	1.1287e-07
3898.91	1.73476e-07
3907.59	4.43243e-07
3916.27	-2.76075e-07
3924.95	-4.24193e-07
3933.63	7.04073e-08
3942.3	4.15837e-08
3950.98	4.77106e-07
3959.66	1.04198e-06
3968.34	4.97882e-08
