Infrared Spectrum: Trichloroethene
Formula: C2 H Cl3
CAS: 79-01-6
State: gas
Melting point: -73 C
Boiling point: 87 C
Class: IUPAC A
Instrument: IFS66V (Bruker)
Instrument parameters: KBr Beam Splitter; MCT Detector; Multipass cell
Sampling: 1 L/min Flow
Resolution: 0.2410
Temperature: 23 C
Pressure: 101.3 Pa
Origin: NIST, Analytical Chemistry Division, 301-975-3108
cm-1	(micromol/mol)-1m-1 (base 10)
575.05	3.63169e-06
583.608	1.93938e-06
592.165	-2.52928e-06
600.723	1.47086e-06
609.281	4.03836e-06
617.838	2.4796e-05
626.396	7.86463e-05
634.954	7.17881e-05
643.511	2.85096e-05
652.069	4.40537e-06
660.626	1.54312e-06
669.184	9.19509e-07
677.742	3.50828e-07
686.299	1.08974e-06
694.857	-2.19814e-08
703.415	-7.66874e-07
711.972	-2.22051e-08
720.53	-2.36022e-07
729.088	1.14808e-06
737.645	1.44993e-06
746.203	2.06099e-06
754.761	2.14572e-06
763.318	1.98305e-05
771.876	8.24165e-05
780.434	9.64273e-05
788.991	0.000106012
797.549	6.21422e-05
806.106	1.94141e-05
814.664	5.0558e-06
823.222	1.25701e-05
831.779	8.91475e-05
840.337	0.00056449
848.895	0.000868922
857.452	0.000322527
866.01	4.70225e-06
874.568	3.7245e-06
883.125	2.7109e-06
891.683	4.89621e-06
900.241	1.87323e-05
908.798	1.93407e-05
917.356	4.30741e-05
925.914	0.000183795
934.471	0.000588237
943.029	0.000620683
951.586	0.000200389
960.144	2.54981e-05
968.702	6.29925e-06
977.259	1.2348e-05
985.817	1.01112e-05
994.375	7.74872e-06
1002.93	4.68092e-06
1011.49	8.57655e-06
1020.05	8.19534e-06
1028.61	4.41003e-06
1037.16	2.101e-06
1045.72	1.64724e-06
1054.28	1.17192e-06
1062.84	4.89373e-07
1071.39	6.87548e-07
1079.95	7.40974e-07
1088.51	8.79795e-07
1097.07	1.42609e-06
1105.62	2.41474e-06
1114.18	3.58482e-06
1122.74	1.53349e-06
1131.3	1.5895e-06
1139.85	7.27278e-07
1148.41	2.43805e-07
1156.97	4.40237e-07
1165.53	2.34012e-07
1174.09	3.16509e-07
1182.64	7.86958e-07
1191.2	6.14132e-07
1199.76	1.17547e-06
1208.32	2.58229e-06
1216.87	4.62067e-06
1225.43	1.03989e-05
1233.99	1.3567e-05
1242.55	3.9022e-05
1251.1	5.44834e-05
1259.66	4.50381e-05
1268.22	1.76988e-05
1276.78	4.91107e-06
1285.33	1.21354e-06
1293.89	6.36353e-07
1302.45	9.01803e-07
1311.01	1.47712e-06
1319.57	2.03458e-06
1328.12	1.89582e-06
1336.68	6.32353e-07
1345.24	3.68036e-07
1353.8	2.96901e-07
1362.35	1.17816e-07
1370.91	9.19303e-07
1379.47	1.1e-06
1388.03	1.08413e-06
1396.58	1.15872e-06
1405.14	7.11994e-07
1413.7	1.22011e-06
1422.26	1.45055e-06
1430.81	1.42516e-06
1439.37	9.38651e-07
1447.93	-1.2846e-07
1456.49	-6.48774e-07
1465.05	-1.0104e-07
1473.6	-4.78096e-07
1482.16	6.85874e-07
1490.72	-3.53674e-07
1499.28	-1.68539e-08
1507.83	2.76682e-07
1516.39	1.72837e-07
1524.95	2.20638e-07
1533.51	8.95888e-07
1542.06	4.95185e-06
1550.62	2.98615e-05
1559.18	3.17828e-05
1567.74	4.16306e-05
1576.29	1.93361e-05
1584.85	4.49261e-05
1593.41	4.21206e-05
1601.97	1.80667e-05
1610.53	2.85258e-06
1619.08	7.28819e-07
1627.64	5.61494e-09
1636.2	-1.9073e-08
1644.76	2.88758e-07
1653.31	-3.53367e-06
1661.87	4.17543e-07
1670.43	1.12777e-07
1678.99	3.02925e-07
1687.54	6.14661e-07
1696.1	-1.81707e-06
1704.66	-2.43887e-07
1713.22	3.54158e-08
1721.77	3.59535e-07
1730.33	6.37861e-07
1738.89	4.5357e-07
1747.45	1.20528e-06
1756.01	2.51913e-06
1764.56	2.52526e-06
1773.12	2.10853e-06
1781.68	2.10895e-06
1790.24	2.77641e-06
1798.79	8.86372e-07
1807.35	7.56397e-07
1815.91	6.83332e-07
1824.47	4.92644e-07
1833.02	7.91838e-07
1841.58	5.5993e-07
1850.14	6.27135e-07
1858.7	1.31358e-06
1867.25	1.45206e-06
1875.81	1.35934e-06
1884.37	9.02495e-07
1892.93	2.32974e-07
1901.49	2.02675e-07
1910.04	3.18404e-07
1918.6	4.70668e-07
1927.16	6.6177e-07
1935.72	5.5439e-07
1944.27	4.89308e-07
1952.83	5.87063e-07
1961.39	7.57816e-07
1969.95	7.61572e-07
1978.5	9.49861e-07
1987.06	6.21438e-07
1995.62	8.29771e-07
2004.18	9.51125e-07
2012.73	6.17855e-07
2021.29	6.79077e-07
2029.85	6.62618e-07
2038.41	5.05112e-07
2046.97	7.97062e-07
2055.52	8.79866e-07
2064.08	7.47151e-07
2072.64	9.88288e-07
2081.2	1.44981e-06
2089.75	1.22338e-06
2098.31	1.63875e-06
2106.87	1.33364e-06
2115.43	4.85393e-07
2123.98	8.79813e-07
2132.54	7.98268e-07
2141.1	5.92889e-07
2149.66	7.82671e-07
2158.21	3.08873e-07
2166.77	1.10247e-06
2175.33	1.30466e-06
2183.89	1.17278e-06
2192.45	1.05806e-06
2201	1.03298e-06
2209.56	1.34968e-06
2218.12	1.39222e-06
2226.68	1.30619e-06
2235.23	1.16151e-06
2243.79	1.16072e-06
2252.35	1.09623e-06
2260.91	9.21417e-07
2269.46	1.02275e-06
2278.02	1.27666e-06
2286.58	9.08861e-07
2295.14	1.19261e-06
2303.69	9.56685e-07
2312.25	1.19436e-06
2320.81	9.81473e-07
2329.37	1.01559e-06
2337.93	6.29721e-07
2346.48	7.88755e-07
2355.04	1.32817e-06
2363.6	8.59718e-07
2372.16	1.30256e-06
2380.71	1.0697e-06
2389.27	1.02258e-06
2397.83	1.34999e-06
2406.39	9.32825e-07
2414.94	1.29871e-06
2423.5	1.60287e-06
2432.06	1.59375e-06
2440.62	1.32373e-06
2449.17	1.07632e-06
2457.73	1.41435e-06
2466.29	1.58481e-06
2474.85	2.00462e-06
2483.41	1.70799e-06
2491.96	1.87598e-06
2500.52	1.78779e-06
2509.08	1.54725e-06
2517.64	2.12225e-06
2526.19	1.54908e-06
2534.75	1.57799e-06
2543.31	1.17621e-06
2551.87	1.42074e-06
2560.42	1.3362e-06
2568.98	1.04286e-06
2577.54	1.26855e-06
2586.1	1.42412e-06
2594.65	1.21765e-06
2603.21	1.15902e-06
2611.77	1.53791e-06
2620.33	1.1769e-06
2628.89	1.59815e-06
2637.44	1.53805e-06
2646	1.30449e-06
2654.56	1.08552e-06
2663.12	1.12061e-06
2671.67	1.35379e-06
2680.23	1.45722e-06
2688.79	1.09535e-06
2697.35	1.39128e-06
2705.9	1.41904e-06
2714.46	1.00194e-06
2723.02	1.35799e-06
2731.58	1.31647e-06
2740.13	1.26022e-06
2748.69	1.0787e-06
2757.25	8.23642e-07
2765.81	1.44338e-06
2774.37	1.53693e-06
2782.92	1.36187e-06
2791.48	1.56756e-06
2800.04	1.85794e-06
2808.6	2.61561e-06
2817.15	2.42579e-06
2825.71	3.53527e-06
2834.27	3.53203e-06
2842.83	2.20942e-06
2851.38	2.02536e-06
2859.94	1.75963e-06
2868.5	1.96307e-06
2877.06	1.98933e-06
2885.61	2.24948e-06
2894.17	1.71915e-06
2902.73	1.90179e-06
2911.29	2.32438e-06
2919.85	2.42483e-06
2928.4	2.56428e-06
2936.96	2.21847e-06
2945.52	1.92601e-06
2954.08	2.5003e-06
2962.63	3.85904e-06
2971.19	3.20568e-06
2979.75	3.49988e-06
2988.31	3.75766e-06
2996.86	3.36122e-06
3005.42	3.02859e-06
3013.98	2.55839e-06
3022.54	2.74163e-06
3031.09	1.72257e-06
3039.65	2.30521e-06
3048.21	2.6441e-06
3056.77	2.11697e-06
3065.33	2.91704e-06
3073.88	5.42222e-06
3082.44	1.66483e-05
3091	6.92115e-05
3099.56	7.55097e-05
3108.11	1.48768e-05
3116.67	4.47575e-06
3125.23	3.01114e-06
3133.79	4.39571e-06
3142.34	4.35502e-06
3150.9	4.88502e-06
3159.46	7.80494e-06
3168.02	1.17904e-05
3176.57	9.93337e-06
3185.13	2.51172e-06
3193.69	2.13938e-06
3202.25	2.64439e-06
3210.81	2.74042e-06
3219.36	2.19219e-06
3227.92	2.3094e-06
3236.48	2.2644e-06
3245.04	3.05626e-06
3253.59	2.68338e-06
3262.15	3.93772e-06
3270.71	2.89004e-06
3279.27	2.50125e-06
3287.82	2.69001e-06
3296.38	2.44188e-06
3304.94	1.64409e-06
3313.5	2.11737e-06
3322.05	2.53025e-06
3330.61	2.00202e-06
3339.17	2.00142e-06
3347.73	2.69695e-06
3356.29	2.90991e-06
3364.84	2.97357e-06
3373.4	2.24586e-06
3381.96	2.13272e-06
3390.52	2.57773e-06
3399.07	2.06314e-06
3407.63	2.19585e-06
3416.19	2.41999e-06
3424.75	2.37114e-06
3433.3	2.54207e-06
3441.86	2.24591e-06
3450.42	2.58949e-06
3458.98	2.35735e-06
3467.53	1.99755e-06
3476.09	2.27574e-06
3484.65	2.80789e-06
3493.21	2.79623e-06
3501.77	2.78386e-06
3510.32	3.16738e-06
3518.88	2.48679e-06
3527.44	2.7263e-06
3536	2.74294e-06
3544.55	3.07577e-06
3553.11	3.39217e-06
3561.67	2.54716e-06
3570.23	2.57832e-06
3578.78	2.53926e-06
3587.34	2.44584e-06
3595.9	3.31956e-06
3604.46	3.34325e-06
3613.01	2.59023e-06
3621.57	3.13199e-06
3630.13	3.43872e-06
3638.69	2.71415e-06
3647.25	2.89908e-06
3655.8	2.75549e-06
3664.36	3.72163e-06
3672.92	3.28306e-06
3681.48	3.28605e-06
3690.03	2.93404e-06
3698.59	3.73248e-06
3707.15	3.42759e-06
3715.71	3.76018e-06
3724.26	3.80739e-06
3732.82	3.60469e-06
3741.38	2.53814e-06
3749.94	2.96488e-06
3758.49	3.10402e-06
3767.05	3.14059e-06
3775.61	2.82749e-06
3784.17	3.06016e-06
3792.73	3.52542e-06
3801.28	9.31582e-07
3809.84	3.27753e-06
3818.4	2.65614e-06
3826.96	3.13497e-06
3835.51	2.61395e-06
3844.07	2.91307e-06
3852.63	3.56355e-06
3861.19	3.86521e-06
3869.74	3.05846e-06
3878.3	3.39006e-06
3886.86	2.92302e-06
3895.42	3.09097e-06
3903.97	3.43973e-06
3912.53	3.34818e-06
3921.09	2.43008e-06
3929.65	3.52771e-06
3938.21	3.83492e-06
3946.76	3.30737e-06
3955.32	3.11355e-06
3963.88	3.71922e-06
3972.44	2.93858e-06
