Infrared Spectrum: 1,1,2-Trichloroethane
Formula: Cl C H2 C H Cl2
CAS: 79-00-5
State: gas
Melting point: -36.5 C
Boiling point: 113.77 C
Class: IUPAC A
Instrument: IFS66V (Bruker)
Instrument parameters: KBr Beam Splitter; MCT Detector; Multipass cell
Sampling: 1 L/min Flow
Resolution: 0.4820
Temperature: 23 C
Pressure: 101.3 Pa
Origin: NIST, Analytical Chemistry Division, 301-975-3108
cm-1	(micromol/mol)-1m-1 (base 10)
575.17	1.16302e-06
583.848	-7.49314e-07
592.526	-1.50546e-06
601.205	-1.85011e-06
609.883	4.71285e-07
618.561	-2.55345e-07
627.239	-5.96869e-07
635.917	5.75815e-07
644.595	5.8856e-06
653.274	1.41528e-05
661.952	5.96827e-05
670.63	0.000161349
679.308	0.000192849
687.986	6.4747e-05
696.665	1.37283e-05
705.343	1.73932e-05
714.021	2.8345e-05
722.699	7.53147e-05
731.377	0.000395816
740.055	0.000843075
748.734	0.000716621
757.412	5.18451e-05
766.09	2.69092e-05
774.768	4.33128e-05
783.446	9.11903e-05
792.124	7.33646e-05
800.803	5.69615e-05
809.481	8.01396e-06
818.159	1.52228e-06
826.837	2.32742e-06
835.515	2.2444e-06
844.194	2.57277e-06
852.872	1.9119e-06
861.55	8.78025e-07
870.228	8.53975e-07
878.906	1.48841e-06
887.584	2.77803e-06
896.263	4.34158e-06
904.941	6.96665e-06
913.619	1.50751e-05
922.297	4.8122e-05
930.975	0.000139455
939.654	0.000154962
948.332	7.49733e-05
957.01	1.85237e-05
965.688	5.47841e-06
974.366	3.90561e-06
983.044	1.72712e-06
991.723	2.40971e-06
1000.4	2.76209e-06
1009.08	2.19755e-06
1017.76	1.45093e-06
1026.44	2.79354e-06
1035.11	6.96125e-06
1043.79	1.39391e-05
1052.47	1.77642e-05
1061.15	1.4508e-05
1069.83	8.21018e-06
1078.5	3.07457e-06
1087.18	5.84982e-07
1095.86	6.85885e-07
1104.54	3.99598e-07
1113.22	3.57825e-07
1121.9	6.48216e-07
1130.57	6.9992e-07
1139.25	1.48831e-06
1147.93	7.24917e-06
1156.61	1.86803e-05
1165.29	2.01246e-05
1173.96	7.02059e-06
1182.64	3.27905e-06
1191.32	9.41926e-06
1200	6.42256e-05
1208.68	0.000117629
1217.36	9.10321e-05
1226.03	1.28119e-05
1234.71	1.01358e-05
1243.39	1.47059e-05
1252.07	3.38624e-05
1260.75	9.74037e-05
1269.42	8.76209e-05
1278.1	2.62646e-05
1286.78	4.61604e-06
1295.46	1.1018e-05
1304.14	3.46781e-05
1312.82	3.63229e-05
1321.49	1.11095e-05
1330.17	5.1141e-06
1338.85	4.43504e-06
1347.53	4.35953e-06
1356.21	3.53448e-06
1364.88	1.2797e-06
1373.56	5.28843e-07
1382.24	6.57567e-07
1390.92	3.84173e-07
1399.6	5.1861e-07
1408.28	1.44579e-06
1416.95	3.64547e-06
1425.63	1.89664e-05
1434.31	4.61791e-05
1442.99	4.94173e-05
1451.67	1.56952e-05
1460.34	1.97073e-06
1469.02	1.28036e-06
1477.7	1.08106e-06
1486.38	8.89583e-07
1495.06	3.28965e-07
1503.74	-1.78024e-08
1512.41	-4.17488e-07
1521.09	-1.3494e-06
1529.77	-1.27329e-10
1538.45	-2.86797e-07
1547.13	8.65025e-08
1555.8	8.08773e-08
1564.48	1.10189e-07
1573.16	-2.48324e-07
1581.84	-4.71234e-08
1590.52	-2.52921e-07
1599.2	-1.05649e-07
1607.87	2.55599e-07
1616.55	-1.63111e-06
1625.23	3.86442e-08
1633.91	-4.17637e-07
1642.59	-2.75355e-07
1651.26	-1.87653e-07
1659.94	-2.08993e-07
1668.62	-2.85775e-07
1677.3	-2.03799e-07
1685.98	-1.60921e-07
1694.66	-1.45743e-07
1703.33	-2.92365e-08
1712.01	-3.6958e-08
1720.69	-4.78019e-08
1729.37	2.29101e-09
1738.05	-6.70285e-08
1746.72	-3.43654e-07
1755.4	-5.59809e-07
1764.08	-1.44022e-07
1772.76	-1.64063e-06
1781.44	6.93877e-08
1790.12	2.02998e-08
1798.79	1.66516e-07
1807.47	1.24737e-07
1816.15	1.20477e-07
1824.83	2.79642e-07
1833.51	2.18228e-07
1842.18	-2.25993e-07
1850.86	-3.32866e-07
1859.54	-3.31133e-07
1868.22	-4.28911e-07
1876.9	-2.94419e-07
1885.58	-3.4541e-07
1894.25	-2.34284e-07
1902.93	-3.29194e-07
1911.61	-1.40957e-07
1920.29	-2.09099e-07
1928.97	-1.75273e-07
1937.64	-1.23327e-08
1946.32	-8.0599e-08
1955	-1.55868e-07
1963.68	-4.07831e-07
1972.36	2.92019e-08
1981.04	4.32344e-07
1989.71	4.76053e-07
1998.39	-1.3852e-07
2007.07	3.64796e-09
2015.75	-1.24332e-07
2024.43	-3.9672e-09
2033.1	-2.16142e-07
2041.78	5.61374e-08
2050.46	6.93122e-08
2059.14	1.6067e-07
2067.82	-1.68936e-07
2076.5	1.68368e-07
2085.17	2.43354e-07
2093.85	5.84885e-07
2102.53	6.52378e-07
2111.21	3.41627e-07
2119.89	-6.23926e-07
2128.56	1.03352e-07
2137.24	-1.83426e-08
2145.92	-1.47357e-07
2154.6	-1.09405e-06
2163.28	3.06798e-08
2171.96	-8.14376e-08
2180.63	1.15917e-07
2189.31	1.95928e-07
2197.99	7.13819e-07
2206.67	4.82384e-07
2215.35	-4.7158e-08
2224.02	-2.277e-07
2232.7	-3.86706e-08
2241.38	-1.49418e-07
2250.06	1.25672e-07
2258.74	2.01367e-07
2267.42	1.09435e-07
2276.09	-8.54311e-08
2284.77	-2.31494e-07
2293.45	-3.0119e-07
2302.13	-4.3098e-08
2310.81	-7.62861e-07
2319.48	-1.03887e-06
2328.16	-6.25555e-07
2336.84	-6.05942e-07
2345.52	-5.19274e-07
2354.2	-1.30367e-06
2362.88	-3.92602e-06
2371.55	-5.84638e-07
2380.23	8.01572e-07
2388.91	5.99059e-07
2397.59	8.92933e-07
2406.27	2.23615e-06
2414.94	8.74806e-07
2423.62	4.36571e-07
2432.3	-7.27419e-08
2440.98	2.99925e-07
2449.66	1.16308e-06
2458.34	2.06746e-06
2467.01	2.10868e-06
2475.69	1.16757e-06
2484.37	8.74224e-07
2493.05	8.69211e-07
2501.73	7.2081e-07
2510.4	1.1623e-06
2519.08	1.15299e-06
2527.76	7.01494e-07
2536.44	-1.60889e-08
2545.12	-4.02883e-07
2553.8	-1.55909e-07
2562.47	5.46882e-07
2571.15	5.75711e-07
2579.83	4.88071e-07
2588.51	3.1177e-07
2597.19	3.53381e-07
2605.86	1.74007e-07
2614.54	1.60628e-07
2623.22	-5.06213e-08
2631.9	-5.7407e-08
2640.58	2.8902e-07
2649.26	2.04139e-07
2657.93	4.68305e-08
2666.61	8.01461e-08
2675.29	-2.55403e-08
2683.97	5.4382e-08
2692.65	7.06461e-07
2701.32	6.13959e-07
2710	2.73056e-07
2718.68	2.32829e-09
2727.36	2.28653e-07
2736.04	6.095e-07
2744.71	6.54709e-07
2753.39	4.4507e-07
2762.07	-2.82372e-07
2770.75	-3.34238e-09
2779.43	2.49535e-07
2788.11	6.38835e-08
2796.78	-8.98212e-08
2805.46	-5.18737e-08
2814.14	-9.17875e-08
2822.82	4.10012e-07
2831.5	3.48044e-07
2840.17	6.09762e-07
2848.85	3.49529e-06
2857.53	7.74068e-06
2866.21	4.43091e-06
2874.89	3.84377e-07
2883.57	1.14547e-06
2892.24	1.0542e-06
2900.92	1.32925e-06
2909.6	1.18053e-06
2918.28	1.64953e-06
2926.96	1.77484e-06
2935.63	2.12554e-06
2944.31	1.99532e-06
2952.99	4.2724e-06
2961.67	1.44927e-05
2970.35	4.58988e-05
2979.03	4.90452e-05
2987.7	1.21057e-05
2996.38	6.33471e-06
3005.06	6.70167e-06
3013.74	9.56037e-06
3022.42	5.50352e-06
3031.09	5.1882e-06
3039.77	1.29588e-06
3048.45	6.67167e-07
3057.13	1.71842e-07
3065.81	2.36013e-09
3074.49	6.60803e-07
3083.16	4.68212e-07
3091.84	9.2707e-08
3100.52	1.33987e-07
3109.2	3.54167e-07
3117.88	4.86404e-08
3126.55	-2.49746e-08
3135.23	2.04765e-07
3143.91	7.08893e-08
3152.59	2.17836e-07
3161.27	1.63618e-07
3169.95	1.31767e-07
3178.62	1.93921e-07
3187.3	2.76919e-07
3195.98	-1.59115e-07
3204.66	-1.53774e-07
3213.34	1.10858e-07
3222.01	-2.2373e-07
3230.69	-3.14934e-07
3239.37	-1.52973e-07
3248.05	-2.86071e-08
3256.73	2.08834e-07
3265.41	8.00733e-08
3274.08	-3.19067e-07
3282.76	3.33339e-07
3291.44	-7.93503e-08
3300.12	3.65503e-07
3308.8	-2.35823e-07
3317.47	2.27374e-07
3326.15	2.18228e-07
3334.83	-1.79057e-07
3343.51	-4.10453e-08
3352.19	3.37942e-07
3360.87	2.30314e-07
3369.54	1.82503e-07
3378.22	-8.71755e-08
3386.9	1.84968e-07
3395.58	4.02375e-07
3404.26	5.60973e-07
3412.93	3.06417e-07
3421.61	-4.22476e-08
3430.29	2.13021e-07
3438.97	-1.68357e-07
3447.65	9.61704e-08
3456.33	-1.62484e-07
3465	-4.8785e-08
3473.68	-3.44256e-07
3482.36	-1.29189e-07
3491.04	-1.39007e-07
3499.72	-4.70282e-07
3508.39	1.04139e-07
3517.07	1.55746e-07
3525.75	-4.80857e-07
3534.43	1.00457e-07
3543.11	-4.3358e-07
3551.79	-2.75264e-07
3560.46	-2.71728e-08
3569.14	-2.39638e-07
3577.82	-1.8735e-07
3586.5	-5.15466e-07
3595.18	-3.42556e-07
3603.85	-2.73987e-07
3612.53	-6.02234e-07
3621.21	-5.97055e-07
3629.89	-5.59534e-07
3638.57	1.61261e-07
3647.25	-3.31308e-07
3655.92	8.80868e-08
3664.6	2.45848e-07
3673.28	-2.79996e-08
3681.96	2.63739e-07
3690.64	1.47573e-07
3699.31	1.43931e-07
3707.99	1.00963e-07
3716.67	2.17131e-07
3725.35	-1.01545e-07
3734.03	-9.3009e-08
3742.71	2.54706e-07
3751.38	3.42867e-07
3760.06	5.22574e-07
3768.74	7.71534e-07
3777.42	3.09617e-07
3786.1	3.01156e-07
3794.77	1.61078e-07
3803.45	1.83885e-07
3812.13	4.801e-07
3820.81	-5.4396e-07
3829.49	-2.27357e-07
3838.17	-1.04061e-06
3846.84	-5.41951e-07
3855.52	-2.41233e-08
3864.2	-4.23457e-07
3872.88	-3.56972e-07
3881.56	-1.99124e-07
3890.23	-3.00668e-08
3898.91	1.65325e-07
3907.59	3.62448e-07
3916.27	-2.76701e-07
3924.95	-4.56316e-07
3933.63	1.63117e-07
3942.3	6.88257e-08
3950.98	4.25077e-07
3959.66	1.16577e-06
3968.34	-9.69062e-08
