Infrared Spectrum: 1,1,2-Trichloroethane
Formula: Cl C H2 C H Cl2
CAS: 79-00-5
State: gas
Melting point: -36.5 C
Boiling point: 113.77 C
Class: IUPAC A
Instrument: IFS66V (Bruker)
Instrument parameters: KBr Beam Splitter; MCT Detector; Multipass cell
Sampling: 1 L/min Flow
Resolution: 1.9290
Temperature: 23 C
Pressure: 101.3 Pa
Origin: NIST, Analytical Chemistry Division, 301-975-3108
cm-1	(micromol/mol)-1m-1 (base 10)
575.652	-1.39482e-06
584.33	-1.59034e-07
593.008	-7.39525e-07
601.687	-1.02843e-06
610.365	-3.36871e-07
619.043	-5.17663e-07
627.721	-1.51048e-07
636.399	1.56338e-06
645.077	5.6854e-06
653.756	1.51958e-05
662.434	6.45306e-05
671.112	0.00016046
679.79	0.000193701
688.468	6.03282e-05
697.147	1.3142e-05
705.825	1.83958e-05
714.503	2.99056e-05
723.181	8.26132e-05
731.859	0.000430701
740.537	0.000846263
749.216	0.000687743
757.894	4.71579e-05
766.572	2.76701e-05
775.25	4.58396e-05
783.928	9.43813e-05
792.607	7.58142e-05
801.285	5.18594e-05
809.963	7.41518e-06
818.641	1.41237e-06
827.319	2.20051e-06
835.997	2.30851e-06
844.676	2.44739e-06
853.354	1.97232e-06
862.032	1.0129e-06
870.71	1.11125e-06
879.388	1.45231e-06
888.066	2.61002e-06
896.745	4.2618e-06
905.423	6.92731e-06
914.101	1.60818e-05
922.779	5.15552e-05
931.457	0.000143634
940.136	0.000161894
948.814	7.13708e-05
957.492	1.69624e-05
966.17	5.67465e-06
974.848	3.81576e-06
983.526	2.002e-06
992.205	2.28062e-06
1000.88	2.72276e-06
1009.56	2.41421e-06
1018.24	1.68754e-06
1026.92	2.92518e-06
1035.6	7.33286e-06
1044.27	1.4561e-05
1052.95	1.74292e-05
1061.63	1.37741e-05
1070.31	7.45053e-06
1078.99	2.84145e-06
1087.66	7.57558e-07
1096.34	5.98933e-07
1105.02	1.3653e-07
1113.7	2.70544e-07
1122.38	5.74767e-07
1131.06	7.21016e-07
1139.73	1.61457e-06
1148.41	7.83415e-06
1157.09	1.97329e-05
1165.77	2.01648e-05
1174.45	6.52978e-06
1183.12	3.3566e-06
1191.8	1.05092e-05
1200.48	7.18498e-05
1209.16	0.000134767
1217.84	8.0821e-05
1226.52	1.20661e-05
1235.19	1.0762e-05
1243.87	1.44775e-05
1252.55	3.73644e-05
1261.23	9.51018e-05
1269.91	8.49731e-05
1278.58	2.4029e-05
1287.26	4.39945e-06
1295.94	1.23423e-05
1304.62	3.57788e-05
1313.3	3.69348e-05
1321.98	1.02803e-05
1330.65	5.01536e-06
1339.33	4.25069e-06
1348.01	4.24249e-06
1356.69	2.94949e-06
1365.37	1.11878e-06
1374.04	6.22436e-07
1382.72	7.1374e-07
1391.4	7.1718e-07
1400.08	5.46147e-07
1408.76	1.32808e-06
1417.44	3.87789e-06
1426.11	2.05266e-05
1434.79	4.42414e-05
1443.47	4.77572e-05
1452.15	1.42749e-05
1460.83	2.01375e-06
1469.5	1.08656e-06
1478.18	9.92124e-07
1486.86	8.31602e-07
1495.54	7.83653e-08
1504.22	-2.08244e-07
1512.9	-1.51307e-07
1521.57	-6.24478e-07
1530.25	-1.64971e-07
1538.93	-1.00514e-06
1547.61	1.0904e-07
1556.29	3.99202e-08
1564.96	-3.59785e-08
1573.64	-1.19509e-07
1582.32	-1.55126e-07
1591	-2.46565e-07
1599.68	3.68343e-10
1608.36	2.60934e-07
1617.03	-4.17078e-07
1625.71	-9.49589e-08
1634.39	-5.5203e-07
1643.07	-1.85427e-07
1651.75	-9.34726e-07
1660.42	-1.73309e-07
1669.1	-6.24527e-07
1677.78	-2.20007e-07
1686.46	-1.56696e-07
1695.14	-8.08525e-07
1703.82	-2.35683e-07
1712.49	-1.14028e-07
1721.17	-4.15273e-08
1729.85	-1.32879e-07
1738.53	-2.57088e-07
1747.21	-3.85514e-07
1755.88	-4.974e-07
1764.56	-1.78465e-07
1773.24	-5.55583e-07
1781.92	-3.59476e-08
1790.6	-1.18297e-08
1799.28	1.33765e-07
1807.95	1.06639e-07
1816.63	8.62287e-08
1825.31	5.83738e-07
1833.99	1.67801e-07
1842.67	-2.94201e-07
1851.34	-3.30394e-07
1860.02	-3.35688e-07
1868.7	-4.38816e-07
1877.38	-3.1184e-07
1886.06	-3.53955e-07
1894.74	-3.96605e-07
1903.41	-3.72762e-07
1912.09	-3.38251e-07
1920.77	-2.96652e-07
1929.45	-1.96473e-07
1938.13	-5.49696e-08
1946.8	-4.66723e-08
1955.48	-2.22069e-07
1964.16	-3.07184e-07
1972.84	3.06798e-08
1981.52	3.49343e-07
1990.2	4.09741e-07
1998.87	3.00896e-08
2007.55	8.85934e-09
2016.23	-4.73317e-08
2024.91	-6.95123e-08
2033.59	-1.04726e-07
2042.26	2.4207e-08
2050.94	1.81149e-07
2059.62	-3.88025e-08
2068.3	-1.50922e-07
2076.98	-1.23125e-07
2085.66	2.12511e-08
2094.33	2.62906e-07
2103.01	3.00638e-07
2111.69	2.4497e-07
2120.37	-1.33434e-07
2129.05	1.30639e-08
2137.72	-4.82121e-08
2146.4	-1.80379e-07
2155.08	-4.05807e-07
2163.76	-1.22294e-07
2172.44	-4.15614e-07
2181.12	5.55798e-08
2189.79	-2.56003e-08
2198.47	5.25191e-07
2207.15	4.42832e-07
2215.83	7.01817e-08
2224.51	-6.19799e-08
2233.18	-9.20904e-08
2241.86	-5.09233e-08
2250.54	6.38717e-08
2259.22	3.21305e-08
2267.9	3.16593e-08
2276.58	-4.31289e-08
2285.25	-1.83742e-07
2293.93	-2.1015e-07
2302.61	-1.63837e-07
2311.29	-5.07972e-07
2319.97	-9.24821e-07
2328.64	-1.84136e-06
2337.32	-2.25004e-06
2346	-7.25186e-07
2354.68	-5.91518e-07
2363.36	-5.53741e-07
2372.04	5.12717e-07
2380.71	5.38582e-07
2389.39	5.06267e-07
2398.07	9.50837e-07
2406.75	1.92231e-06
2415.43	9.22005e-07
2424.1	3.43192e-07
2432.78	7.8017e-08
2441.46	3.938e-07
2450.14	1.15334e-06
2458.82	2.29711e-06
2467.5	1.95667e-06
2476.17	1.19357e-06
2484.85	8.37816e-07
2493.53	6.95029e-07
2502.21	7.5768e-07
2510.89	1.20643e-06
2519.56	1.15331e-06
2528.24	5.55401e-07
2536.92	-1.90354e-07
2545.6	-2.16061e-07
2554.28	-1.09239e-07
2562.96	3.81123e-07
2571.63	5.34313e-07
2580.31	3.20516e-07
2588.99	2.96915e-07
2597.67	4.69738e-07
2606.35	2.03389e-07
2615.02	1.90384e-07
2623.7	-1.207e-07
2632.38	-7.89837e-08
2641.06	1.09812e-07
2649.74	1.75914e-07
2658.42	-8.79222e-08
2667.09	-2.47017e-08
2675.77	9.51981e-08
2684.45	-2.04672e-08
2693.13	7.47113e-07
2701.81	8.3587e-07
2710.48	3.99509e-07
2719.16	7.63435e-08
2727.84	1.564e-07
2736.52	6.21795e-07
2745.2	6.17496e-07
2753.88	3.35604e-07
2762.55	-7.30793e-08
2771.23	-1.19068e-07
2779.91	1.14618e-07
2788.59	4.6093e-09
2797.27	-1.31858e-08
2805.94	6.3868e-08
2814.62	7.80315e-08
2823.3	1.46925e-07
2831.98	3.50128e-07
2840.66	7.07684e-07
2849.34	3.98716e-06
2858.01	7.54027e-06
2866.69	4.05551e-06
2875.37	6.28877e-07
2884.05	1.08853e-06
2892.73	1.02914e-06
2901.4	1.23072e-06
2910.08	1.22204e-06
2918.76	1.40759e-06
2927.44	1.87908e-06
2936.12	1.88581e-06
2944.8	2.2303e-06
2953.47	4.43077e-06
2962.15	1.6028e-05
2970.83	4.35445e-05
2979.51	4.82272e-05
2988.19	1.10494e-05
2996.86	6.94614e-06
3005.54	9.44971e-06
3014.22	9.06689e-06
3022.9	5.01362e-06
3031.58	4.98872e-06
3040.26	1.14565e-06
3048.93	5.02205e-07
3057.61	2.06703e-07
3066.29	9.19922e-08
3074.97	2.96034e-07
3083.65	3.96395e-07
3092.32	9.2818e-08
3101	-3.29363e-08
3109.68	1.12101e-07
3118.36	2.14394e-08
3127.04	-8.85389e-09
3135.72	7.71448e-08
3144.39	1.29868e-07
3153.07	3.28449e-07
3161.75	6.14297e-08
3170.43	1.22109e-07
3179.11	1.10438e-07
3187.78	5.11279e-08
3196.46	1.63394e-07
3205.14	1.13443e-07
3213.82	5.64493e-08
3222.5	-2.87908e-08
3231.18	-1.05353e-07
3239.85	-7.31175e-08
3248.53	2.89336e-08
3257.21	4.51325e-08
3265.89	8.31974e-08
3274.57	-5.5317e-08
3283.24	-1.20755e-07
3291.92	7.75977e-09
3300.6	1.14182e-07
3309.28	8.14612e-08
3317.96	-6.19999e-08
3326.64	4.63558e-08
3335.31	1.96333e-07
3343.99	3.61131e-08
3352.67	1.74604e-07
3361.35	7.19825e-08
3370.03	1.59907e-07
3378.7	-6.17207e-08
3387.38	1.22747e-07
3396.06	2.65127e-07
3404.74	4.10823e-07
3413.42	3.05308e-07
3422.1	3.05161e-08
3430.77	5.04767e-10
3439.45	-1.04456e-07
3448.13	-9.4788e-08
3456.81	-2.99604e-08
3465.49	-1.53756e-07
3474.16	-2.64094e-07
3482.84	-1.69141e-07
3491.52	-1.15918e-07
3500.2	-1.83189e-07
3508.88	-1.494e-07
3517.56	2.33502e-08
3526.23	-2.16894e-07
3534.91	2.22534e-08
3543.59	-2.80295e-07
3552.27	-7.64963e-08
3560.95	-9.10618e-08
3569.62	-2.58235e-07
3578.3	-7.36505e-08
3586.98	-3.02186e-07
3595.66	-2.75562e-07
3604.34	-2.46333e-07
3613.02	-2.12998e-07
3621.69	-2.42857e-07
3630.37	-2.13312e-07
3639.05	1.47701e-08
3647.73	-1.57259e-07
3656.41	4.54008e-08
3665.08	2.40557e-07
3673.76	-2.9101e-08
3682.44	1.35398e-07
3691.12	-1.53254e-07
3699.8	3.20619e-07
3708.48	9.19222e-08
3717.15	5.75189e-08
3725.83	-2.16426e-07
3734.51	-4.10768e-07
3743.19	-2.30334e-07
3751.87	-3.34065e-07
3760.54	5.94247e-07
3769.22	6.67417e-07
3777.9	3.6487e-07
3786.58	2.79249e-07
3795.26	2.10986e-07
3803.94	4.94151e-07
3812.61	5.27361e-07
3821.29	-1.05873e-07
3829.97	-4.64531e-08
3838.65	-6.78129e-07
3847.33	-2.98983e-07
3856	-2.83825e-07
3864.68	-4.27291e-07
3873.36	-3.80231e-07
3882.04	-3.92856e-07
3890.72	-1.8222e-07
3899.4	8.07636e-08
3908.07	3.26915e-07
3916.75	-9.06361e-08
3925.43	-9.70871e-08
3934.11	2.72694e-07
3942.79	2.37964e-07
3951.46	5.65937e-07
3960.14	8.41249e-07
3968.82	2.85097e-07
