Infrared Spectrum: 1,1,2-Trichloroethane
Formula: Cl C H2 C H Cl2
CAS: 79-00-5
State: gas
Melting point: -36.5 C
Boiling point: 113.77 C
Class: IUPAC A
Instrument: IFS66V (Bruker)
Instrument parameters: KBr Beam Splitter; MCT Detector; Multipass cell
Sampling: 1 L/min Flow
Resolution: 0.2410
Temperature: 23 C
Pressure: 101.3 Pa
Origin: NIST, Analytical Chemistry Division, 301-975-3108
cm-1	(micromol/mol)-1m-1 (base 10)
575.05	5.57947e-07
583.608	-7.44427e-07
592.165	2.31703e-06
600.723	-4.44283e-07
609.281	-4.25323e-07
617.838	-1.13814e-06
626.396	-3.23201e-07
634.954	1.71461e-06
643.511	3.29415e-06
652.069	1.15716e-05
660.626	4.89747e-05
669.184	0.000150344
677.742	0.000160393
686.299	8.35417e-05
694.857	1.90848e-05
703.415	1.36217e-05
711.972	2.75954e-05
720.53	5.36497e-05
729.088	0.000257206
737.645	0.000797624
746.203	0.000830941
754.761	0.000148648
763.318	2.64611e-05
771.876	3.72374e-05
780.434	7.56569e-05
788.991	0.000103105
797.549	9.90559e-05
806.106	1.96931e-05
814.664	2.50422e-06
823.222	1.61243e-06
831.779	1.61115e-06
840.337	2.64886e-06
848.895	2.73246e-06
857.452	1.16253e-06
866.01	4.63462e-07
874.568	7.38812e-07
883.125	9.14153e-07
891.683	3.44372e-06
900.241	5.05623e-06
908.798	8.47132e-06
917.356	2.43907e-05
925.914	7.78977e-05
934.471	0.000138947
943.029	0.000150532
951.586	4.87135e-05
960.144	1.04612e-05
968.702	5.43841e-06
977.259	3.89681e-06
985.817	1.75496e-06
994.375	2.31617e-06
1002.93	2.79063e-06
1011.49	2.56261e-06
1020.05	1.7421e-06
1028.61	2.82617e-06
1037.16	8.21661e-06
1045.72	1.59325e-05
1054.28	1.69136e-05
1062.84	1.23426e-05
1071.39	6.95798e-06
1079.95	2.00095e-06
1088.51	1.01086e-06
1097.07	1.97942e-07
1105.62	-2.00734e-07
1114.18	4.22792e-07
1122.74	1.81955e-07
1131.3	8.36554e-07
1139.85	1.72873e-06
1148.41	7.56172e-06
1156.97	1.85275e-05
1165.53	2.0368e-05
1174.09	6.99225e-06
1182.64	3.27564e-06
1191.2	9.35754e-06
1199.76	6.03861e-05
1208.32	8.70107e-05
1216.87	0.000101829
1225.43	1.35292e-05
1233.99	9.6194e-06
1242.55	1.52015e-05
1251.1	2.82376e-05
1259.66	9.59233e-05
1268.22	9.20912e-05
1276.78	3.40086e-05
1285.33	5.9768e-06
1293.89	8.07356e-06
1302.45	3.17344e-05
1311.01	3.46754e-05
1319.57	1.73561e-05
1328.12	4.91887e-06
1336.68	4.05536e-06
1345.24	4.28028e-06
1353.8	3.47887e-06
1362.35	1.42744e-06
1370.91	8.33698e-07
1379.47	8.30843e-07
1388.03	3.49321e-07
1396.58	7.86421e-07
1405.14	3.01923e-07
1413.7	2.33331e-06
1422.26	1.0899e-05
1430.81	4.28287e-05
1439.37	3.45012e-05
1447.93	2.84578e-05
1456.49	3.79247e-06
1465.05	4.51741e-07
1473.6	-2.42246e-07
1482.16	9.98814e-07
1490.72	1.10191e-07
1499.28	5.53525e-08
1507.83	-3.34439e-07
1516.39	-2.70035e-07
1524.95	-6.08995e-08
1533.51	-9.10745e-08
1542.06	-1.79966e-06
1550.62	7.91575e-08
1559.18	3.67343e-09
1567.74	-1.90847e-07
1576.29	-2.93906e-06
1584.85	-1.19337e-07
1593.41	2.40269e-08
1601.97	1.82455e-07
1610.53	2.04192e-07
1619.08	-1.30892e-07
1627.64	-4.02131e-07
1636.2	-1.07309e-07
1644.76	7.50238e-08
1653.31	-4.14323e-06
1661.87	-3.5289e-07
1670.43	-1.48165e-07
1678.99	-3.46269e-07
1687.54	2.01934e-08
1696.1	-2.1043e-06
1704.66	-4.21856e-07
1713.22	-3.04258e-07
1721.77	-1.08411e-07
1730.33	-1.15372e-07
1738.89	-3.70107e-07
1747.45	-2.98345e-07
1756.01	-6.32486e-07
1764.56	-1.96867e-07
1773.12	-8.17431e-08
1781.68	-1.08318e-07
1790.24	9.38212e-08
1798.79	1.46238e-07
1807.35	1.78914e-07
1815.91	1.58721e-07
1824.47	3.91247e-07
1833.02	1.6946e-07
1841.58	-5.46522e-08
1850.14	-1.92321e-07
1858.7	-3.93489e-07
1867.25	-3.96898e-07
1875.81	-1.92293e-07
1884.37	-3.29587e-07
1892.93	-2.1643e-07
1901.49	-4.90979e-07
1910.04	-3.47361e-07
1918.6	-3.42401e-07
1927.16	-1.79911e-07
1935.72	-4.61694e-08
1944.27	-2.61849e-07
1952.83	-7.63426e-08
1961.39	-3.42878e-07
1969.95	-2.71342e-07
1978.5	4.04361e-07
1987.06	2.07336e-07
1995.62	2.24536e-07
2004.18	1.36439e-07
2012.73	1.73428e-07
2021.29	7.47865e-08
2029.85	-1.87812e-07
2038.41	-3.08226e-09
2046.97	3.78725e-07
2055.52	-6.02364e-08
2064.08	6.34824e-09
2072.64	-4.22622e-08
2081.2	-1.36084e-07
2089.75	5.08922e-07
2098.31	1.03842e-06
2106.87	6.9579e-07
2115.43	-3.93754e-07
2123.98	-4.76419e-07
2132.54	-3.2614e-07
2141.1	-4.05591e-07
2149.66	1.00611e-07
2158.21	-1.61606e-06
2166.77	3.37475e-08
2175.33	-3.16921e-08
2183.89	9.81976e-09
2192.45	-5.46967e-08
2201	3.24415e-07
2209.56	-1.39512e-07
2218.12	2.12455e-07
2226.68	-2.15801e-07
2235.23	1.54527e-07
2243.79	3.08809e-07
2252.35	1.13763e-07
2260.91	-1.2327e-07
2269.46	3.52755e-08
2278.02	3.33391e-07
2286.58	-1.84392e-07
2295.14	-2.49623e-07
2303.69	-1.85918e-07
2312.25	-3.12931e-07
2320.81	-1.0059e-06
2329.37	-5.57205e-07
2337.93	-1.41346e-06
2346.48	1.94055e-07
2355.04	1.13989e-06
2363.6	1.77637e-06
2372.16	1.52454e-06
2380.71	3.54711e-07
2389.27	4.94061e-07
2397.83	7.90312e-07
2406.39	2.26956e-06
2414.94	7.18866e-07
2423.5	4.1157e-07
2432.06	2.55527e-07
2440.62	8.69663e-07
2449.17	9.34865e-07
2457.73	2.36639e-06
2466.29	2.38132e-06
2474.85	1.19261e-06
2483.41	9.86458e-07
2491.96	5.48965e-07
2500.52	3.7315e-07
2509.08	1.04474e-06
2517.64	1.06413e-06
2526.19	6.76727e-07
2534.75	2.04493e-07
2543.31	-3.95613e-07
2551.87	1.50685e-07
2560.42	1.18715e-07
2568.98	5.12351e-07
2577.54	4.21701e-07
2586.1	3.94618e-07
2594.65	5.18136e-07
2603.21	6.10826e-07
2611.77	-8.58722e-08
2620.33	-1.43705e-07
2628.89	-3.03129e-07
2637.44	-2.31207e-07
2646	4.19975e-08
2654.56	1.67201e-08
2663.12	-1.03136e-08
2671.67	5.66321e-08
2680.23	1.34495e-08
2688.79	4.37168e-07
2697.35	7.95273e-07
2705.9	9.30378e-07
2714.46	-1.92139e-08
2723.02	2.28032e-07
2731.58	3.48035e-08
2740.13	7.84502e-07
2748.69	5.80491e-07
2757.25	-2.6008e-07
2765.81	-1.32131e-07
2774.37	1.32449e-07
2782.92	8.56212e-08
2791.48	-8.90645e-08
2800.04	-9.6104e-08
2808.6	3.13609e-07
2817.15	1.05819e-08
2825.71	-1.97628e-07
2834.27	3.44108e-07
2842.83	1.42652e-06
2851.38	5.33269e-06
2859.94	4.38449e-06
2868.5	2.87763e-06
2877.06	1.70849e-06
2885.61	1.11782e-06
2894.17	8.63153e-07
2902.73	1.19953e-06
2911.29	1.25667e-06
2919.85	1.26911e-06
2928.4	2.01072e-06
2936.96	2.44743e-06
2945.52	2.25637e-06
2954.08	4.62304e-06
2962.63	1.74935e-05
2971.19	4.24953e-05
2979.75	4.87976e-05
2988.31	1.03776e-05
2996.86	7.1807e-06
3005.42	6.60548e-06
3013.98	9.25178e-06
3022.54	5.48584e-06
3031.09	5.30253e-06
3039.65	1.33703e-06
3048.21	7.16703e-07
3056.77	1.77011e-07
3065.33	2.95983e-07
3073.88	-3.31691e-08
3082.44	3.58708e-07
3091	2.08652e-07
3099.56	-3.75598e-07
3108.11	-5.5427e-07
3116.67	5.49991e-07
3125.23	1.52913e-08
3133.79	3.88343e-08
3142.34	4.5045e-07
3150.9	2.91813e-07
3159.46	3.69972e-07
3168.02	-3.19345e-07
3176.57	3.51018e-08
3185.13	3.33283e-08
3193.69	2.76905e-07
3202.25	1.59557e-07
3210.81	1.09907e-07
3219.36	-1.65226e-07
3227.92	4.60537e-07
3236.48	-2.16897e-07
3245.04	4.22063e-07
3253.59	3.1847e-07
3262.15	-2.04001e-07
3270.71	1.75623e-09
3279.27	8.02743e-08
3287.82	-4.92966e-07
3296.38	6.13116e-07
3304.94	-1.16656e-07
3313.5	-2.231e-07
3322.05	-8.21533e-08
3330.61	-1.41327e-07
3339.17	1.68569e-07
3347.73	2.28152e-07
3356.29	3.02482e-07
3364.84	-2.46162e-07
3373.4	-2.58488e-07
3381.96	8.65259e-07
3390.52	9.57502e-08
3399.07	3.48206e-07
3407.63	3.76274e-07
3416.19	-3.37605e-07
3424.75	-6.4955e-07
3433.3	2.97812e-07
3441.86	-4.12865e-07
3450.42	3.55247e-08
3458.98	-4.18211e-07
3467.53	3.38895e-07
3476.09	5.7945e-07
3484.65	-2.91829e-07
3493.21	-6.91655e-07
3501.77	-2.81402e-07
3510.32	1.08369e-07
3518.88	3.55323e-07
3527.44	-6.00894e-07
3536	3.11719e-08
3544.55	3.7192e-07
3553.11	-1.79745e-07
3561.67	-2.11948e-07
3570.23	-3.0004e-07
3578.78	4.56227e-08
3587.34	-2.61956e-07
3595.9	8.58495e-08
3604.46	-2.29293e-07
3613.01	3.10972e-07
3621.57	-1.56705e-07
3630.13	2.32709e-07
3638.69	2.69842e-07
3647.25	-4.22007e-07
3655.8	2.62556e-07
3664.36	2.61384e-07
3672.92	-2.76831e-07
3681.48	-8.71673e-08
3690.03	2.39958e-07
3698.59	6.70721e-07
3707.15	-2.97549e-08
3715.71	-3.11668e-07
3724.26	1.96854e-07
3732.82	-4.4962e-07
3741.38	3.91914e-07
3749.94	2.5158e-07
3758.49	1.05277e-06
3767.05	4.84329e-07
3775.61	4.27457e-07
3784.17	7.75486e-08
3792.73	5.20976e-07
3801.28	-1.43369e-06
3809.84	9.88908e-07
3818.4	9.88365e-07
3826.96	4.64949e-07
3835.51	9.77165e-08
3844.07	-6.14084e-07
3852.63	-3.59902e-07
3861.19	-3.31856e-07
3869.74	-4.71566e-07
3878.3	-5.90452e-07
3886.86	-2.83045e-07
3895.42	4.48635e-07
3903.97	6.4793e-08
3912.53	-6.29472e-07
3921.09	-2.71351e-07
3929.65	-3.05469e-07
3938.21	2.72647e-07
3946.76	3.631e-07
3955.32	4.96591e-07
3963.88	3.89481e-07
3972.44	9.69171e-08
