Infrared Spectrum: Trichloroethene
Formula: C2 H Cl3
CAS: 79-01-6
State: gas
Melting point: -73 C
Boiling point: 87 C
Class: IUPAC A
Instrument: IFS66V (Bruker)
Instrument parameters: KBr Beam Splitter; MCT Detector; Multipass cell
Sampling: 1 L/min Flow
Resolution: 1.9290
Temperature: 23 C
Pressure: 101.3 Pa
Origin: NIST, Analytical Chemistry Division, 301-975-3108
cm-1	(micromol/mol)-1m-1 (base 10)
575.652	1.31066e-06
584.33	8.84498e-07
593.008	2.25236e-07
601.687	1.314e-06
610.365	6.27007e-06
619.043	2.99795e-05
627.721	8.07568e-05
636.399	8.52032e-05
645.077	2.12128e-05
653.756	3.16252e-06
662.434	2.00583e-06
671.112	1.45993e-06
679.79	1.14816e-06
688.468	4.82628e-07
697.146	-4.96109e-08
705.825	1.02962e-07
714.503	3.67974e-07
723.181	3.32786e-07
731.859	1.13357e-06
740.537	1.76519e-06
749.216	2.28974e-06
757.894	5.014e-06
766.572	4.06163e-05
775.25	9.77564e-05
783.928	0.000218717
792.606	9.65788e-05
801.285	3.72049e-05
809.963	1.4333e-05
818.641	6.12638e-06
827.319	2.65497e-05
835.997	0.0002716
844.676	0.00074368
853.354	0.000709952
862.032	1.47442e-05
870.71	4.39119e-06
879.388	2.72978e-06
888.066	3.22077e-06
896.745	1.06975e-05
905.423	2.25601e-05
914.101	3.51566e-05
922.779	0.000104218
931.457	0.000456016
940.135	0.000506148
948.814	0.000405651
957.492	5.56725e-05
966.17	6.23262e-06
974.848	8.52697e-06
983.526	1.28891e-05
992.205	1.04767e-05
1000.88	4.32938e-06
1009.56	8.22567e-06
1018.24	8.78955e-06
1026.92	6.08873e-06
1035.6	2.01186e-06
1044.27	1.36504e-06
1052.95	9.32542e-07
1061.63	6.44609e-07
1070.31	5.97821e-07
1078.99	5.22001e-07
1087.66	6.72058e-07
1096.34	1.06495e-06
1105.02	2.35915e-06
1113.7	3.28939e-06
1122.38	1.9771e-06
1131.06	1.30662e-06
1139.73	8.71964e-07
1148.41	6.2481e-07
1157.09	3.56585e-07
1165.77	3.12402e-07
1174.45	4.82069e-07
1183.12	6.39264e-07
1191.8	6.33593e-07
1200.48	1.05481e-06
1209.16	2.32243e-06
1217.84	5.10296e-06
1226.52	1.10237e-05
1235.19	1.52933e-05
1243.87	4.57278e-05
1252.55	5.4145e-05
1261.23	3.91039e-05
1269.91	1.65218e-05
1278.58	3.5607e-06
1287.26	7.15245e-07
1295.94	5.01206e-07
1304.62	1.06037e-06
1313.3	1.93406e-06
1321.98	2.11706e-06
1330.65	1.23421e-06
1339.33	6.58921e-07
1348.01	5.53342e-07
1356.69	3.93756e-07
1365.37	7.43642e-07
1374.04	7.23929e-07
1382.72	1.00486e-06
1391.4	1.08376e-06
1400.08	8.71117e-07
1408.76	1.11655e-06
1417.44	1.15504e-06
1426.11	1.57926e-06
1434.79	8.88487e-07
1443.47	6.39949e-07
1452.15	6.12371e-07
1460.83	6.23426e-07
1469.5	6.26541e-07
1478.18	5.94648e-07
1486.86	4.21192e-07
1495.54	6.77897e-08
1504.22	2.94204e-07
1512.9	3.95147e-07
1521.57	-2.02936e-07
1530.25	9.27632e-07
1538.93	2.61446e-06
1547.61	1.69177e-05
1556.29	5.44986e-05
1564.96	5.06621e-05
1573.64	2.09784e-05
1582.32	3.71795e-05
1591	3.62704e-05
1599.68	2.97135e-05
1608.36	4.90435e-06
1617.03	-9.2165e-08
1625.71	5.04667e-07
1634.39	1.47295e-07
1643.07	2.85774e-07
1651.75	-5.4448e-07
1660.42	2.07932e-07
1669.1	-1.36343e-07
1677.78	5.17682e-07
1686.46	5.51345e-07
1695.14	-1.66302e-07
1703.82	1.71822e-07
1712.49	1.79537e-07
1721.17	4.23184e-07
1729.85	4.2189e-07
1738.53	6.0556e-07
1747.21	1.17927e-06
1755.88	2.40473e-06
1764.56	2.59651e-06
1773.24	1.83269e-06
1781.92	2.22398e-06
1790.6	2.40467e-06
1799.28	8.57907e-07
1807.95	6.74155e-07
1816.63	5.1776e-07
1825.31	4.21337e-07
1833.99	6.34902e-07
1842.67	5.96355e-07
1851.34	8.54059e-07
1860.02	1.49504e-06
1868.7	1.54836e-06
1877.38	1.23282e-06
1886.06	7.97866e-07
1894.74	1.96067e-07
1903.41	2.98817e-07
1912.09	4.15641e-07
1920.77	5.42409e-07
1929.45	5.65145e-07
1938.13	5.37423e-07
1946.8	5.57525e-07
1955.48	7.65235e-07
1964.16	8.02236e-07
1972.84	1.00599e-06
1981.52	6.8276e-07
1990.19	5.96747e-07
1998.87	6.59525e-07
2007.55	7.16817e-07
2016.23	6.14659e-07
2024.91	7.50546e-07
2033.59	8.5862e-07
2042.26	7.5468e-07
2050.94	7.25677e-07
2059.62	7.15789e-07
2068.3	9.17307e-07
2076.98	1.04703e-06
2085.65	1.35351e-06
2094.33	1.69665e-06
2103.01	1.38194e-06
2111.69	7.44515e-07
2120.37	7.53273e-07
2129.05	7.28755e-07
2137.72	7.30979e-07
2146.4	8.9699e-07
2155.08	8.07548e-07
2163.76	1.02511e-06
2172.44	9.47728e-07
2181.11	1.12551e-06
2189.79	1.09321e-06
2198.47	1.17224e-06
2207.15	1.07591e-06
2215.83	1.36774e-06
2224.51	1.35277e-06
2233.18	1.18142e-06
2241.86	1.0387e-06
2250.54	9.65452e-07
2259.22	1.02614e-06
2267.9	1.07204e-06
2276.57	1.03966e-06
2285.25	9.87847e-07
2293.93	1.10431e-06
2302.61	9.46285e-07
2311.29	1.1241e-06
2319.97	9.24121e-07
2328.64	9.46426e-07
2337.32	8.16815e-07
2346	8.95808e-07
2354.68	9.29602e-07
2363.36	7.75112e-07
2372.03	9.9758e-07
2380.71	1.10718e-06
2389.39	1.05948e-06
2398.07	1.17966e-06
2406.75	1.19343e-06
2415.43	1.27193e-06
2424.1	1.51724e-06
2432.78	1.57055e-06
2441.46	1.31095e-06
2450.14	1.35304e-06
2458.82	1.27524e-06
2467.49	1.55783e-06
2476.17	1.93892e-06
2484.85	1.97455e-06
2493.53	1.7082e-06
2502.21	1.68817e-06
2510.89	1.60537e-06
2519.56	1.73395e-06
2528.24	1.6301e-06
2536.92	1.3329e-06
2545.6	1.29572e-06
2554.28	1.26634e-06
2562.95	1.25386e-06
2571.63	1.22697e-06
2580.31	1.20964e-06
2588.99	1.15109e-06
2597.67	1.21292e-06
2606.35	1.28408e-06
2615.02	1.30938e-06
2623.7	1.33425e-06
2632.38	1.27335e-06
2641.06	1.29046e-06
2649.74	1.30225e-06
2658.41	1.24414e-06
2667.09	1.31627e-06
2675.77	1.4342e-06
2684.45	1.28223e-06
2693.13	1.3701e-06
2701.81	1.15418e-06
2710.48	1.48684e-06
2719.16	1.46191e-06
2727.84	1.37422e-06
2736.52	1.19735e-06
2745.2	1.2488e-06
2753.87	1.41296e-06
2762.55	1.42722e-06
2771.23	1.51149e-06
2779.91	1.52081e-06
2788.59	1.55454e-06
2797.27	1.70734e-06
2805.94	2.27815e-06
2814.62	2.58002e-06
2823.3	3.10908e-06
2831.98	2.94612e-06
2840.66	2.60709e-06
2849.33	1.76695e-06
2858.01	1.63295e-06
2866.69	1.59619e-06
2875.37	2.04033e-06
2884.05	1.64983e-06
2892.73	1.96697e-06
2901.4	2.18511e-06
2910.08	2.14857e-06
2918.76	2.12826e-06
2927.44	2.27842e-06
2936.12	2.63129e-06
2944.79	2.68075e-06
2953.47	2.70828e-06
2962.15	2.5148e-06
2970.83	3.23483e-06
2979.51	3.50191e-06
2988.19	3.64943e-06
2996.86	3.19781e-06
3005.54	2.77075e-06
3014.22	2.3498e-06
3022.9	2.30181e-06
3031.58	2.14118e-06
3040.25	2.18852e-06
3048.93	2.39715e-06
3057.61	2.52778e-06
3066.29	2.97031e-06
3074.97	5.75988e-06
3083.65	2.23368e-05
3092.32	6.40291e-05
3101	7.69041e-05
3109.68	1.12266e-05
3118.36	4.4124e-06
3127.04	3.93866e-06
3135.71	4.24163e-06
3144.39	4.89974e-06
3153.07	5.30936e-06
3161.75	9.39997e-06
3170.43	1.11412e-05
3179.11	8.3701e-06
3187.78	2.71088e-06
3196.46	2.34975e-06
3205.14	2.69068e-06
3213.82	2.37436e-06
3222.5	2.673e-06
3231.17	2.85371e-06
3239.85	2.8958e-06
3248.53	2.65366e-06
3257.21	2.96891e-06
3265.89	2.82114e-06
3274.57	2.93275e-06
3283.24	2.5746e-06
3291.92	2.30411e-06
3300.6	2.44885e-06
3309.28	2.64616e-06
3317.96	2.6363e-06
3326.63	2.34908e-06
3335.31	2.21131e-06
3343.99	2.44161e-06
3352.67	2.31941e-06
3361.35	2.57012e-06
3370.03	2.29221e-06
3378.7	2.12572e-06
3387.38	2.63663e-06
3396.06	2.56709e-06
3404.74	2.17162e-06
3413.42	2.32421e-06
3422.09	2.36837e-06
3430.77	2.35829e-06
3439.45	2.52688e-06
3448.13	2.37035e-06
3456.81	2.49235e-06
3465.49	2.46561e-06
3474.16	2.51535e-06
3482.84	2.62427e-06
3491.52	2.30973e-06
3500.2	2.61387e-06
3508.88	2.6316e-06
3517.55	2.52372e-06
3526.23	2.61797e-06
3534.91	2.66055e-06
3543.59	2.55657e-06
3552.27	2.56632e-06
3560.95	2.5465e-06
3569.62	2.7226e-06
3578.3	2.59963e-06
3586.98	2.82639e-06
3595.66	2.72408e-06
3604.34	2.86862e-06
3613.01	2.69883e-06
3621.69	2.93962e-06
3630.37	2.7102e-06
3639.05	2.99676e-06
3647.73	2.75283e-06
3656.41	2.65907e-06
3665.08	3.1653e-06
3673.76	2.97086e-06
3682.44	2.95795e-06
3691.12	2.70509e-06
3699.8	3.43374e-06
3708.47	3.09641e-06
3717.15	3.65533e-06
3725.83	3.76976e-06
3734.51	3.49315e-06
3743.19	2.90498e-06
3751.87	2.24652e-06
3760.54	3.00525e-06
3769.22	3.06557e-06
3777.9	2.93389e-06
3786.58	3.22656e-06
3795.26	3.13647e-06
3803.93	2.98699e-06
3812.61	3.09205e-06
3821.29	2.72936e-06
3829.97	3.29626e-06
3838.65	2.46383e-06
3847.33	3.21001e-06
3856	3.01541e-06
3864.68	3.01418e-06
3873.36	3.33586e-06
3882.04	3.29101e-06
3890.72	2.97483e-06
3899.39	2.93189e-06
3908.07	3.11682e-06
3916.75	3.00047e-06
3925.43	3.15737e-06
3934.11	3.66731e-06
3942.79	4.01884e-06
3951.46	3.5906e-06
3960.14	3.37782e-06
3968.82	3.40754e-06
