Infrared Spectrum: 1,1,2-Trichloroethane
Formula: Cl C H2 C H Cl2
CAS: 79-00-5
State: gas
Melting point: -36.5 C
Boiling point: 113.77 C
Class: IUPAC A
Instrument: IFS66V (Bruker)
Instrument parameters: KBr Beam Splitter; MCT Detector; Multipass cell
Sampling: 1 L/min Flow
Resolution: 0.1250
Temperature: 23 C
Pressure: 101.3 Pa
Origin: NIST, Analytical Chemistry Division, 301-975-3108
cm-1	(micromol/mol)-1m-1 (base 10)
575.05	-9.83431e-07
583.608	-8.21879e-07
592.165	2.60746e-06
600.723	-5.85641e-07
609.281	-5.03364e-07
617.838	-1.35747e-06
626.396	-4.26622e-07
634.954	1.81697e-06
643.511	3.26706e-06
652.069	1.23469e-05
660.626	4.92064e-05
669.184	0.00015078
677.742	0.000160167
686.299	8.31926e-05
694.857	1.9194e-05
703.415	1.37257e-05
711.972	2.72338e-05
720.53	5.36874e-05
729.088	0.000256581
737.645	0.000797124
746.203	0.000834643
754.761	0.000148832
763.318	2.62039e-05
771.876	3.6845e-05
780.434	7.59686e-05
788.991	0.000102818
797.549	9.89413e-05
806.106	1.97871e-05
814.664	2.17195e-06
823.222	1.31524e-06
831.779	1.30795e-06
840.337	2.57465e-06
848.895	2.71696e-06
857.452	1.03958e-06
866.01	2.04737e-07
874.568	5.41729e-07
883.125	6.814e-07
891.683	3.1786e-06
900.241	5.31603e-06
908.798	8.04082e-06
917.356	2.41951e-05
925.914	7.82321e-05
934.471	0.000139039
943.029	0.000150853
951.586	4.84612e-05
960.144	1.0446e-05
968.702	5.28031e-06
977.259	3.81202e-06
985.817	1.56247e-06
994.375	2.13277e-06
1002.93	2.64957e-06
1011.49	2.33979e-06
1020.05	1.86811e-06
1028.61	3.02986e-06
1037.16	8.29521e-06
1045.72	1.60682e-05
1054.28	1.67831e-05
1062.84	1.23041e-05
1071.39	7.08473e-06
1079.95	2.00249e-06
1088.51	1.10883e-06
1097.07	2.9671e-07
1105.62	-1.51772e-07
1114.18	4.73001e-07
1122.74	2.05505e-07
1131.3	7.5803e-07
1139.85	1.77021e-06
1148.41	7.35717e-06
1156.97	1.84112e-05
1165.53	2.0456e-05
1174.09	6.84971e-06
1182.64	3.26875e-06
1191.2	9.39749e-06
1199.76	6.04037e-05
1208.32	8.67476e-05
1216.87	0.000101791
1225.43	1.37713e-05
1233.99	9.57801e-06
1242.55	1.54537e-05
1251.1	2.81248e-05
1259.66	9.57551e-05
1268.22	9.20089e-05
1276.78	3.40855e-05
1285.33	6.07078e-06
1293.89	8.01642e-06
1302.45	3.19369e-05
1311.01	3.47064e-05
1319.57	1.73793e-05
1328.12	5.16126e-06
1336.68	4.08079e-06
1345.24	4.21496e-06
1353.8	3.65558e-06
1362.35	1.76552e-06
1370.91	7.59424e-07
1379.47	6.72549e-07
1388.03	1.91526e-07
1396.58	8.67342e-07
1405.14	2.40118e-07
1413.7	2.13142e-06
1422.26	1.11259e-05
1430.81	4.29389e-05
1439.37	3.44185e-05
1447.93	2.84731e-05
1456.49	3.30489e-06
1465.05	4.58069e-07
1473.6	-3.14834e-07
1482.16	9.30868e-07
1490.72	4.41894e-08
1499.28	1.60257e-07
1507.83	-3.37411e-07
1516.39	-2.65595e-07
1524.95	6.50922e-08
1533.51	-1.70093e-08
1542.06	-1.79742e-06
1550.62	2.97958e-08
1559.18	6.52759e-08
1567.74	-4.42358e-08
1576.29	-2.79976e-06
1584.85	-7.08556e-08
1593.41	1.11775e-07
1601.97	1.43053e-07
1610.53	2.18037e-07
1619.08	-1.65641e-07
1627.64	-3.49724e-07
1636.2	-1.10697e-07
1644.76	1.32569e-07
1653.31	-4.91723e-06
1661.87	-3.47241e-07
1670.43	-9.50217e-08
1678.99	-2.09176e-07
1687.54	8.93556e-08
1696.1	-1.91087e-06
1704.66	-2.1405e-07
1713.22	-3.34299e-07
1721.77	-1.01077e-07
1730.33	-1.82291e-07
1738.89	-4.10329e-07
1747.45	-3.97781e-07
1756.01	-6.7416e-07
1764.56	-1.55391e-07
1773.12	1.65454e-08
1781.68	-7.54968e-09
1790.24	1.63215e-07
1798.79	3.29417e-08
1807.35	3.65108e-07
1815.91	1.74406e-07
1824.47	3.78875e-07
1833.02	2.23247e-07
1841.58	-9.95892e-08
1850.14	-3.14636e-07
1858.7	-4.76807e-07
1867.25	-4.49633e-07
1875.81	-2.33575e-07
1884.37	-2.39819e-07
1892.93	-2.31587e-07
1901.49	-4.2679e-07
1910.04	-3.11667e-07
1918.6	-4.6837e-07
1927.16	-2.03752e-07
1935.72	-1.08081e-07
1944.27	-3.69662e-07
1952.83	1.59615e-08
1961.39	-3.82853e-07
1969.95	-3.15832e-07
1978.5	3.88969e-07
1987.06	9.36675e-08
1995.62	3.50017e-07
2004.18	2.90429e-07
2012.73	2.65329e-07
2021.29	1.68492e-08
2029.85	-3.85335e-07
2038.41	-8.62115e-08
2046.97	6.09478e-07
2055.52	-2.56631e-08
2064.08	8.13202e-08
2072.64	2.43152e-08
2081.2	2.16513e-08
2089.75	5.39852e-07
2098.31	1.0706e-06
2106.87	7.19965e-07
2115.43	-2.84007e-07
2123.98	-6.04556e-07
2132.54	-3.19045e-07
2141.1	-4.16461e-07
2149.66	1.55663e-07
2158.21	-1.49257e-06
2166.77	1.40901e-07
2175.33	-2.0608e-07
2183.89	-5.51342e-08
2192.45	-2.28495e-07
2201	2.32424e-07
2209.56	-2.29881e-07
2218.12	2.91388e-07
2226.68	-3.44061e-07
2235.23	2.52414e-07
2243.79	2.67142e-07
2252.35	2.74748e-08
2260.91	-9.10627e-08
2269.46	9.1673e-08
2278.02	4.46784e-07
2286.58	-1.56267e-07
2295.14	-1.56854e-07
2303.69	-3.09951e-07
2312.25	-3.42635e-07
2320.81	-8.96077e-07
2329.37	-5.72864e-07
2337.93	-9.06948e-07
2346.48	3.4094e-07
2355.04	1.35355e-06
2363.6	1.81794e-06
2372.16	1.63017e-06
2380.71	1.33856e-07
2389.27	4.17792e-07
2397.83	7.60584e-07
2406.39	2.40917e-06
2414.94	5.66247e-07
2423.5	3.53287e-07
2432.06	3.41976e-07
2440.62	1.0204e-06
2449.17	9.78546e-07
2457.73	2.34053e-06
2466.29	2.65566e-06
2474.85	1.27919e-06
2483.41	1.05295e-06
2491.96	5.96082e-07
2500.52	2.20147e-07
2509.08	1.0695e-06
2517.64	1.27459e-06
2526.19	9.48714e-07
2534.75	3.05028e-07
2543.31	-3.95391e-07
2551.87	5.83783e-08
2560.42	5.34416e-09
2568.98	5.01884e-07
2577.54	2.75334e-07
2586.1	3.93876e-07
2594.65	4.78442e-07
2603.21	5.48283e-07
2611.77	-2.11166e-07
2620.33	-6.37189e-08
2628.89	-3.93429e-07
2637.44	-2.91536e-07
2646	-7.22708e-08
2654.56	-7.6479e-09
2663.12	4.51589e-08
2671.67	-4.21458e-08
2680.23	-3.37621e-08
2688.79	3.52487e-07
2697.35	7.56301e-07
2705.9	9.39903e-07
2714.46	-1.8585e-07
2723.02	4.69559e-07
2731.58	2.42988e-08
2740.13	7.75021e-07
2748.69	6.69265e-07
2757.25	-4.62972e-07
2765.81	-3.51763e-08
2774.37	7.26164e-08
2782.92	2.2968e-07
2791.48	-2.40569e-08
2800.04	-1.5796e-08
2808.6	6.61024e-07
2817.15	6.3567e-08
2825.71	-4.91495e-07
2834.27	4.00349e-07
2842.83	1.52658e-06
2851.38	5.36855e-06
2859.94	4.08483e-06
2868.5	2.82719e-06
2877.06	1.85201e-06
2885.61	1.12385e-06
2894.17	9.82571e-07
2902.73	1.11033e-06
2911.29	1.29346e-06
2919.85	1.16666e-06
2928.4	1.89988e-06
2936.96	2.78955e-06
2945.52	2.16062e-06
2954.08	4.54284e-06
2962.63	1.74932e-05
2971.19	4.25549e-05
2979.75	4.88956e-05
2988.31	1.07222e-05
2996.86	7.27751e-06
3005.42	6.48743e-06
3013.98	9.2027e-06
3022.54	5.48144e-06
3031.09	5.09113e-06
3039.65	1.19877e-06
3048.21	8.18335e-07
3056.77	2.19351e-07
3065.33	4.52125e-07
3073.88	-1.84245e-07
3082.44	1.97192e-07
3091	3.71866e-07
3099.56	-5.012e-07
3108.11	-5.60893e-07
3116.67	7.06011e-07
3125.23	-3.05916e-08
3133.79	-1.67514e-07
3142.34	7.05439e-07
3150.9	7.30039e-07
3159.46	4.26844e-07
3168.02	-4.97522e-07
3176.57	-1.56793e-07
3185.13	5.22538e-08
3193.69	7.27255e-08
3202.25	1.39874e-07
3210.81	6.84628e-08
3219.36	-3.8064e-08
3227.92	5.4074e-07
3236.48	-4.58921e-07
3245.04	6.72649e-07
3253.59	2.26076e-07
3262.15	-3.1031e-07
3270.71	-8.28091e-09
3279.27	4.07988e-08
3287.82	-6.87614e-07
3296.38	6.17828e-07
3304.94	-8.25771e-08
3313.5	-6.11004e-07
3322.05	-1.52637e-07
3330.61	-6.20377e-07
3339.17	2.56931e-07
3347.73	2.75302e-07
3356.29	4.65459e-07
3364.84	-3.24331e-07
3373.4	-7.23815e-07
3381.96	1.32418e-06
3390.52	2.02422e-07
3399.07	3.8285e-07
3407.63	3.84119e-07
3416.19	-8.28494e-07
3424.75	-4.92241e-07
3433.3	4.82355e-07
3441.86	-4.28051e-07
3450.42	-2.15622e-08
3458.98	-7.25131e-07
3467.53	1.91822e-07
3476.09	6.37185e-07
3484.65	-4.40624e-07
3493.21	-9.80466e-07
3501.77	-5.12584e-07
3510.32	1.49129e-07
3518.88	7.82185e-07
3527.44	-7.91268e-07
3536	-4.31908e-08
3544.55	3.41277e-07
3553.11	-2.47318e-08
3561.67	-2.46249e-07
3570.23	-4.24836e-07
3578.78	8.87298e-08
3587.34	-1.59796e-07
3595.9	4.97712e-07
3604.46	-1.09645e-07
3613.01	3.53472e-07
3621.57	-3.5892e-07
3630.13	3.71291e-07
3638.69	5.69934e-07
3647.25	-4.4554e-07
3655.8	6.01964e-08
3664.36	2.57715e-07
3672.92	-2.87352e-07
3681.48	-3.4487e-07
3690.03	3.68114e-07
3698.59	5.84096e-07
3707.15	8.80914e-08
3715.71	-4.41029e-07
3724.26	4.41786e-07
3732.82	-2.62723e-07
3741.38	5.43272e-07
3749.94	4.58765e-07
3758.49	8.83068e-07
3767.05	4.24949e-07
3775.61	5.74926e-07
3784.17	1.73525e-07
3792.73	6.35395e-07
3801.28	-1.434e-06
3809.84	1.11095e-06
3818.4	9.72212e-07
3826.96	5.36065e-07
3835.51	5.08953e-07
3844.07	-3.9474e-07
3852.63	-4.22877e-07
3861.19	-5.21338e-07
3869.74	-4.66515e-07
3878.3	-3.23909e-07
3886.86	-2.44917e-07
3895.42	3.91896e-07
3903.97	2.71432e-07
3912.53	-7.26491e-07
3921.09	-3.77637e-07
3929.65	-5.17897e-07
3938.21	3.55245e-07
3946.76	9.18267e-08
3955.32	5.02183e-07
3963.88	1.9347e-07
3972.44	1.3559e-07
