Infrared Spectrum: Trichloroethene
Formula: C2 H Cl3
CAS: 79-01-6
State: gas
Melting point: -73 C
Boiling point: 87 C
Class: IUPAC A
Instrument: IFS66V (Bruker)
Instrument parameters: KBr Beam Splitter; MCT Detector; Multipass cell
Sampling: 1 L/min Flow
Resolution: 0.9640
Temperature: 23 C
Pressure: 101.3 Pa
Origin: NIST, Analytical Chemistry Division, 301-975-3108
cm-1	(micromol/mol)-1m-1 (base 10)
575.17	-2.20332e-06
583.848	-1.09925e-06
592.526	-3.70483e-07
601.205	8.01815e-07
609.883	6.71227e-06
618.561	2.6291e-05
627.239	7.7694e-05
635.917	8.28372e-05
644.595	2.34523e-05
653.274	3.89957e-06
661.952	1.3899e-06
670.63	1.15408e-06
679.308	1.29338e-06
687.986	3.41493e-07
696.664	1.79253e-08
705.343	4.93331e-07
714.021	4.65033e-07
722.699	5.32827e-07
731.377	1.42632e-06
740.055	2.20955e-06
748.734	2.33463e-06
757.412	4.92214e-06
766.09	3.77475e-05
774.768	9.63275e-05
783.446	0.000221852
792.124	9.63853e-05
800.803	3.9285e-05
809.481	1.46761e-05
818.159	5.46904e-06
826.837	2.34411e-05
835.515	0.000240357
844.194	0.000714221
852.872	0.000713403
861.55	1.80205e-05
870.228	4.31863e-06
878.906	2.56059e-06
887.584	3.12155e-06
896.263	9.77087e-06
904.941	2.38745e-05
913.619	3.46672e-05
922.297	9.48178e-05
930.975	0.00042948
939.653	0.000505982
948.332	0.000449342
957.01	6.2124e-05
965.688	6.57446e-06
974.366	7.8779e-06
983.044	1.16906e-05
991.723	1.09126e-05
1000.4	4.30775e-06
1009.08	8.32882e-06
1017.76	8.7955e-06
1026.44	6.75561e-06
1035.11	2.0303e-06
1043.79	1.46531e-06
1052.47	1.09428e-06
1061.15	8.75531e-07
1069.83	7.94556e-07
1078.5	5.74336e-07
1087.18	6.50717e-07
1095.86	9.85871e-07
1104.54	2.07212e-06
1113.22	3.22915e-06
1121.9	2.09651e-06
1130.57	1.23357e-06
1139.25	9.31426e-07
1147.93	4.46069e-07
1156.61	3.67789e-07
1165.29	5.29502e-07
1173.96	5.82093e-07
1182.64	6.87511e-07
1191.32	6.50679e-07
1200	9.01174e-07
1208.68	2.42491e-06
1217.36	4.76301e-06
1226.03	1.06763e-05
1234.71	1.5923e-05
1243.39	4.36425e-05
1252.07	5.14881e-05
1260.75	4.08751e-05
1269.42	1.72056e-05
1278.1	3.81968e-06
1286.78	6.7009e-07
1295.46	3.70977e-07
1304.14	8.64749e-07
1312.82	1.95913e-06
1321.49	2.26616e-06
1330.17	1.64891e-06
1338.85	5.61398e-07
1347.53	5.98966e-07
1356.21	6.34551e-07
1364.88	7.30918e-07
1373.56	1.65265e-07
1382.24	1.02838e-06
1390.92	8.23745e-07
1399.6	8.04325e-07
1408.28	1.1889e-06
1416.95	1.21918e-06
1425.63	1.70771e-06
1434.31	9.90969e-07
1442.99	8.95441e-07
1451.67	5.91857e-07
1460.34	5.72002e-07
1469.02	6.44524e-07
1477.7	7.47484e-07
1486.38	4.37085e-07
1495.06	1.01074e-07
1503.73	6.18526e-07
1512.41	1.36376e-07
1521.09	-1.13278e-06
1529.77	8.23783e-07
1538.45	3.40507e-06
1547.13	1.54745e-05
1555.8	5.71227e-05
1564.48	5.10495e-05
1573.16	2.07299e-05
1581.84	3.5196e-05
1590.52	3.66955e-05
1599.19	3.23219e-05
1607.87	5.32029e-06
1616.55	-1.43407e-06
1625.23	4.54796e-07
1633.91	4.98066e-07
1642.59	3.61397e-07
1651.26	-1.54159e-07
1659.94	5.9278e-08
1668.62	3.56339e-07
1677.3	4.89513e-07
1685.98	3.70335e-07
1694.65	3.10648e-07
1703.33	4.12239e-07
1712.01	5.11838e-09
1720.69	3.5655e-07
1729.37	1.76522e-07
1738.05	8.13636e-07
1746.72	1.20358e-06
1755.4	2.4058e-06
1764.08	2.38144e-06
1772.76	5.79918e-07
1781.44	2.28542e-06
1790.11	2.67629e-06
1798.79	9.24892e-07
1807.47	7.09895e-07
1816.15	5.25287e-07
1824.83	3.47381e-07
1833.51	6.68568e-07
1842.18	6.19503e-07
1850.86	7.88004e-07
1859.54	1.46747e-06
1868.22	1.67467e-06
1876.9	1.17118e-06
1885.57	7.03791e-07
1894.25	3.08764e-07
1902.93	2.49579e-07
1911.61	5.9659e-07
1920.29	6.57256e-07
1928.97	5.80038e-07
1937.64	7.33782e-07
1946.32	7.10231e-07
1955	7.42455e-07
1963.68	7.92515e-07
1972.36	8.87585e-07
1981.03	6.49851e-07
1989.71	5.60061e-07
1998.39	5.41923e-07
2007.07	5.23792e-07
2015.75	7.04218e-07
2024.43	7.86114e-07
2033.1	7.89772e-07
2041.78	9.27162e-07
2050.46	6.67727e-07
2059.14	7.28013e-07
2067.82	1.00484e-06
2076.49	1.05928e-06
2085.17	1.3529e-06
2093.85	1.66697e-06
2102.53	1.49332e-06
2111.21	7.8166e-07
2119.89	3.7282e-07
2128.56	7.67632e-07
2137.24	7.37067e-07
2145.92	1.0087e-06
2154.6	5.74285e-07
2163.28	1.02055e-06
2171.95	1.09802e-06
2180.63	1.0817e-06
2189.31	1.12779e-06
2197.99	1.19646e-06
2206.67	9.61913e-07
2215.35	1.48265e-06
2224.02	1.42701e-06
2232.7	1.25653e-06
2241.38	1.00862e-06
2250.06	1.09541e-06
2258.74	1.18344e-06
2267.41	1.13104e-06
2276.09	1.05005e-06
2284.77	1.19354e-06
2293.45	1.13639e-06
2302.13	1.14421e-06
2310.81	1.01344e-06
2319.48	9.56205e-07
2328.16	9.60641e-07
2336.84	1.1432e-06
2345.52	8.55598e-07
2354.2	7.07725e-07
2362.87	3.71156e-07
2371.55	8.32727e-07
2380.23	1.16372e-06
2388.91	9.30866e-07
2397.59	1.07339e-06
2406.27	9.67849e-07
2414.94	1.30207e-06
2423.62	1.48929e-06
2432.3	1.6069e-06
2440.98	1.29961e-06
2449.66	1.40879e-06
2458.33	1.24716e-06
2467.01	1.64684e-06
2475.69	1.86789e-06
2484.37	2.22611e-06
2493.05	1.85676e-06
2501.73	1.3827e-06
2510.4	1.47481e-06
2519.08	1.59139e-06
2527.76	1.7532e-06
2536.44	1.68679e-06
2545.12	1.56116e-06
2553.79	1.35416e-06
2562.47	1.11691e-06
2571.15	1.35515e-06
2579.83	1.2388e-06
2588.51	8.20484e-07
2597.19	1.30743e-06
2605.86	1.59438e-06
2614.54	1.0881e-06
2623.22	1.27429e-06
2631.9	1.27367e-06
2640.58	1.28973e-06
2649.25	1.07894e-06
2657.93	1.01175e-06
2666.61	1.51974e-06
2675.29	1.43503e-06
2683.97	1.3153e-06
2692.65	1.45681e-06
2701.32	1.04461e-06
2710	1.42509e-06
2718.68	1.70821e-06
2727.36	1.40905e-06
2736.04	1.38999e-06
2744.71	1.30003e-06
2753.39	1.6982e-06
2762.07	1.66777e-06
2770.75	1.80564e-06
2779.43	1.20656e-06
2788.11	1.53272e-06
2796.78	1.84586e-06
2805.46	2.18393e-06
2814.14	2.42493e-06
2822.82	2.92299e-06
2831.5	2.54675e-06
2840.17	2.48623e-06
2848.85	1.7968e-06
2857.53	1.69628e-06
2866.21	1.72143e-06
2874.89	1.97586e-06
2883.57	1.61262e-06
2892.24	1.87095e-06
2900.92	2.21857e-06
2909.6	1.82747e-06
2918.28	1.82558e-06
2926.96	1.88998e-06
2935.63	2.56009e-06
2944.31	2.61823e-06
2952.99	2.41405e-06
2961.67	1.33276e-06
2970.35	3.12191e-06
2979.03	3.67432e-06
2987.7	3.83206e-06
2996.38	2.8129e-06
3005.06	2.87434e-06
3013.74	2.63331e-06
3022.42	2.57651e-06
3031.09	1.84735e-06
3039.77	2.10527e-06
3048.45	2.29694e-06
3057.13	2.53235e-06
3065.81	2.76342e-06
3074.49	5.84656e-06
3083.16	1.96751e-05
3091.84	6.7778e-05
3100.52	7.90798e-05
3109.2	1.2332e-05
3117.88	4.27834e-06
3126.55	3.61178e-06
3135.23	4.38962e-06
3143.91	4.85787e-06
3152.59	4.96812e-06
3161.27	9.05492e-06
3169.95	1.0704e-05
3178.62	9.11631e-06
3187.3	2.67096e-06
3195.98	1.5632e-06
3204.66	2.95638e-06
3213.34	2.08249e-06
3222.01	3.01171e-06
3230.69	2.87969e-06
3239.37	2.99164e-06
3248.05	2.65465e-06
3256.73	2.93185e-06
3265.41	2.862e-06
3274.08	3.18993e-06
3282.76	2.15507e-06
3291.44	2.24122e-06
3300.12	2.65699e-06
3308.8	2.56943e-06
3317.47	2.75406e-06
3326.15	2.6e-06
3334.83	1.73431e-06
3343.51	2.6611e-06
3352.19	1.64826e-06
3360.86	2.79784e-06
3369.54	2.6793e-06
3378.22	1.70023e-06
3386.9	2.606e-06
3395.58	3.04486e-06
3404.26	2.20021e-06
3412.93	2.29404e-06
3421.61	2.11988e-06
3430.29	2.25738e-06
3438.97	2.82804e-06
3447.65	2.15248e-06
3456.32	2.48825e-06
3465	2.29823e-06
3473.68	2.53645e-06
3482.36	2.62557e-06
3491.04	2.40583e-06
3499.72	2.97439e-06
3508.39	2.49311e-06
3517.07	2.62209e-06
3525.75	2.84463e-06
3534.43	3.03103e-06
3543.11	2.23286e-06
3551.78	2.49944e-06
3560.46	2.27817e-06
3569.14	2.73263e-06
3577.82	2.18556e-06
3586.5	2.41481e-06
3595.18	2.42853e-06
3603.85	2.39525e-06
3612.53	2.46822e-06
3621.21	2.81968e-06
3629.89	2.26814e-06
3638.57	2.76635e-06
3647.24	2.56965e-06
3655.92	2.41571e-06
3664.6	3.49569e-06
3673.28	3.37563e-06
3681.96	3.05682e-06
3690.64	3.01206e-06
3699.31	3.21644e-06
3707.99	3.33496e-06
3716.67	3.85876e-06
3725.35	4.03663e-06
3734.03	3.61351e-06
3742.7	3.49946e-06
3751.38	3.07867e-06
3760.06	2.47339e-06
3768.74	3.31099e-06
3777.42	3.13261e-06
3786.1	3.53721e-06
3794.77	3.53091e-06
3803.45	3.32622e-06
3812.13	2.99145e-06
3820.81	2.69886e-06
3829.49	3.57032e-06
3838.16	1.7922e-06
3846.84	2.96198e-06
3855.52	2.76767e-06
3864.2	3.49772e-06
3872.88	3.38837e-06
3881.56	3.19257e-06
3890.23	3.34454e-06
3898.91	3.08816e-06
3907.59	3.13838e-06
3916.27	3.25905e-06
3924.95	2.7871e-06
3933.62	3.51226e-06
3942.3	3.82537e-06
3950.98	4.36534e-06
3959.66	3.31038e-06
3968.34	3.45036e-06
