Infrared Spectrum: 1,1,2-Trichloroethane
Formula: Cl C H2 C H Cl2
CAS: 79-00-5
State: gas
Melting point: -36.5 C
Boiling point: 113.77 C
Class: IUPAC A
Instrument: IFS66V (Bruker)
Instrument parameters: KBr Beam Splitter; MCT Detector; Multipass cell
Sampling: 1 L/min Flow
Resolution: 0.9640
Temperature: 23 C
Pressure: 101.3 Pa
Origin: NIST, Analytical Chemistry Division, 301-975-3108
cm-1	(micromol/mol)-1m-1 (base 10)
575.17	-4.39086e-07
583.848	-5.44376e-07
592.526	-6.55025e-07
601.205	-1.42786e-06
609.883	1.17874e-07
618.561	-3.22517e-07
627.239	-4.69971e-07
635.917	9.46885e-07
644.595	5.49243e-06
653.274	1.39394e-05
661.952	6.00477e-05
670.63	0.000160828
679.308	0.000192172
687.986	6.45603e-05
696.665	1.3947e-05
705.343	1.7518e-05
714.021	2.87189e-05
722.699	7.53754e-05
731.377	0.00039616
740.055	0.000843393
748.734	0.000714459
757.412	5.22345e-05
766.09	2.68703e-05
774.768	4.33045e-05
783.446	9.10224e-05
792.125	7.39724e-05
800.803	5.69304e-05
809.481	8.28398e-06
818.159	1.34438e-06
826.837	2.40704e-06
835.515	2.03615e-06
844.194	2.51027e-06
852.872	1.91957e-06
861.55	9.18533e-07
870.228	8.68136e-07
878.906	1.49478e-06
887.584	2.53787e-06
896.263	4.26173e-06
904.941	6.95114e-06
913.619	1.50562e-05
922.297	4.81077e-05
930.975	0.000139264
939.654	0.000154604
948.332	7.50834e-05
957.01	1.84953e-05
965.688	5.6918e-06
974.366	3.85919e-06
983.044	1.92741e-06
991.723	2.34296e-06
1000.4	2.74654e-06
1009.08	2.30226e-06
1017.76	1.53554e-06
1026.44	2.82792e-06
1035.11	6.9559e-06
1043.79	1.40203e-05
1052.47	1.77141e-05
1061.15	1.44173e-05
1069.83	8.03423e-06
1078.5	3.06037e-06
1087.18	6.57523e-07
1095.86	6.34418e-07
1104.54	2.75143e-07
1113.22	3.07529e-07
1121.9	6.96974e-07
1130.57	7.33264e-07
1139.25	1.46101e-06
1147.93	7.18366e-06
1156.61	1.88425e-05
1165.29	2.02874e-05
1173.96	7.05254e-06
1182.64	3.20277e-06
1191.32	9.4883e-06
1200	6.42069e-05
1208.68	0.000126112
1217.36	9.10558e-05
1226.03	1.28401e-05
1234.71	1.01248e-05
1243.39	1.46316e-05
1252.07	3.39554e-05
1260.75	9.70724e-05
1269.42	8.76879e-05
1278.1	2.62975e-05
1286.78	4.6122e-06
1295.46	1.1062e-05
1304.14	3.46902e-05
1312.82	3.64428e-05
1321.49	1.11226e-05
1330.17	5.08983e-06
1338.85	4.30888e-06
1347.53	4.28304e-06
1356.21	3.49849e-06
1364.88	1.10785e-06
1373.56	4.6938e-07
1382.24	6.83726e-07
1390.92	5.27884e-07
1399.6	4.47209e-07
1408.28	1.30716e-06
1416.95	3.5956e-06
1425.63	1.88845e-05
1434.31	4.61462e-05
1442.99	4.93999e-05
1451.67	1.57199e-05
1460.34	2.1423e-06
1469.02	1.20046e-06
1477.7	1.0429e-06
1486.38	9.2414e-07
1495.06	4.35669e-07
1503.74	2.20397e-08
1512.41	-2.55337e-07
1521.09	-9.62029e-07
1529.77	-9.28562e-08
1538.45	-6.48645e-07
1547.13	5.62574e-08
1555.8	1.0875e-07
1564.48	-4.58428e-08
1573.16	-1.90133e-07
1581.84	-1.10267e-07
1590.52	-3.0662e-07
1599.2	-2.5764e-08
1607.87	2.62886e-07
1616.55	-1.06614e-06
1625.23	2.10465e-08
1633.91	-3.47809e-07
1642.59	-2.66954e-07
1651.26	-2.52293e-07
1659.94	-1.80165e-07
1668.62	-4.32694e-07
1677.3	-2.65213e-07
1685.98	-1.54449e-07
1694.66	-2.04991e-07
1703.33	-7.61189e-08
1712.01	-8.08418e-08
1720.69	1.06838e-08
1729.37	-8.68699e-08
1738.05	-1.20116e-07
1746.72	-3.61575e-07
1755.4	-4.59523e-07
1764.08	-1.60389e-07
1772.76	-1.00088e-06
1781.44	-4.37819e-08
1790.12	3.6145e-08
1798.79	1.65984e-07
1807.47	1.1071e-07
1816.15	1.34857e-07
1824.83	3.18121e-07
1833.51	1.9071e-07
1842.18	-2.20064e-07
1850.86	-2.93578e-07
1859.54	-3.1893e-07
1868.22	-4.12826e-07
1876.9	-3.17423e-07
1885.58	-3.43174e-07
1894.25	-3.02666e-07
1902.93	-3.45399e-07
1911.61	-2.57801e-07
1920.29	-2.58344e-07
1928.97	-1.55421e-07
1937.64	-5.98335e-08
1946.32	-7.53958e-08
1955	-1.85448e-07
1963.68	-3.80855e-07
1972.36	3.23442e-08
1981.04	3.82719e-07
1989.71	4.72842e-07
1998.39	-1.8871e-08
2007.07	2.51438e-08
2015.75	-7.35932e-08
2024.43	-9.50417e-09
2033.1	-1.04894e-07
2041.78	4.50107e-08
2050.46	8.31228e-08
2059.14	8.30182e-08
2067.82	-1.66433e-07
2076.5	3.82986e-08
2085.17	1.62352e-07
2093.85	5.09226e-07
2102.53	5.49666e-07
2111.21	1.43193e-07
2119.89	-4.9143e-07
2128.56	4.10644e-08
2137.24	-1.27565e-08
2145.92	-9.7038e-08
2154.6	-7.09756e-07
2163.28	-9.57547e-08
2171.96	-1.17287e-07
2180.63	8.98203e-08
2189.31	6.9867e-08
2197.99	6.29768e-07
2206.67	4.16237e-07
2215.35	1.22781e-10
2224.02	-1.03746e-07
2232.7	-3.24433e-08
2241.38	-1.05175e-07
2250.06	1.06634e-07
2258.74	1.19763e-07
2267.42	8.21006e-08
2276.09	-2.31829e-08
2284.77	-1.81603e-07
2293.45	-2.45961e-07
2302.13	-9.05716e-08
2310.81	-7.23442e-07
2319.48	-1.1915e-06
2328.16	-1.51532e-06
2336.84	-9.10579e-07
2345.52	-8.03668e-07
2354.2	-9.99562e-07
2362.88	-1.6141e-06
2371.55	2.27366e-07
2380.23	6.24177e-07
2388.91	5.54408e-07
2397.59	9.25138e-07
2406.27	2.21223e-06
2414.94	9.50783e-07
2423.62	3.93765e-07
2432.3	5.8583e-08
2440.98	4.00357e-07
2449.66	1.12715e-06
2458.34	2.1453e-06
2467.01	2.06873e-06
2475.69	1.22279e-06
2484.37	8.79284e-07
2493.05	7.67169e-07
2501.73	7.72408e-07
2510.4	1.14863e-06
2519.08	1.099e-06
2527.76	6.20907e-07
2536.44	-8.69618e-08
2545.12	-2.40387e-07
2553.8	-1.07374e-07
2562.47	4.0002e-07
2571.15	5.59637e-07
2579.83	3.83213e-07
2588.51	2.79715e-07
2597.19	3.66534e-07
2605.86	1.85006e-07
2614.54	2.17564e-07
2623.22	-8.58177e-08
2631.9	1.73649e-08
2640.58	2.07064e-07
2649.26	1.55516e-07
2657.93	2.2509e-08
2666.61	4.35518e-08
2675.29	4.26132e-08
2683.97	1.14414e-08
2692.65	7.18024e-07
2701.32	7.07099e-07
2710	3.23644e-07
2718.68	3.66643e-08
2727.36	2.23132e-07
2736.04	6.03701e-07
2744.72	6.38219e-07
2753.39	3.89676e-07
2762.07	-1.70908e-07
2770.75	-5.7256e-08
2779.43	2.22201e-07
2788.11	-1.0601e-08
2796.78	-5.07095e-08
2805.46	1.4639e-07
2814.14	2.43125e-08
2822.82	3.17049e-07
2831.5	3.19265e-07
2840.18	5.88665e-07
2848.85	3.61211e-06
2857.53	7.54927e-06
2866.21	4.44537e-06
2874.89	5.09918e-07
2883.57	1.09623e-06
2892.24	1.05644e-06
2900.92	1.30694e-06
2909.6	1.227e-06
2918.28	1.55802e-06
2926.96	1.83173e-06
2935.63	2.00339e-06
2944.31	2.15223e-06
2952.99	4.32123e-06
2961.67	1.46241e-05
2970.35	4.58149e-05
2979.03	4.90344e-05
2987.7	1.20016e-05
2996.38	6.46534e-06
3005.06	6.9413e-06
3013.74	9.56424e-06
3022.42	5.44235e-06
3031.09	5.1401e-06
3039.77	1.21942e-06
3048.45	6.31923e-07
3057.13	2.32266e-07
3065.81	3.28862e-08
3074.49	4.83741e-07
3083.16	4.4312e-07
3091.84	1.40374e-07
3100.52	1.03146e-07
3109.2	1.96294e-07
3117.88	8.92046e-08
3126.55	6.83846e-09
3135.23	2.09045e-07
3143.91	4.1872e-08
3152.59	2.88604e-07
3161.27	1.26145e-07
3169.95	1.77665e-07
3178.62	1.63788e-07
3187.3	1.9599e-07
3195.98	1.28884e-08
3204.66	-4.71743e-08
3213.34	1.04407e-07
3222.01	-1.25526e-07
3230.69	-3.06959e-07
3239.37	-1.3467e-07
3248.05	2.19596e-08
3256.73	8.79968e-08
3265.41	1.56049e-07
3274.08	-1.48129e-07
3282.76	1.75845e-07
3291.44	-2.06336e-08
3300.12	2.88608e-07
3308.8	-8.99185e-08
3317.47	7.1204e-09
3326.15	1.2025e-07
3334.83	-4.30334e-08
3343.51	3.48253e-08
3352.19	2.93477e-07
3360.87	2.33539e-08
3369.54	8.43106e-08
3378.22	-1.08854e-07
3386.9	1.38285e-07
3395.58	2.20978e-07
3404.26	5.67102e-07
3412.93	2.63822e-07
3421.61	1.51939e-08
3430.29	1.10343e-07
3438.97	-4.72616e-08
3447.65	3.68243e-08
3456.33	-1.15198e-07
3465	-6.67893e-08
3473.68	-3.7137e-07
3482.36	-1.15277e-07
3491.04	-1.28375e-07
3499.72	-3.04972e-07
3508.39	-1.01426e-07
3517.07	1.00806e-07
3525.75	-3.49485e-07
3534.43	1.31084e-07
3543.11	-3.24224e-07
3551.79	-2.74864e-07
3560.46	-1.01963e-07
3569.14	-2.46695e-07
3577.82	-1.19828e-07
3586.5	-3.31074e-07
3595.18	-2.82276e-07
3603.85	-2.2147e-07
3612.53	-3.58294e-07
3621.21	-4.58522e-07
3629.89	-5.24432e-07
3638.57	1.19057e-07
3647.25	-2.89325e-07
3655.92	-9.39603e-08
3664.6	2.2982e-07
3673.28	7.86527e-09
3681.96	1.41621e-07
3690.64	-3.06926e-08
3699.31	2.15313e-07
3707.99	1.22258e-07
3716.67	1.43336e-07
3725.35	-1.0011e-07
3734.03	-2.03418e-07
3742.71	1.79867e-07
3751.38	2.21519e-07
3760.06	4.78474e-07
3768.74	7.81457e-07
3777.42	4.40676e-07
3786.1	2.04477e-07
3794.77	1.74931e-07
3803.45	2.58666e-07
3812.13	4.44666e-07
3820.81	-2.54529e-07
3829.49	-1.82702e-07
3838.17	-1.22498e-06
3846.84	-4.62139e-07
3855.52	-1.00942e-07
3864.2	-3.24608e-07
3872.88	-2.90965e-07
3881.56	-2.86327e-07
3890.23	3.04606e-08
3898.91	3.54919e-08
3907.59	3.61625e-07
3916.27	-8.27745e-08
3924.95	-2.36304e-07
3933.63	1.60472e-07
3942.3	1.67488e-07
3950.98	4.43865e-07
3959.66	1.01058e-06
3968.34	2.15146e-07
