Infrared Spectrum: Trichloroethene
Formula: C2 H Cl3
CAS: 79-01-6
State: gas
Melting point: -73 C
Boiling point: 87 C
Class: IUPAC A
Instrument: IFS66V (Bruker)
Instrument parameters: KBr Beam Splitter; MCT Detector; Multipass cell
Sampling: 1 L/min Flow
Resolution: 0.1250
Temperature: 23 C
Pressure: 101.3 Pa
Origin: NIST, Analytical Chemistry Division, 301-975-3108
cm-1	(micromol/mol)-1m-1 (base 10)
575.05	2.25519e-06
583.608	4.03358e-06
592.165	-2.95973e-06
600.723	-7.64829e-08
609.281	3.26797e-06
617.838	2.44294e-05
626.396	7.72599e-05
634.954	7.17547e-05
643.511	2.76262e-05
652.069	4.67117e-06
660.626	1.61346e-06
669.184	3.82835e-07
677.742	-3.36293e-07
686.299	1.39737e-06
694.857	6.48893e-07
703.415	-1.35885e-06
711.972	-5.55889e-07
720.53	-2.88823e-07
729.088	1.42239e-06
737.645	1.83616e-06
746.203	1.28913e-06
754.761	1.99102e-06
763.318	2.01051e-05
771.876	8.17207e-05
780.434	9.66807e-05
788.991	0.000107193
797.549	6.29842e-05
806.106	1.92504e-05
814.664	5.1617e-06
823.222	1.1312e-05
831.779	8.94054e-05
840.337	0.000564828
848.895	0.000859044
857.452	0.000321984
866.01	4.51193e-06
874.568	4.05769e-06
883.125	2.70156e-06
891.683	5.38499e-06
900.241	1.91523e-05
908.798	1.94257e-05
917.356	4.24242e-05
925.914	0.000183619
934.471	0.000587773
943.029	0.000621965
951.586	0.000200345
960.144	2.52371e-05
968.702	6.69078e-06
977.259	1.23805e-05
985.817	1.0245e-05
994.375	7.82885e-06
1002.93	4.96859e-06
1011.49	8.34121e-06
1020.05	8.33119e-06
1028.61	4.16434e-06
1037.16	2.51791e-06
1045.72	1.58061e-06
1054.28	1.10761e-06
1062.84	7.25361e-07
1071.39	6.3869e-07
1079.95	8.68763e-07
1088.51	1.2239e-06
1097.07	1.34449e-06
1105.62	2.63251e-06
1114.18	4.02249e-06
1122.74	9.5933e-07
1131.3	1.76114e-06
1139.85	8.60121e-07
1148.41	1.79467e-07
1156.97	3.74501e-07
1165.53	4.05358e-07
1174.09	-3.83752e-08
1182.64	9.3836e-07
1191.2	6.38734e-07
1199.76	1.16933e-06
1208.32	2.6915e-06
1216.87	4.23508e-06
1225.43	1.05352e-05
1233.99	1.31618e-05
1242.55	3.88697e-05
1251.1	5.51799e-05
1259.66	4.53635e-05
1268.22	1.80717e-05
1276.78	4.96201e-06
1285.33	1.20733e-06
1293.89	1.03678e-06
1302.45	1.21104e-06
1311.01	1.44575e-06
1319.57	1.98596e-06
1328.12	2.2455e-06
1336.68	5.44748e-07
1345.24	2.16102e-07
1353.8	9.44919e-08
1362.35	-2.0443e-07
1370.91	8.54206e-07
1379.47	1.21303e-06
1388.03	1.28139e-06
1396.58	1.10424e-06
1405.14	7.93913e-07
1413.7	1.52091e-06
1422.26	1.35632e-06
1430.81	1.17513e-06
1439.37	1.15639e-06
1447.93	-4.60987e-07
1456.49	-1.02338e-06
1465.05	7.55789e-08
1473.6	-5.62431e-07
1482.16	6.88068e-07
1490.72	-5.83072e-07
1499.28	6.73575e-08
1507.83	1.9007e-07
1516.39	3.98454e-07
1524.95	-3.0703e-08
1533.51	1.09434e-06
1542.06	4.68202e-06
1550.62	2.99653e-05
1559.18	3.17355e-05
1567.74	4.16796e-05
1576.29	1.89892e-05
1584.85	4.49469e-05
1593.41	4.25489e-05
1601.97	1.81515e-05
1610.53	2.86551e-06
1619.08	1.04357e-06
1627.64	1.59736e-08
1636.2	-1.79558e-07
1644.76	4.4329e-07
1653.31	-4.45657e-06
1661.87	5.26242e-07
1670.43	-1.08998e-07
1678.99	3.46746e-07
1687.54	5.07722e-07
1696.1	-1.40976e-06
1704.66	-3.59687e-08
1713.22	-1.85213e-07
1721.77	4.88849e-07
1730.33	6.17226e-07
1738.89	3.583e-07
1747.45	1.14102e-06
1756.01	2.7599e-06
1764.56	2.62987e-06
1773.12	2.34913e-06
1781.68	2.0036e-06
1790.24	2.76463e-06
1798.79	8.25428e-07
1807.35	6.2056e-07
1815.91	9.70876e-07
1824.47	4.84055e-07
1833.02	6.95771e-07
1841.58	3.37822e-07
1850.14	2.21937e-07
1858.7	1.25854e-06
1867.25	1.42342e-06
1875.81	1.27052e-06
1884.37	6.99327e-07
1892.93	4.00369e-07
1901.49	2.78299e-07
1910.04	1.01064e-07
1918.6	5.58304e-07
1927.16	7.07327e-07
1935.72	2.16471e-07
1944.27	4.24029e-07
1952.83	3.43336e-07
1961.39	8.86455e-07
1969.95	7.19359e-07
1978.5	1.19461e-06
1987.06	6.57691e-07
1995.62	8.24384e-07
2004.18	9.94236e-07
2012.73	4.9993e-07
2021.29	6.45368e-07
2029.85	5.56654e-07
2038.41	2.06643e-07
2046.97	9.16024e-07
2055.52	1.01624e-06
2064.08	7.49783e-07
2072.64	1.1753e-06
2081.2	1.44739e-06
2089.75	8.15951e-07
2098.31	1.65694e-06
2106.87	1.4497e-06
2115.43	5.76248e-07
2123.98	7.5172e-07
2132.54	8.58413e-07
2141.1	2.79934e-07
2149.66	7.35771e-07
2158.21	2.0262e-07
2166.77	1.10975e-06
2175.33	1.28134e-06
2183.89	1.21405e-06
2192.45	9.37225e-07
2201	1.0557e-06
2209.56	1.3495e-06
2218.12	1.48089e-06
2226.68	1.5331e-06
2235.23	1.14374e-06
2243.79	1.40947e-06
2252.35	1.07455e-06
2260.91	8.21119e-07
2269.46	9.87102e-07
2278.02	1.37054e-06
2286.58	9.44615e-07
2295.14	1.398e-06
2303.69	1.0558e-06
2312.25	1.07715e-06
2320.81	1.02921e-06
2329.37	1.00382e-06
2337.93	4.40687e-07
2346.48	7.78346e-07
2355.04	1.45304e-06
2363.6	8.59825e-07
2372.16	1.20966e-06
2380.71	9.59502e-07
2389.27	8.8894e-07
2397.83	1.58005e-06
2406.39	1.02001e-06
2414.94	1.43166e-06
2423.5	1.66299e-06
2432.06	1.45896e-06
2440.62	1.30913e-06
2449.17	8.2153e-07
2457.73	1.41243e-06
2466.29	1.54124e-06
2474.85	1.88258e-06
2483.41	1.86463e-06
2491.96	2.06519e-06
2500.52	1.81706e-06
2509.08	1.45006e-06
2517.64	2.35577e-06
2526.19	1.71259e-06
2534.75	1.60831e-06
2543.31	1.22975e-06
2551.87	1.03539e-06
2560.42	1.15813e-06
2568.98	1.02386e-06
2577.54	1.27455e-06
2586.1	1.49358e-06
2594.65	9.76245e-07
2603.21	1.29687e-06
2611.77	1.6243e-06
2620.33	1.13633e-06
2628.89	1.75371e-06
2637.44	1.46988e-06
2646	1.51104e-06
2654.56	6.95229e-07
2663.12	9.08217e-07
2671.67	1.22653e-06
2680.23	1.68946e-06
2688.79	8.94897e-07
2697.35	1.22255e-06
2705.9	1.46153e-06
2714.46	7.95911e-07
2723.02	9.95493e-07
2731.58	1.17109e-06
2740.13	1.48363e-06
2748.69	1.10667e-06
2757.25	6.49871e-07
2765.81	1.11878e-06
2774.37	1.60202e-06
2782.92	1.17255e-06
2791.48	1.66595e-06
2800.04	1.81444e-06
2808.6	2.27435e-06
2817.15	2.21626e-06
2825.71	3.63488e-06
2834.27	3.52812e-06
2842.83	2.25957e-06
2851.38	1.82467e-06
2859.94	1.69425e-06
2868.5	2.29522e-06
2877.06	2.31296e-06
2885.61	2.28281e-06
2894.17	1.36296e-06
2902.73	2.11448e-06
2911.29	2.21945e-06
2919.85	2.10914e-06
2928.4	2.8244e-06
2936.96	1.79879e-06
2945.52	1.6831e-06
2954.08	2.37165e-06
2962.63	3.9547e-06
2971.19	3.47067e-06
2979.75	3.59118e-06
2988.31	3.84084e-06
2996.86	3.2648e-06
3005.42	2.84081e-06
3013.98	3.01161e-06
3022.54	2.88199e-06
3031.09	1.8037e-06
3039.65	2.5551e-06
3048.21	2.70822e-06
3056.77	2.11414e-06
3065.33	2.9897e-06
3073.88	5.32408e-06
3082.44	1.64153e-05
3091	6.92755e-05
3099.56	7.54502e-05
3108.11	1.4786e-05
3116.67	4.11347e-06
3125.23	2.65938e-06
3133.79	4.94274e-06
3142.34	4.2023e-06
3150.9	5.08925e-06
3159.46	7.77405e-06
3168.02	1.2199e-05
3176.57	9.67072e-06
3185.13	2.43669e-06
3193.69	2.07003e-06
3202.25	2.92005e-06
3210.81	2.92816e-06
3219.36	2.06573e-06
3227.92	2.3248e-06
3236.48	2.19158e-06
3245.04	3.24001e-06
3253.59	2.92166e-06
3262.15	4.20202e-06
3270.71	3.41978e-06
3279.27	2.61874e-06
3287.82	2.35127e-06
3296.38	2.32127e-06
3304.94	1.12835e-06
3313.5	2.45966e-06
3322.05	2.71316e-06
3330.61	1.97603e-06
3339.17	1.78769e-06
3347.73	3.05785e-06
3356.29	3.93313e-06
3364.84	3.10366e-06
3373.4	1.91231e-06
3381.96	1.95431e-06
3390.52	2.31981e-06
3399.07	1.92684e-06
3407.63	1.93956e-06
3416.19	2.64804e-06
3424.75	2.37299e-06
3433.3	2.74475e-06
3441.86	2.39028e-06
3450.42	2.3689e-06
3458.98	1.69047e-06
3467.53	2.63048e-06
3476.09	2.12415e-06
3484.65	3.60849e-06
3493.21	2.69846e-06
3501.77	2.45512e-06
3510.32	3.11988e-06
3518.88	2.10395e-06
3527.44	2.40771e-06
3536	2.98642e-06
3544.55	3.56481e-06
3553.11	3.52157e-06
3561.67	2.55889e-06
3570.23	2.61453e-06
3578.78	2.26022e-06
3587.34	2.15095e-06
3595.9	3.10646e-06
3604.46	3.43143e-06
3613.01	2.62925e-06
3621.57	3.73151e-06
3630.13	3.76e-06
3638.69	2.5248e-06
3647.25	2.85049e-06
3655.8	2.90989e-06
3664.36	3.89635e-06
3672.92	3.14362e-06
3681.48	3.57028e-06
3690.03	2.97857e-06
3698.59	4.20482e-06
3707.15	3.24154e-06
3715.71	3.92991e-06
3724.26	3.73265e-06
3732.82	3.34726e-06
3741.38	2.73467e-06
3749.94	3.11808e-06
3758.49	3.41369e-06
3767.05	3.64735e-06
3775.61	2.79787e-06
3784.17	2.77789e-06
3792.73	3.25937e-06
3801.28	1.24683e-06
3809.84	3.2603e-06
3818.4	2.35053e-06
3826.96	3.30721e-06
3835.51	2.54935e-06
3844.07	3.25373e-06
3852.63	3.89904e-06
3861.19	4.40822e-06
3869.74	2.82181e-06
3878.3	3.55425e-06
3886.86	2.90936e-06
3895.42	2.74658e-06
3903.97	3.90121e-06
3912.53	3.87583e-06
3921.09	2.02901e-06
3929.65	3.8558e-06
3938.21	3.75028e-06
3946.76	3.42756e-06
3955.32	2.90891e-06
3963.88	3.90449e-06
3972.44	2.54782e-06
