Infrared Spectrum: 1,1,2-Trichloroethane
Formula: Cl C H2 C H Cl2
CAS: 79-00-5
State: gas
Melting point: -36.5 C
Boiling point: 113.77 C
Class: IUPAC A
Instrument: IFS66V (Bruker)
Instrument parameters: KBr Beam Splitter; MCT Detector; Multipass cell
Sampling: 1 L/min Flow
Resolution: 0.9640
Temperature: 23 C
Pressure: 101.3 Pa
Origin: NIST, Analytical Chemistry Division, 301-975-3108
cm-1	(micromol/mol)-1m-1 (base 10)
575.17	-3.47557e-07
583.848	-5.43855e-07
592.526	-5.66979e-07
601.205	-1.31315e-06
609.883	1.77417e-07
618.561	-1.92883e-07
627.239	-2.70732e-07
635.917	1.19747e-06
644.595	5.82569e-06
653.274	1.46032e-05
661.952	6.04877e-05
670.63	0.000158624
679.308	0.000188619
687.986	6.54812e-05
696.665	1.51992e-05
705.343	1.85451e-05
714.021	3.03493e-05
722.699	7.86956e-05
731.377	0.000396202
740.055	0.000833272
748.734	0.000704952
757.412	5.91058e-05
766.09	2.90433e-05
774.768	4.46152e-05
783.446	9.09935e-05
792.125	7.53572e-05
800.803	5.72022e-05
809.481	8.99101e-06
818.159	1.81487e-06
826.837	2.62327e-06
835.515	2.2594e-06
844.194	2.65369e-06
852.872	2.06239e-06
861.55	1.0965e-06
870.228	1.0058e-06
878.906	1.63241e-06
887.584	2.70927e-06
896.263	4.46223e-06
904.941	7.20978e-06
913.619	1.55115e-05
922.297	4.85287e-05
930.975	0.000137267
939.654	0.000152185
948.332	7.51444e-05
957.01	1.91369e-05
965.688	6.04172e-06
974.366	4.06781e-06
983.044	2.09679e-06
991.723	2.43599e-06
1000.4	2.82642e-06
1009.08	2.39006e-06
1017.76	1.66609e-06
1026.44	2.93739e-06
1035.11	7.03062e-06
1043.79	1.3985e-05
1052.47	1.76221e-05
1061.15	1.43903e-05
1069.83	8.04595e-06
1078.5	3.12858e-06
1087.18	7.53241e-07
1095.86	6.67762e-07
1104.54	3.33608e-07
1113.22	3.56468e-07
1121.9	7.4262e-07
1130.57	8.09452e-07
1139.25	1.61397e-06
1147.93	7.32394e-06
1156.61	1.89707e-05
1165.29	2.0321e-05
1173.96	7.29821e-06
1182.64	3.55274e-06
1191.32	1.00744e-05
1200	6.4238e-05
1208.68	0.000122445
1217.36	9.01318e-05
1226.03	1.35274e-05
1234.71	1.05292e-05
1243.39	1.497e-05
1252.07	3.44273e-05
1260.75	9.56289e-05
1269.42	8.65243e-05
1278.1	2.67285e-05
1286.78	5.09903e-06
1295.46	1.13752e-05
1304.14	3.4445e-05
1312.82	3.60576e-05
1321.49	1.1418e-05
1330.17	5.1976e-06
1338.85	4.38033e-06
1347.53	4.33103e-06
1356.21	3.48653e-06
1364.88	1.17817e-06
1373.56	5.40881e-07
1382.24	7.37535e-07
1390.92	5.80336e-07
1399.6	5.54762e-07
1408.28	1.43314e-06
1416.95	3.83053e-06
1425.63	1.90708e-05
1434.31	4.60623e-05
1442.99	4.85508e-05
1451.67	1.58077e-05
1460.34	2.29645e-06
1469.02	1.25491e-06
1477.7	1.05077e-06
1486.38	9.37827e-07
1495.06	4.15089e-07
1503.74	6.19908e-09
1512.41	-2.4082e-07
1521.09	-9.02761e-07
1529.77	-9.88325e-08
1538.45	-5.85752e-07
1547.13	5.72324e-08
1555.8	5.15881e-08
1564.48	-2.8498e-08
1573.16	-1.80548e-07
1581.84	-1.16007e-07
1590.52	-2.79322e-07
1599.2	-9.78793e-09
1607.87	2.63324e-07
1616.55	-9.69674e-07
1625.23	-1.17533e-08
1633.91	-3.65226e-07
1642.59	-2.63961e-07
1651.26	-2.91141e-07
1659.94	-1.87595e-07
1668.62	-4.01244e-07
1677.3	-2.68513e-07
1685.98	-1.938e-07
1694.66	-2.46244e-07
1703.33	-1.00038e-07
1712.01	-9.38093e-08
1720.69	-8.43188e-09
1729.37	-8.44316e-08
1738.05	-1.40232e-07
1746.72	-3.60956e-07
1755.4	-4.58729e-07
1764.08	-1.7533e-07
1772.76	-9.56293e-07
1781.44	-3.22223e-08
1790.12	2.69245e-08
1798.79	1.65973e-07
1807.47	1.14749e-07
1816.15	1.32659e-07
1824.83	3.24735e-07
1833.51	1.89329e-07
1842.18	-2.15007e-07
1850.86	-3.00108e-07
1859.54	-3.25261e-07
1868.22	-4.1207e-07
1876.9	-3.12293e-07
1885.58	-3.39311e-07
1894.25	-2.94825e-07
1902.93	-3.4484e-07
1911.61	-2.60269e-07
1920.29	-2.54843e-07
1928.97	-1.55755e-07
1937.64	-6.11787e-08
1946.32	-7.3414e-08
1955	-1.86159e-07
1963.68	-3.59854e-07
1972.36	3.03051e-08
1981.04	3.78041e-07
1989.71	4.52719e-07
1998.39	-9.29954e-09
2007.07	2.52056e-08
2015.75	-7.51621e-08
2024.43	-2.00561e-08
2033.1	-1.0427e-07
2041.78	4.80047e-08
2050.46	8.60214e-08
2059.14	8.97685e-08
2067.82	-1.5999e-07
2076.5	2.78349e-08
2085.17	1.53774e-07
2093.85	4.96813e-07
2102.53	5.56753e-07
2111.21	1.74297e-07
2119.89	-4.36903e-07
2128.56	4.10416e-08
2137.24	-3.24952e-08
2145.92	-1.16615e-07
2154.6	-6.74597e-07
2163.28	-1.35035e-07
2171.96	-1.15633e-07
2180.63	8.62951e-08
2189.31	9.65633e-08
2197.99	5.89354e-07
2206.67	4.1219e-07
2215.35	1.11449e-08
2224.02	-1.02429e-07
2232.7	-3.54319e-08
2241.38	-9.81867e-08
2250.06	1.04942e-07
2258.74	1.12165e-07
2267.42	7.47483e-08
2276.09	-3.54537e-08
2284.77	-1.78989e-07
2293.45	-2.43468e-07
2302.13	-1.08822e-07
2310.81	-7.18335e-07
2319.48	-1.21102e-06
2328.16	-1.51817e-06
2336.84	-9.15914e-07
2345.52	-8.10348e-07
2354.2	-1.00273e-06
2362.88	-1.73053e-06
2371.55	1.757e-07
2380.23	6.04868e-07
2388.91	5.49792e-07
2397.59	9.22011e-07
2406.27	2.12364e-06
2414.94	9.41993e-07
2423.62	4.001e-07
2432.3	6.62363e-08
2440.98	3.9883e-07
2449.66	1.13269e-06
2458.34	2.11957e-06
2467.01	2.03697e-06
2475.69	1.22515e-06
2484.37	8.82918e-07
2493.05	7.71529e-07
2501.73	7.67602e-07
2510.4	1.14276e-06
2519.08	1.10324e-06
2527.76	6.1682e-07
2536.44	-7.03127e-08
2545.12	-2.1853e-07
2553.8	-8.98076e-08
2562.47	4.05664e-07
2571.15	5.49094e-07
2579.83	3.76801e-07
2588.51	2.81566e-07
2597.19	3.7437e-07
2605.86	1.9229e-07
2614.54	2.07693e-07
2623.22	-8.46035e-08
2631.9	9.00213e-09
2640.58	1.92732e-07
2649.26	1.37091e-07
2657.93	1.53267e-08
2666.61	4.08579e-08
2675.29	4.3932e-08
2683.97	2.34185e-08
2692.65	7.10866e-07
2701.32	7.13327e-07
2710	3.44508e-07
2718.68	4.50279e-08
2727.36	2.25345e-07
2736.04	6.19808e-07
2744.72	6.45246e-07
2753.39	3.92407e-07
2762.07	-1.47495e-07
2770.75	-5.08059e-08
2779.43	2.04402e-07
2788.11	1.35669e-08
2796.78	-3.79285e-08
2805.46	1.3794e-07
2814.14	4.7097e-08
2822.82	3.203e-07
2831.5	3.35923e-07
2840.18	6.32746e-07
2848.85	3.60177e-06
2857.53	7.32991e-06
2866.21	4.42417e-06
2874.89	6.18954e-07
2883.57	1.1166e-06
2892.24	1.08324e-06
2900.92	1.31136e-06
2909.6	1.24417e-06
2918.28	1.56891e-06
2926.96	1.85335e-06
2935.63	2.05146e-06
2944.31	2.23975e-06
2952.99	4.44169e-06
2961.67	1.4721e-05
2970.35	4.51309e-05
2979.03	4.8043e-05
2987.7	1.23539e-05
2996.38	6.64169e-06
3005.06	7.30406e-06
3013.74	9.49162e-06
3022.42	5.45753e-06
3031.09	5.08905e-06
3039.77	1.26584e-06
3048.45	6.3966e-07
3057.13	2.58688e-07
3065.81	7.12249e-08
3074.49	4.77953e-07
3083.16	4.40705e-07
3091.84	1.49073e-07
3100.52	9.62959e-08
3109.2	1.9076e-07
3117.88	1.05448e-07
3126.55	1.8861e-08
3135.23	2.05675e-07
3143.91	6.40145e-08
3152.59	2.93919e-07
3161.27	1.23972e-07
3169.95	1.64439e-07
3178.62	1.64093e-07
3187.3	1.84969e-07
3195.98	1.22572e-08
3204.66	-3.01923e-08
3213.34	9.57138e-08
3222.01	-1.16055e-07
3230.69	-2.69074e-07
3239.37	-1.13601e-07
3248.05	3.30545e-08
3256.73	7.5444e-08
3265.41	1.32242e-07
3274.08	-1.43432e-07
3282.76	1.54471e-07
3291.44	-1.39243e-08
3300.12	2.7046e-07
3308.8	-7.0631e-08
3317.47	6.75751e-09
3326.15	9.67743e-08
3334.83	-3.22132e-08
3343.51	2.38268e-08
3352.19	2.71897e-07
3360.87	3.31909e-08
3369.54	7.44381e-08
3378.22	-8.91009e-08
3386.9	1.43146e-07
3395.58	2.18485e-07
3404.26	5.34871e-07
3412.93	2.64947e-07
3421.61	3.06016e-08
3430.29	6.64564e-08
3438.97	-5.53579e-08
3447.65	3.31627e-08
3456.33	-1.04659e-07
3465	-7.01571e-08
3473.68	-3.39416e-07
3482.36	-1.07378e-07
3491.04	-1.33558e-07
3499.72	-2.88821e-07
3508.39	-9.79375e-08
3517.07	8.42451e-08
3525.75	-3.30762e-07
3534.43	1.18449e-07
3543.11	-3.01144e-07
3551.79	-2.80601e-07
3560.46	-1.00608e-07
3569.14	-2.32682e-07
3577.82	-1.09561e-07
3586.5	-3.20066e-07
3595.18	-2.75088e-07
3603.85	-2.15591e-07
3612.53	-3.50616e-07
3621.21	-4.4602e-07
3629.89	-5.13786e-07
3638.57	1.06492e-07
3647.25	-2.58706e-07
3655.92	-6.94914e-08
3664.6	2.2188e-07
3673.28	-2.08837e-08
3681.96	1.47956e-07
3690.64	-7.4269e-09
3699.31	2.13998e-07
3707.99	1.15513e-07
3716.67	1.33871e-07
3725.35	-1.23938e-07
3734.03	-2.13162e-07
3742.71	1.37509e-07
3751.38	2.19901e-07
3760.06	5.06354e-07
3768.74	7.75365e-07
3777.42	4.27791e-07
3786.1	2.06904e-07
3794.77	1.87533e-07
3803.45	2.70151e-07
3812.13	4.54612e-07
3820.81	-2.00629e-07
3829.49	-1.68084e-07
3838.17	-1.14263e-06
3846.84	-4.57801e-07
3855.52	-1.75939e-07
3864.2	-3.11997e-07
3872.88	-3.05887e-07
3881.56	-2.83896e-07
3890.23	2.63125e-08
3898.91	6.15252e-08
3907.59	3.51092e-07
3916.27	-8.39232e-08
3924.95	-2.33785e-07
3933.63	1.74853e-07
3942.3	1.95288e-07
3950.98	4.55242e-07
3959.66	9.80557e-07
3968.34	2.07599e-07
