Infrared Spectrum: Trichloroethene
Formula: C2 H Cl3
CAS: 79-01-6
State: gas
Melting point: -73 C
Boiling point: 87 C
Class: IUPAC A
Instrument: IFS66V (Bruker)
Instrument parameters: KBr Beam Splitter; MCT Detector; Multipass cell
Sampling: 1 L/min Flow
Resolution: 1.9290
Temperature: 23 C
Pressure: 101.3 Pa
Origin: NIST, Analytical Chemistry Division, 301-975-3108
cm-1	(micromol/mol)-1m-1 (base 10)
575.652	1.32559e-06
584.33	8.96056e-07
593.008	2.43988e-07
601.687	1.30476e-06
610.365	6.27639e-06
619.043	2.99864e-05
627.721	8.07386e-05
636.399	8.51207e-05
645.077	2.12411e-05
653.756	3.16198e-06
662.434	2.0071e-06
671.112	1.45008e-06
679.79	1.15999e-06
688.468	4.68238e-07
697.146	-4.01567e-08
705.825	9.03433e-08
714.503	3.75471e-07
723.181	3.26477e-07
731.859	1.14494e-06
740.537	1.74436e-06
749.216	2.31013e-06
757.894	5.00072e-06
766.572	4.06707e-05
775.25	9.7749e-05
783.928	0.000217643
792.606	9.66181e-05
801.285	3.71742e-05
809.963	1.4344e-05
818.641	6.11835e-06
827.319	2.6591e-05
835.997	0.000271728
844.676	0.000742907
853.354	0.000709033
862.032	1.49455e-05
870.71	4.38489e-06
879.388	2.7356e-06
888.066	3.21559e-06
896.745	1.07067e-05
905.423	2.25425e-05
914.101	3.51685e-05
922.779	0.000104282
931.457	0.000455953
940.135	0.000506613
948.814	0.000405786
957.492	5.57076e-05
966.17	6.24608e-06
974.848	8.53123e-06
983.526	1.28839e-05
992.205	1.04676e-05
1000.88	4.33151e-06
1009.56	8.21808e-06
1018.24	8.79315e-06
1026.92	6.086e-06
1035.6	2.01072e-06
1044.27	1.36331e-06
1052.95	9.35702e-07
1061.63	6.41699e-07
1070.31	5.94729e-07
1078.99	5.21872e-07
1087.66	6.73785e-07
1096.34	1.06424e-06
1105.02	2.35741e-06
1113.7	3.28623e-06
1122.38	1.98011e-06
1131.06	1.30671e-06
1139.73	8.72349e-07
1148.41	6.22254e-07
1157.09	3.57532e-07
1165.77	3.08392e-07
1174.45	4.81903e-07
1183.12	6.36631e-07
1191.8	6.33664e-07
1200.48	1.05469e-06
1209.16	2.32432e-06
1217.84	5.10281e-06
1226.52	1.10205e-05
1235.19	1.53041e-05
1243.87	4.57072e-05
1252.55	5.41593e-05
1261.23	3.90977e-05
1269.91	1.65137e-05
1278.58	3.56245e-06
1287.26	7.17569e-07
1295.94	5.02614e-07
1304.62	1.0597e-06
1313.3	1.93453e-06
1321.98	2.11554e-06
1330.65	1.23555e-06
1339.33	6.58456e-07
1348.01	5.51515e-07
1356.69	3.93199e-07
1365.37	7.40873e-07
1374.04	7.26252e-07
1382.72	1.00725e-06
1391.4	1.08285e-06
1400.08	8.71164e-07
1408.76	1.11617e-06
1417.44	1.15158e-06
1426.11	1.57651e-06
1434.79	8.83301e-07
1443.47	6.40391e-07
1452.15	6.12873e-07
1460.83	6.2235e-07
1469.5	6.25303e-07
1478.18	5.90906e-07
1486.86	4.23665e-07
1495.54	7.37496e-08
1504.22	2.93785e-07
1512.9	3.9639e-07
1521.57	-1.94497e-07
1530.25	9.27401e-07
1538.93	2.62907e-06
1547.61	1.69226e-05
1556.29	5.44126e-05
1564.96	5.06101e-05
1573.64	2.09833e-05
1582.32	3.71802e-05
1591	3.63159e-05
1599.68	2.97203e-05
1608.36	4.90689e-06
1617.03	-8.49546e-08
1625.71	4.98815e-07
1634.39	1.51064e-07
1643.07	2.86086e-07
1651.75	-5.40777e-07
1660.42	2.07025e-07
1669.1	-1.33574e-07
1677.78	5.1378e-07
1686.46	5.45874e-07
1695.14	-1.57053e-07
1703.82	1.76013e-07
1712.49	1.7575e-07
1721.17	4.24251e-07
1729.85	4.21993e-07
1738.53	6.08266e-07
1747.21	1.17808e-06
1755.88	2.40586e-06
1764.56	2.59494e-06
1773.24	1.83662e-06
1781.92	2.22448e-06
1790.6	2.40206e-06
1799.28	8.58405e-07
1807.95	6.73753e-07
1816.63	5.15377e-07
1825.31	4.20849e-07
1833.99	6.33366e-07
1842.67	5.95677e-07
1851.34	8.53893e-07
1860.02	1.4955e-06
1868.7	1.54923e-06
1877.38	1.23447e-06
1886.06	7.98271e-07
1894.74	1.98294e-07
1903.41	2.97149e-07
1912.09	4.18313e-07
1920.77	5.39795e-07
1929.45	5.66921e-07
1938.13	5.37304e-07
1946.8	5.59268e-07
1955.48	7.62916e-07
1964.16	8.01896e-07
1972.84	1.00423e-06
1981.52	6.85573e-07
1990.19	5.96526e-07
1998.87	6.59994e-07
2007.55	7.13799e-07
2016.23	6.16596e-07
2024.91	7.47864e-07
2033.59	8.59276e-07
2042.26	7.54303e-07
2050.94	7.27539e-07
2059.62	7.15395e-07
2068.3	9.18209e-07
2076.98	1.04776e-06
2085.65	1.35504e-06
2094.33	1.69528e-06
2103.01	1.38592e-06
2111.69	7.43705e-07
2120.37	7.54996e-07
2129.05	7.28751e-07
2137.72	7.32961e-07
2146.4	8.96045e-07
2155.08	8.10485e-07
2163.76	1.02138e-06
2172.44	9.49413e-07
2181.11	1.12272e-06
2189.79	1.09771e-06
2198.47	1.1696e-06
2207.15	1.07872e-06
2215.83	1.36623e-06
2224.51	1.35313e-06
2233.18	1.18055e-06
2241.86	1.03996e-06
2250.54	9.64784e-07
2259.22	1.02573e-06
2267.9	1.06912e-06
2276.57	1.03917e-06
2285.25	9.86547e-07
2293.93	1.10425e-06
2302.61	9.44437e-07
2311.29	1.12465e-06
2319.97	9.2491e-07
2328.64	9.48192e-07
2337.32	8.15811e-07
2346	8.9899e-07
2354.68	9.29789e-07
2363.36	7.77079e-07
2372.03	9.9732e-07
2380.71	1.10863e-06
2389.39	1.05872e-06
2398.07	1.18088e-06
2406.75	1.19091e-06
2415.43	1.27336e-06
2424.1	1.51484e-06
2432.78	1.57321e-06
2441.46	1.3105e-06
2450.14	1.35427e-06
2458.82	1.27422e-06
2467.49	1.55954e-06
2476.17	1.9378e-06
2484.85	1.97388e-06
2493.53	1.70596e-06
2502.21	1.69064e-06
2510.89	1.60534e-06
2519.56	1.73618e-06
2528.24	1.62906e-06
2536.92	1.3339e-06
2545.6	1.29311e-06
2554.28	1.26662e-06
2562.95	1.25301e-06
2571.63	1.22929e-06
2580.31	1.20862e-06
2588.99	1.1538e-06
2597.67	1.21396e-06
2606.35	1.28317e-06
2615.02	1.30853e-06
2623.7	1.33553e-06
2632.38	1.27131e-06
2641.06	1.29141e-06
2649.74	1.30089e-06
2658.41	1.24604e-06
2667.09	1.31379e-06
2675.77	1.43526e-06
2684.45	1.28118e-06
2693.13	1.37058e-06
2701.81	1.15301e-06
2710.48	1.48759e-06
2719.16	1.45994e-06
2727.84	1.37486e-06
2736.52	1.19683e-06
2745.2	1.25118e-06
2753.87	1.41136e-06
2762.55	1.42858e-06
2771.23	1.51043e-06
2779.91	1.51939e-06
2788.59	1.55176e-06
2797.27	1.70728e-06
2805.94	2.27692e-06
2814.62	2.58134e-06
2823.3	3.10588e-06
2831.98	2.95008e-06
2840.66	2.60538e-06
2849.33	1.77049e-06
2858.01	1.63318e-06
2866.69	1.59751e-06
2875.37	2.03735e-06
2884.05	1.65417e-06
2892.73	1.96617e-06
2901.4	2.18336e-06
2910.08	2.14597e-06
2918.76	2.12862e-06
2927.44	2.27881e-06
2936.12	2.63371e-06
2944.79	2.67966e-06
2953.47	2.70973e-06
2962.15	2.51767e-06
2970.83	3.23425e-06
2979.51	3.49997e-06
2988.19	3.65037e-06
2996.86	3.1974e-06
3005.54	2.77104e-06
3014.22	2.34825e-06
3022.9	2.30169e-06
3031.58	2.14024e-06
3040.25	2.18947e-06
3048.93	2.39716e-06
3057.61	2.52641e-06
3066.29	2.97126e-06
3074.97	5.76108e-06
3083.65	2.23598e-05
3092.32	6.39881e-05
3101	7.67773e-05
3109.68	1.12433e-05
3118.36	4.40535e-06
3127.04	3.93836e-06
3135.71	4.2395e-06
3144.39	4.90007e-06
3153.07	5.3085e-06
3161.75	9.40119e-06
3170.43	1.11399e-05
3179.11	8.36862e-06
3187.78	2.70929e-06
3196.46	2.35189e-06
3205.14	2.68678e-06
3213.82	2.37979e-06
3222.5	2.67102e-06
3231.17	2.85508e-06
3239.85	2.89176e-06
3248.53	2.65501e-06
3257.21	2.96359e-06
3265.89	2.82301e-06
3274.57	2.92972e-06
3283.24	2.57632e-06
3291.92	2.30639e-06
3300.6	2.45169e-06
3309.28	2.64247e-06
3317.96	2.63516e-06
3326.63	2.34652e-06
3335.31	2.22038e-06
3343.99	2.43883e-06
3352.67	2.31814e-06
3361.35	2.56707e-06
3370.03	2.29505e-06
3378.7	2.12675e-06
3387.38	2.63414e-06
3396.06	2.56172e-06
3404.74	2.17388e-06
3413.42	2.32155e-06
3422.09	2.36806e-06
3430.77	2.35513e-06
3439.45	2.52597e-06
3448.13	2.37188e-06
3456.81	2.49644e-06
3465.49	2.46246e-06
3474.16	2.51521e-06
3482.84	2.62066e-06
3491.52	2.31744e-06
3500.2	2.61046e-06
3508.88	2.63399e-06
3517.55	2.52356e-06
3526.23	2.61684e-06
3534.91	2.6545e-06
3543.59	2.5584e-06
3552.27	2.56371e-06
3560.95	2.55124e-06
3569.62	2.7198e-06
3578.3	2.60278e-06
3586.98	2.82149e-06
3595.66	2.72324e-06
3604.34	2.86425e-06
3613.01	2.70249e-06
3621.69	2.93483e-06
3630.37	2.71225e-06
3639.05	2.99715e-06
3647.73	2.75659e-06
3656.41	2.66131e-06
3665.08	3.16343e-06
3673.76	2.9634e-06
3682.44	2.96022e-06
3691.12	2.70502e-06
3699.8	3.42972e-06
3708.47	3.09789e-06
3717.15	3.65588e-06
3725.83	3.76899e-06
3734.51	3.48863e-06
3743.19	2.89976e-06
3751.87	2.25084e-06
3760.54	3.00376e-06
3769.22	3.06716e-06
3777.9	2.93381e-06
3786.58	3.2288e-06
3795.26	3.1355e-06
3803.93	2.98419e-06
3812.61	3.09261e-06
3821.29	2.73602e-06
3829.97	3.29422e-06
3838.65	2.47748e-06
3847.33	3.21044e-06
3856	3.01075e-06
3864.68	3.0186e-06
3873.36	3.33657e-06
3882.04	3.28455e-06
3890.72	2.9803e-06
3899.39	2.93064e-06
3908.07	3.11837e-06
3916.75	2.99904e-06
3925.43	3.16286e-06
3934.11	3.66628e-06
3942.79	4.0179e-06
3951.46	3.59002e-06
3960.14	3.3813e-06
3968.82	3.40697e-06
