Infrared Spectrum: Trichloroethene
Formula: C2 H Cl3
CAS: 79-01-6
State: gas
Melting point: -73 C
Boiling point: 87 C
Class: IUPAC A
Instrument: IFS66V (Bruker)
Instrument parameters: KBr Beam Splitter; MCT Detector; Multipass cell
Sampling: 1 L/min Flow
Resolution: 0.4820
Temperature: 23 C
Pressure: 101.3 Pa
Origin: NIST, Analytical Chemistry Division, 301-975-3108
cm-1	(micromol/mol)-1m-1 (base 10)
575.17	-4.66659e-07
583.848	-1.81617e-07
592.526	1.2796e-07
601.205	1.29087e-06
609.883	6.68756e-06
618.561	2.63337e-05
627.239	7.84175e-05
635.917	8.27156e-05
644.595	2.35311e-05
653.274	3.66475e-06
661.952	1.4092e-06
670.63	1.03081e-06
679.308	9.1186e-07
687.986	5.63886e-07
696.664	2.09619e-07
705.343	3.75601e-07
714.021	5.36003e-07
722.699	3.38354e-07
731.377	1.10638e-06
740.055	1.83799e-06
748.734	2.02669e-06
757.412	4.56298e-06
766.09	3.66992e-05
774.768	9.42212e-05
783.446	0.000260917
792.124	9.84963e-05
800.803	4.01672e-05
809.481	1.54331e-05
818.159	5.93997e-06
826.837	2.40489e-05
835.515	0.000240913
844.193	0.000717534
852.872	0.000707397
861.55	1.76971e-05
870.228	4.1784e-06
878.906	2.49727e-06
887.584	3.09235e-06
896.263	9.81786e-06
904.941	2.37751e-05
913.619	3.44958e-05
922.297	9.48334e-05
930.975	0.000429163
939.653	0.000504888
948.332	0.00045008
957.01	6.2395e-05
965.688	6.75898e-06
974.366	7.94621e-06
983.044	1.18387e-05
991.723	1.09505e-05
1000.4	4.51951e-06
1009.08	8.33494e-06
1017.76	8.87454e-06
1026.44	6.71926e-06
1035.11	2.06564e-06
1043.79	1.41355e-06
1052.47	1.1359e-06
1061.15	9.00697e-07
1069.83	8.75653e-07
1078.5	5.84254e-07
1087.18	7.69798e-07
1095.86	9.48715e-07
1104.54	2.16046e-06
1113.22	3.29579e-06
1121.9	2.10253e-06
1130.57	1.42432e-06
1139.25	1.01646e-06
1147.93	5.66911e-07
1156.61	4.96385e-07
1165.29	6.06652e-07
1173.96	5.6455e-07
1182.64	7.47384e-07
1191.32	6.87184e-07
1200	9.6083e-07
1208.68	2.4636e-06
1217.36	4.78375e-06
1226.03	1.07294e-05
1234.71	1.58427e-05
1243.39	4.36584e-05
1252.07	5.18371e-05
1260.75	4.10322e-05
1269.42	1.73092e-05
1278.1	3.93284e-06
1286.78	6.58616e-07
1295.46	4.73534e-07
1304.14	8.57813e-07
1312.82	1.90901e-06
1321.49	2.3606e-06
1330.17	1.53277e-06
1338.85	6.16583e-07
1347.53	4.69258e-07
1356.21	4.99141e-07
1364.88	7.44037e-07
1373.56	2.3402e-07
1382.24	9.9185e-07
1390.92	8.44697e-07
1399.6	9.0943e-07
1408.28	1.21953e-06
1416.95	1.22514e-06
1425.63	1.64671e-06
1434.31	9.85631e-07
1442.99	8.15396e-07
1451.67	5.39531e-07
1460.34	5.97123e-07
1469.02	6.85753e-07
1477.7	8.01167e-07
1486.38	4.2219e-07
1495.06	2.45491e-07
1503.73	6.352e-07
1512.41	1.52844e-07
1521.09	-1.00927e-06
1529.77	8.39361e-07
1538.45	2.97535e-06
1547.13	1.55612e-05
1555.8	5.67965e-05
1564.48	5.12643e-05
1573.16	2.08829e-05
1581.84	3.52577e-05
1590.52	3.67308e-05
1599.19	3.23564e-05
1607.87	5.43681e-06
1616.55	-1.23152e-06
1625.23	4.00662e-07
1633.91	5.05438e-07
1642.59	3.91615e-07
1651.26	2.40046e-07
1659.94	3.5534e-08
1668.62	1.28402e-07
1677.3	5.36959e-07
1685.98	6.42248e-07
1694.65	6.0471e-07
1703.33	3.18389e-07
1712.01	5.61222e-08
1720.69	4.09018e-07
1729.37	2.20767e-07
1738.05	6.94331e-07
1746.72	1.15083e-06
1755.4	2.38899e-06
1764.08	2.44235e-06
1772.76	5.9185e-07
1781.44	2.25359e-06
1790.11	2.66067e-06
1798.79	9.10605e-07
1807.47	7.61313e-07
1816.15	5.40755e-07
1824.83	4.33742e-07
1833.51	6.67269e-07
1842.18	6.16887e-07
1850.86	7.18378e-07
1859.54	1.48012e-06
1868.22	1.80988e-06
1876.9	1.18783e-06
1885.57	7.36129e-07
1894.25	3.11658e-07
1902.93	2.18148e-07
1911.61	5.65882e-07
1920.29	6.20285e-07
1928.97	6.31222e-07
1937.64	6.29596e-07
1946.32	6.79765e-07
1955	7.85399e-07
1963.68	7.63978e-07
1972.36	8.32614e-07
1981.03	7.04047e-07
1989.71	5.80158e-07
1998.39	5.60536e-07
2007.07	6.07373e-07
2015.75	6.60865e-07
2024.43	7.24852e-07
2033.1	7.56581e-07
2041.78	9.52878e-07
2050.46	6.50468e-07
2059.14	7.62819e-07
2067.82	9.54977e-07
2076.49	1.1605e-06
2085.17	1.42823e-06
2093.85	1.76785e-06
2102.53	1.40433e-06
2111.21	9.26722e-07
2119.89	4.70406e-07
2128.56	7.36431e-07
2137.24	6.86822e-07
2145.92	9.78656e-07
2154.6	5.45783e-07
2163.28	1.15351e-06
2171.95	9.76655e-07
2180.63	1.10862e-06
2189.31	1.05725e-06
2197.99	1.30275e-06
2206.67	1.01078e-06
2215.35	1.40344e-06
2224.02	1.29775e-06
2232.7	1.2583e-06
2241.38	9.99242e-07
2250.06	1.06414e-06
2258.74	1.14987e-06
2267.41	1.09218e-06
2276.09	1.01869e-06
2284.77	1.17678e-06
2293.45	1.14089e-06
2302.13	1.10353e-06
2310.81	9.96593e-07
2319.48	9.85244e-07
2328.16	9.77584e-07
2336.84	1.07254e-06
2345.52	8.7942e-07
2354.2	7.85992e-07
2362.87	3.91711e-07
2371.55	9.64173e-07
2380.23	1.18634e-06
2388.91	9.19763e-07
2397.59	1.07882e-06
2406.27	1.04937e-06
2414.94	1.26872e-06
2423.62	1.54402e-06
2432.3	1.63179e-06
2440.98	1.30733e-06
2449.66	1.38935e-06
2458.33	1.26133e-06
2467.01	1.67859e-06
2475.69	1.93602e-06
2484.37	2.16075e-06
2493.05	1.87037e-06
2501.73	1.43876e-06
2510.4	1.49256e-06
2519.08	1.60073e-06
2527.76	1.77662e-06
2536.44	1.60201e-06
2545.12	1.4857e-06
2553.79	1.33529e-06
2562.47	1.08495e-06
2571.15	1.3688e-06
2579.83	1.2573e-06
2588.51	9.59721e-07
2597.19	1.417e-06
2605.86	1.49766e-06
2614.54	1.13495e-06
2623.22	1.27391e-06
2631.9	1.19145e-06
2640.58	1.28994e-06
2649.25	1.03704e-06
2657.93	1.05665e-06
2666.61	1.47078e-06
2675.29	1.36245e-06
2683.97	1.28434e-06
2692.65	1.41425e-06
2701.32	1.04885e-06
2710	1.47504e-06
2718.68	1.57467e-06
2727.36	1.42546e-06
2736.04	1.32265e-06
2744.71	1.33623e-06
2753.39	1.67566e-06
2762.07	1.63682e-06
2770.75	1.74961e-06
2779.43	1.22683e-06
2788.11	1.61503e-06
2796.78	1.88074e-06
2805.46	2.18236e-06
2814.14	2.39972e-06
2822.82	2.95218e-06
2831.5	2.55944e-06
2840.17	2.43886e-06
2848.85	1.77459e-06
2857.53	1.59996e-06
2866.21	1.63305e-06
2874.89	1.97169e-06
2883.57	1.73675e-06
2892.24	1.93602e-06
2900.92	2.38926e-06
2909.6	1.90077e-06
2918.28	1.9192e-06
2926.96	2.04818e-06
2935.63	2.61138e-06
2944.31	2.78968e-06
2952.99	2.44198e-06
2961.67	1.6068e-06
2970.35	3.04744e-06
2979.03	3.64502e-06
2987.7	3.76585e-06
2996.38	2.91476e-06
3005.06	2.99963e-06
3013.74	2.72256e-06
3022.42	2.59058e-06
3031.09	1.82612e-06
3039.77	2.17759e-06
3048.45	2.33555e-06
3057.13	2.35883e-06
3065.81	2.80108e-06
3074.49	5.73587e-06
3083.16	1.95937e-05
3091.84	6.7682e-05
3100.52	7.90349e-05
3109.2	1.22951e-05
3117.88	4.26833e-06
3126.55	3.64263e-06
3135.23	4.35984e-06
3143.91	4.7699e-06
3152.59	5.01471e-06
3161.27	8.97172e-06
3169.95	1.08062e-05
3178.62	9.1997e-06
3187.3	2.6478e-06
3195.98	1.7966e-06
3204.66	2.8753e-06
3213.34	2.17721e-06
3222.01	2.84741e-06
3230.69	3.00028e-06
3239.37	2.67145e-06
3248.05	2.51666e-06
3256.73	2.89346e-06
3265.4	2.76288e-06
3274.08	3.20965e-06
3282.76	2.29244e-06
3291.44	2.18129e-06
3300.12	2.69732e-06
3308.8	2.48914e-06
3317.47	2.65308e-06
3326.15	2.51985e-06
3334.83	1.87661e-06
3343.51	2.71639e-06
3352.19	1.75455e-06
3360.86	2.78302e-06
3369.54	2.62316e-06
3378.22	1.72624e-06
3386.9	2.57399e-06
3395.58	2.84899e-06
3404.26	2.16215e-06
3412.93	2.1992e-06
3421.61	2.42921e-06
3430.29	2.30399e-06
3438.97	2.82066e-06
3447.65	2.06896e-06
3456.32	2.55521e-06
3465	2.33355e-06
3473.68	2.38305e-06
3482.36	2.70696e-06
3491.04	2.46576e-06
3499.72	2.9112e-06
3508.39	2.48197e-06
3517.07	2.5179e-06
3525.75	2.8534e-06
3534.43	3.07627e-06
3543.11	2.19885e-06
3551.78	2.28553e-06
3560.46	2.23086e-06
3569.14	2.79842e-06
3577.82	2.3153e-06
3586.5	2.44794e-06
3595.18	2.46989e-06
3603.85	2.40744e-06
3612.53	2.50692e-06
3621.21	2.76475e-06
3629.89	2.39566e-06
3638.57	2.79213e-06
3647.24	2.73327e-06
3655.92	2.50556e-06
3664.6	3.36743e-06
3673.28	3.01841e-06
3681.96	3.01937e-06
3690.64	2.96897e-06
3699.31	3.34828e-06
3707.99	3.33309e-06
3716.67	3.96674e-06
3725.35	4.16949e-06
3734.03	3.34772e-06
3742.7	3.58885e-06
3751.38	2.82193e-06
3760.06	2.58134e-06
3768.74	3.42855e-06
3777.42	2.97292e-06
3786.1	3.35097e-06
3794.77	3.42587e-06
3803.45	3.31243e-06
3812.13	3.13765e-06
3820.81	2.48643e-06
3829.49	3.32154e-06
3838.16	2.14972e-06
3846.84	3.04561e-06
3855.52	2.90147e-06
3864.2	3.48642e-06
3872.88	3.44197e-06
3881.56	3.31644e-06
3890.23	3.52181e-06
3898.91	3.08185e-06
3907.59	3.1203e-06
3916.27	3.06042e-06
3924.95	2.85176e-06
3933.62	3.49728e-06
3942.3	3.84816e-06
3950.98	4.15032e-06
3959.66	3.29579e-06
3968.34	3.29961e-06
