Infrared Spectrum: Trichloroethene
Formula: C2 H Cl3
CAS: 79-01-6
State: gas
Melting point: -73 C
Boiling point: 87 C
Class: IUPAC A
Instrument: IFS66V (Bruker)
Instrument parameters: KBr Beam Splitter; MCT Detector; Multipass cell
Sampling: 1 L/min Flow
Resolution: 1.9290
Temperature: 23 C
Pressure: 101.3 Pa
Origin: NIST, Analytical Chemistry Division, 301-975-3108
cm-1	(micromol/mol)-1m-1 (base 10)
575.652	1.33797e-06
584.33	6.73251e-07
593.008	5.91289e-07
601.687	7.49241e-07
610.365	6.46151e-06
619.043	2.88548e-05
627.721	8.16411e-05
636.399	8.65185e-05
645.077	2.12681e-05
653.756	2.88555e-06
662.434	2.40234e-06
671.112	6.8966e-07
679.79	1.83242e-06
688.468	-3.4008e-07
697.146	3.23708e-07
705.825	-5.82333e-07
714.503	1.07885e-06
723.181	-7.46133e-07
731.859	2.18833e-06
740.537	4.49231e-07
749.216	3.82715e-06
757.894	2.8918e-06
766.572	4.34171e-05
775.25	9.05925e-05
783.928	8.01304e-05
792.606	0.000100497
801.285	3.50024e-05
809.963	1.56001e-05
818.641	5.0566e-06
827.319	2.68049e-05
835.997	0.000270002
844.676	0.000731236
853.354	0.000724069
862.032	1.32516e-05
870.71	3.79079e-06
879.388	3.22491e-06
888.066	2.88235e-06
896.745	1.10322e-05
905.423	2.25512e-05
914.101	3.52813e-05
922.779	0.000103145
931.457	0.000456785
940.135	0.000500461
948.814	0.000404116
957.492	5.48865e-05
966.17	6.35661e-06
974.848	8.14553e-06
983.526	1.2947e-05
992.205	1.04041e-05
1000.88	4.5169e-06
1009.56	8.24731e-06
1018.24	8.98702e-06
1026.92	5.94002e-06
1035.6	1.94642e-06
1044.27	1.22003e-06
1052.95	9.55298e-07
1061.63	5.96795e-07
1070.31	5.87995e-07
1078.99	4.43519e-07
1087.66	6.72987e-07
1096.34	1.04422e-06
1105.02	2.45776e-06
1113.7	3.29522e-06
1122.38	1.8716e-06
1131.06	1.29706e-06
1139.73	8.70308e-07
1148.41	4.31803e-07
1157.09	5.47025e-07
1165.77	3.61765e-07
1174.45	5.52899e-07
1183.12	6.12506e-07
1191.8	6.03211e-07
1200.48	8.39828e-07
1209.16	2.26449e-06
1217.84	4.979e-06
1226.52	1.11466e-05
1235.19	1.55098e-05
1243.87	4.599e-05
1252.55	5.28735e-05
1261.23	3.93309e-05
1269.91	1.6654e-05
1278.58	3.54624e-06
1287.26	7.68612e-07
1295.94	4.95176e-07
1304.62	1.00225e-06
1313.3	2.03593e-06
1321.98	2.2034e-06
1330.65	1.1848e-06
1339.33	6.7283e-07
1348.01	5.32684e-07
1356.69	5.31406e-07
1365.37	6.52791e-07
1374.04	5.00544e-07
1382.72	8.59822e-07
1391.4	1.07618e-06
1400.08	9.11781e-07
1408.76	1.18992e-06
1417.44	1.2331e-06
1426.11	1.67555e-06
1434.79	8.86768e-07
1443.47	5.73765e-07
1452.15	5.88696e-07
1460.83	5.68214e-07
1469.5	6.52581e-07
1478.18	5.22346e-07
1486.86	3.81137e-07
1495.54	8.78258e-08
1504.22	7.01684e-07
1512.9	3.34536e-07
1521.57	-3.47333e-07
1530.25	1.05375e-06
1538.93	2.3227e-06
1547.61	1.6585e-05
1556.29	5.62542e-05
1564.96	5.19576e-05
1573.64	2.03247e-05
1582.32	3.73143e-05
1591	3.56744e-05
1599.68	2.98413e-05
1608.36	4.74433e-06
1617.03	-4.7939e-07
1625.71	5.09327e-07
1634.39	5.18005e-07
1643.07	2.39344e-07
1651.75	-1.88911e-07
1660.42	1.62318e-07
1669.1	-4.35586e-07
1677.78	5.55566e-07
1686.46	1.0135e-06
1695.14	-2.31504e-07
1703.82	2.3879e-07
1712.49	5.43084e-08
1721.17	5.36811e-07
1729.85	2.7861e-07
1738.53	8.71609e-07
1747.21	1.06258e-06
1755.88	2.47674e-06
1764.56	2.50895e-06
1773.24	1.73769e-06
1781.92	2.06865e-06
1790.6	2.42467e-06
1799.28	6.63888e-07
1807.95	7.27061e-07
1816.63	3.81191e-07
1825.31	3.67459e-07
1833.99	4.76595e-07
1842.67	7.42304e-07
1851.34	7.72696e-07
1860.02	1.6827e-06
1868.7	1.37568e-06
1877.38	1.27897e-06
1886.06	6.976e-07
1894.74	3.0473e-07
1903.41	1.20647e-07
1912.09	5.84387e-07
1920.77	3.91197e-07
1929.45	6.77932e-07
1938.13	5.30533e-07
1946.8	5.83675e-07
1955.48	6.83822e-07
1964.16	8.3328e-07
1972.84	8.77033e-07
1981.52	6.86983e-07
1990.19	5.26088e-07
1998.87	6.54615e-07
2007.55	6.28213e-07
2016.23	5.5806e-07
2024.91	6.89801e-07
2033.59	9.2711e-07
2042.26	6.34409e-07
2050.94	8.57576e-07
2059.62	5.81135e-07
2068.3	9.90968e-07
2076.98	9.89715e-07
2085.65	1.45479e-06
2094.33	1.58854e-06
2103.01	1.32933e-06
2111.69	4.59202e-07
2120.37	8.74894e-07
2129.05	7.44248e-07
2137.72	7.59632e-07
2146.4	7.97467e-07
2155.08	8.37571e-07
2163.76	9.91294e-07
2172.44	8.91477e-07
2181.11	1.07728e-06
2189.79	1.16445e-06
2198.47	1.2102e-06
2207.15	1.15922e-06
2215.83	1.26934e-06
2224.51	1.34178e-06
2233.18	1.12505e-06
2241.86	1.07015e-06
2250.54	8.66213e-07
2259.22	9.78675e-07
2267.9	9.83572e-07
2276.57	1.15539e-06
2285.25	9.41588e-07
2293.93	1.13098e-06
2302.61	8.07024e-07
2311.29	1.06538e-06
2319.97	8.6425e-07
2328.64	1.05826e-06
2337.32	6.99267e-07
2346	9.0789e-07
2354.68	8.7857e-07
2363.36	8.10242e-07
2372.03	1.08638e-06
2380.71	1.15524e-06
2389.39	8.32691e-07
2398.07	1.31138e-06
2406.75	1.0548e-06
2415.43	1.35721e-06
2424.1	1.42154e-06
2432.78	1.64744e-06
2441.46	1.22874e-06
2450.14	1.52076e-06
2458.82	1.13288e-06
2467.49	1.53141e-06
2476.17	1.83343e-06
2484.85	2.06941e-06
2493.53	1.60036e-06
2502.21	1.8783e-06
2510.89	1.59123e-06
2519.56	1.82713e-06
2528.24	1.44114e-06
2536.92	1.39116e-06
2545.6	1.33879e-06
2554.28	1.49067e-06
2562.95	1.31755e-06
2571.63	1.26073e-06
2580.31	1.14136e-06
2588.99	1.14227e-06
2597.67	1.15209e-06
2606.35	1.29732e-06
2615.02	1.15428e-06
2623.7	1.42309e-06
2632.38	1.15862e-06
2641.06	1.34288e-06
2649.74	1.06992e-06
2658.41	1.29367e-06
2667.09	1.21991e-06
2675.77	1.62932e-06
2684.45	1.16641e-06
2693.13	1.4929e-06
2701.81	1.0293e-06
2710.48	1.63494e-06
2719.16	1.32206e-06
2727.84	1.46732e-06
2736.52	1.09429e-06
2745.2	1.2576e-06
2753.87	1.43774e-06
2762.55	1.577e-06
2771.23	1.45718e-06
2779.91	1.5444e-06
2788.59	1.49484e-06
2797.27	1.84365e-06
2805.94	2.40291e-06
2814.62	2.70341e-06
2823.3	3.05442e-06
2831.98	3.05714e-06
2840.66	2.49537e-06
2849.33	1.87013e-06
2858.01	1.4192e-06
2866.69	1.7353e-06
2875.37	2.13641e-06
2884.05	1.65499e-06
2892.73	1.97153e-06
2901.4	2.17171e-06
2910.08	2.02137e-06
2918.76	2.20151e-06
2927.44	2.18683e-06
2936.12	2.80575e-06
2944.79	2.54605e-06
2953.47	2.66111e-06
2962.15	2.19953e-06
2970.83	3.2107e-06
2979.51	3.5311e-06
2988.19	3.92334e-06
2996.86	2.95771e-06
3005.54	3.06377e-06
3014.22	2.2192e-06
3022.9	2.3844e-06
3031.58	2.04582e-06
3040.25	2.36153e-06
3048.93	2.13019e-06
3057.61	2.42264e-06
3066.29	2.98134e-06
3074.97	5.69366e-06
3083.65	2.21877e-05
3092.32	6.43479e-05
3101	7.74849e-05
3109.68	1.14051e-05
3118.36	4.23829e-06
3127.04	4.11312e-06
3135.71	3.99437e-06
3144.39	5.19878e-06
3153.07	4.88189e-06
3161.75	9.38005e-06
3170.43	1.11034e-05
3179.11	8.5565e-06
3187.78	2.42727e-06
3196.46	2.42359e-06
3205.14	2.51976e-06
3213.82	2.46723e-06
3222.5	2.35566e-06
3231.17	3.08551e-06
3239.85	2.86304e-06
3248.53	2.98533e-06
3257.21	2.68199e-06
3265.89	2.89427e-06
3274.57	2.89329e-06
3283.24	2.8517e-06
3291.92	2.0933e-06
3300.6	2.40479e-06
3309.28	2.67477e-06
3317.96	2.79043e-06
3326.63	2.05745e-06
3335.31	2.14042e-06
3343.99	2.2459e-06
3352.67	2.27322e-06
3361.35	2.45237e-06
3370.03	2.32543e-06
3378.7	1.82586e-06
3387.38	2.7306e-06
3396.06	2.44664e-06
3404.74	2.10496e-06
3413.42	2.35002e-06
3422.09	2.30843e-06
3430.77	2.35147e-06
3439.45	2.65237e-06
3448.13	2.18266e-06
3456.81	2.62331e-06
3465.49	2.30106e-06
3474.16	2.5401e-06
3482.84	2.45138e-06
3491.52	2.46415e-06
3500.2	2.49751e-06
3508.88	2.75155e-06
3517.55	2.38562e-06
3526.23	2.60249e-06
3534.91	2.40456e-06
3543.59	2.43532e-06
3552.27	2.37634e-06
3560.95	2.46478e-06
3569.62	2.64807e-06
3578.3	2.58467e-06
3586.98	2.70999e-06
3595.66	2.78594e-06
3604.34	2.76653e-06
3613.01	2.74535e-06
3621.69	2.65828e-06
3630.37	2.98885e-06
3639.05	2.95293e-06
3647.73	2.99592e-06
3656.41	2.35206e-06
3665.08	3.34446e-06
3673.76	2.8459e-06
3682.44	2.96175e-06
3691.12	2.3745e-06
3699.8	3.52782e-06
3708.47	3.07271e-06
3717.15	3.62714e-06
3725.83	3.67912e-06
3734.51	3.36457e-06
3743.19	3.30317e-06
3751.87	1.70016e-06
3760.54	2.82762e-06
3769.22	3.18508e-06
3777.9	2.82816e-06
3786.58	3.51676e-06
3795.26	3.10065e-06
3803.93	2.92584e-06
3812.61	2.82542e-06
3821.29	2.70447e-06
3829.97	3.33701e-06
3838.65	2.73601e-06
3847.33	3.11718e-06
3856	3.36729e-06
3864.68	2.7797e-06
3873.36	3.60591e-06
3882.04	3.11616e-06
3890.72	3.02233e-06
3899.39	2.5773e-06
3908.07	3.13505e-06
3916.75	2.69557e-06
3925.43	3.24205e-06
3934.11	3.7512e-06
3942.79	4.16225e-06
3951.46	3.35636e-06
3960.14	3.63779e-06
3968.82	3.28995e-06
