Infrared Spectrum: Trichloroethene
Formula: C2 H Cl3
CAS: 79-01-6
State: gas
Melting point: -73 C
Boiling point: 87 C
Class: IUPAC A
Instrument: IFS66V (Bruker)
Instrument parameters: KBr Beam Splitter; MCT Detector; Multipass cell
Sampling: 1 L/min Flow
Resolution: 0.4820
Temperature: 23 C
Pressure: 101.3 Pa
Origin: NIST, Analytical Chemistry Division, 301-975-3108
cm-1	(micromol/mol)-1m-1 (base 10)
575.17	-1.1322e-07
583.848	-2.88126e-09
592.526	2.31463e-07
601.205	1.42197e-06
609.883	6.78242e-06
618.561	2.65787e-05
627.239	7.80967e-05
635.917	8.20247e-05
644.595	2.37829e-05
653.274	3.80105e-06
661.952	1.53093e-06
670.63	1.10324e-06
679.308	9.64993e-07
687.986	6.31421e-07
696.664	2.93666e-07
705.343	4.22047e-07
714.021	5.78442e-07
722.699	4.3406e-07
731.377	1.18553e-06
740.055	1.94796e-06
748.734	2.20652e-06
757.412	4.93034e-06
766.09	3.70097e-05
774.768	9.4508e-05
783.446	0.000260022
792.124	9.82378e-05
800.803	4.04556e-05
809.481	1.58487e-05
818.159	6.63172e-06
826.837	2.54826e-05
835.515	0.000242126
844.193	0.000714286
852.872	0.000701803
861.55	2.20141e-05
870.228	5.1738e-06
878.906	3.07407e-06
887.584	3.5442e-06
896.263	1.02274e-05
904.941	2.40807e-05
913.619	3.51634e-05
922.297	9.6228e-05
930.975	0.000427294
939.653	0.000505096
948.332	0.00044807
957.01	6.38485e-05
965.688	7.53162e-06
974.366	8.33805e-06
983.044	1.21126e-05
991.723	1.1035e-05
1000.4	4.65307e-06
1009.08	8.3648e-06
1017.76	8.90385e-06
1026.44	6.72791e-06
1035.11	2.1371e-06
1043.79	1.46142e-06
1052.47	1.16008e-06
1061.15	9.07463e-07
1069.83	9.00904e-07
1078.5	6.12582e-07
1087.18	8.12369e-07
1095.86	9.69165e-07
1104.54	2.18201e-06
1113.22	3.30648e-06
1121.9	2.11607e-06
1130.57	1.44676e-06
1139.25	1.02401e-06
1147.93	5.92987e-07
1156.61	5.0085e-07
1165.29	5.9666e-07
1173.96	5.61114e-07
1182.64	7.4132e-07
1191.32	7.16115e-07
1200	1.01254e-06
1208.68	2.48051e-06
1217.36	4.85389e-06
1226.03	1.07251e-05
1234.71	1.58233e-05
1243.39	4.3415e-05
1252.07	5.17651e-05
1260.75	4.08803e-05
1269.42	1.7291e-05
1278.1	4.0175e-06
1286.78	7.16818e-07
1295.46	5.15017e-07
1304.14	8.83487e-07
1312.82	1.90602e-06
1321.49	2.35375e-06
1330.17	1.51393e-06
1338.85	6.36097e-07
1347.53	4.84132e-07
1356.21	4.69593e-07
1364.88	7.56711e-07
1373.56	2.83723e-07
1382.24	1.00513e-06
1390.92	8.85952e-07
1399.6	9.12871e-07
1408.28	1.20723e-06
1416.95	1.21084e-06
1425.63	1.62643e-06
1434.31	9.77826e-07
1442.99	8.11092e-07
1451.67	5.40055e-07
1460.34	6.14873e-07
1469.02	6.89185e-07
1477.7	7.84073e-07
1486.38	4.36749e-07
1495.06	2.36079e-07
1503.73	6.1969e-07
1512.41	2.07949e-07
1521.09	-8.62212e-07
1529.77	8.83546e-07
1538.45	3.02477e-06
1547.13	1.56793e-05
1555.8	5.60469e-05
1564.48	5.07111e-05
1573.16	2.11124e-05
1581.84	3.52085e-05
1590.52	3.68197e-05
1599.19	3.22387e-05
1607.87	5.5611e-06
1616.55	-1.02592e-06
1625.23	4.22533e-07
1633.91	5.07758e-07
1642.59	4.05632e-07
1651.26	2.11699e-07
1659.94	5.47622e-08
1668.62	1.13982e-07
1677.3	5.19395e-07
1685.98	5.91088e-07
1694.65	5.57797e-07
1703.33	3.10302e-07
1712.01	8.09191e-08
1720.69	4.03636e-07
1729.37	2.49314e-07
1738.05	6.75313e-07
1746.72	1.15987e-06
1755.4	2.38071e-06
1764.08	2.45442e-06
1772.76	7.16168e-07
1781.44	2.25543e-06
1790.11	2.62151e-06
1798.79	9.21832e-07
1807.47	7.53366e-07
1816.15	5.4168e-07
1824.83	4.51688e-07
1833.51	6.60674e-07
1842.18	6.14024e-07
1850.86	7.24829e-07
1859.54	1.47077e-06
1868.22	1.80299e-06
1876.9	1.20476e-06
1885.57	7.51601e-07
1894.25	3.07627e-07
1902.93	2.36644e-07
1911.61	5.57779e-07
1920.29	6.02199e-07
1928.97	6.28924e-07
1937.64	6.1364e-07
1946.32	6.73546e-07
1955	7.90681e-07
1963.68	7.60256e-07
1972.36	8.31989e-07
1981.03	7.04622e-07
1989.71	5.81396e-07
1998.39	5.65569e-07
2007.07	6.1723e-07
2015.75	6.61076e-07
2024.43	7.21201e-07
2033.1	7.43825e-07
2041.78	9.51781e-07
2050.46	6.49317e-07
2059.14	7.61573e-07
2067.82	9.5658e-07
2076.49	1.15443e-06
2085.17	1.42329e-06
2093.85	1.76028e-06
2102.53	1.38483e-06
2111.21	9.43739e-07
2119.89	4.96834e-07
2128.56	7.30056e-07
2137.24	6.89776e-07
2145.92	9.59822e-07
2154.6	5.69745e-07
2163.28	1.13602e-06
2171.95	9.56891e-07
2180.63	1.10985e-06
2189.31	1.04934e-06
2197.99	1.29087e-06
2206.67	1.03066e-06
2215.35	1.40498e-06
2224.02	1.30329e-06
2232.7	1.25594e-06
2241.38	1.0007e-06
2250.06	1.05233e-06
2258.74	1.14396e-06
2267.41	1.08651e-06
2276.09	1.01142e-06
2284.77	1.16105e-06
2293.45	1.13147e-06
2302.13	1.0922e-06
2310.81	1.0018e-06
2319.48	9.99439e-07
2328.16	9.59163e-07
2336.84	1.04903e-06
2345.52	8.86615e-07
2354.2	8.04627e-07
2362.87	4.16862e-07
2371.55	9.80343e-07
2380.23	1.17486e-06
2388.91	9.34164e-07
2397.59	1.08028e-06
2406.27	1.07501e-06
2414.94	1.27416e-06
2423.62	1.54368e-06
2432.3	1.62393e-06
2440.98	1.31031e-06
2449.66	1.38659e-06
2458.33	1.25977e-06
2467.01	1.67593e-06
2475.69	1.93829e-06
2484.37	2.13318e-06
2493.05	1.84563e-06
2501.73	1.4671e-06
2510.4	1.5019e-06
2519.08	1.59985e-06
2527.76	1.77397e-06
2536.44	1.57645e-06
2545.12	1.45769e-06
2553.79	1.32406e-06
2562.47	1.09237e-06
2571.15	1.35611e-06
2579.83	1.25341e-06
2588.51	1.00433e-06
2597.19	1.40951e-06
2605.86	1.47195e-06
2614.54	1.14286e-06
2623.22	1.27217e-06
2631.9	1.1884e-06
2640.58	1.28634e-06
2649.25	1.0522e-06
2657.93	1.06899e-06
2666.61	1.462e-06
2675.29	1.34998e-06
2683.97	1.28569e-06
2692.65	1.4189e-06
2701.32	1.07329e-06
2710	1.47341e-06
2718.68	1.54277e-06
2727.36	1.41732e-06
2736.04	1.31855e-06
2744.71	1.34023e-06
2753.39	1.6427e-06
2762.07	1.63016e-06
2770.75	1.71648e-06
2779.43	1.25201e-06
2788.11	1.61733e-06
2796.78	1.85935e-06
2805.46	2.17979e-06
2814.14	2.40093e-06
2822.82	2.95612e-06
2831.5	2.58298e-06
2840.17	2.45173e-06
2848.85	1.79649e-06
2857.53	1.60204e-06
2866.21	1.6377e-06
2874.89	1.98094e-06
2883.57	1.75477e-06
2892.24	1.93623e-06
2900.92	2.38728e-06
2909.6	1.92328e-06
2918.28	1.94007e-06
2926.96	2.07423e-06
2935.63	2.60676e-06
2944.31	2.78598e-06
2952.99	2.47142e-06
2961.67	1.7426e-06
2970.35	3.06e-06
2979.03	3.6323e-06
2987.7	3.73431e-06
2996.38	2.95328e-06
3005.06	2.9913e-06
3013.74	2.71579e-06
3022.42	2.58683e-06
3031.09	1.85559e-06
3039.77	2.19271e-06
3048.45	2.36314e-06
3057.13	2.39115e-06
3065.81	2.86042e-06
3074.49	5.80914e-06
3083.16	1.97931e-05
3091.84	6.70619e-05
3100.52	7.79509e-05
3109.2	1.25381e-05
3117.88	4.37091e-06
3126.55	3.70523e-06
3135.23	4.38166e-06
3143.91	4.77642e-06
3152.59	5.06708e-06
3161.27	8.99056e-06
3169.95	1.08344e-05
3178.62	9.14435e-06
3187.3	2.70515e-06
3195.98	1.88392e-06
3204.66	2.85882e-06
3213.34	2.2346e-06
3222.01	2.81232e-06
3230.69	2.99673e-06
3239.37	2.66873e-06
3248.05	2.50765e-06
3256.73	2.88057e-06
3265.4	2.7488e-06
3274.08	3.19577e-06
3282.76	2.31673e-06
3291.44	2.1963e-06
3300.12	2.71035e-06
3308.8	2.50685e-06
3317.47	2.61381e-06
3326.15	2.50805e-06
3334.83	1.93831e-06
3343.51	2.71624e-06
3352.19	1.81331e-06
3360.86	2.76539e-06
3369.54	2.60925e-06
3378.22	1.78072e-06
3386.9	2.56736e-06
3395.58	2.79523e-06
3404.26	2.13312e-06
3412.93	2.18801e-06
3421.61	2.45517e-06
3430.29	2.3047e-06
3438.97	2.77503e-06
3447.65	2.07708e-06
3456.32	2.5652e-06
3465	2.3267e-06
3473.68	2.40571e-06
3482.36	2.69752e-06
3491.04	2.4646e-06
3499.72	2.91229e-06
3508.39	2.48394e-06
3517.07	2.52108e-06
3525.75	2.8517e-06
3534.43	3.05084e-06
3543.11	2.24531e-06
3551.78	2.28864e-06
3560.46	2.25334e-06
3569.14	2.79252e-06
3577.82	2.38008e-06
3586.5	2.45658e-06
3595.18	2.50632e-06
3603.85	2.45312e-06
3612.53	2.5368e-06
3621.21	2.77108e-06
3629.89	2.45403e-06
3638.57	2.81861e-06
3647.24	2.75734e-06
3655.92	2.55689e-06
3664.6	3.32452e-06
3673.28	3.00905e-06
3681.96	3.02523e-06
3690.64	2.92921e-06
3699.31	3.36724e-06
3707.99	3.31753e-06
3716.67	3.94232e-06
3725.35	4.13089e-06
3734.03	3.33916e-06
3742.7	3.53453e-06
3751.38	2.78989e-06
3760.06	2.607e-06
3768.74	3.40184e-06
3777.42	2.97384e-06
3786.1	3.33209e-06
3794.77	3.40366e-06
3803.45	3.30312e-06
3812.13	3.16348e-06
3820.81	2.51161e-06
3829.49	3.31254e-06
3838.16	2.27495e-06
3846.84	3.07739e-06
3855.52	2.90632e-06
3864.2	3.46175e-06
3872.88	3.4272e-06
3881.56	3.31965e-06
3890.23	3.5067e-06
3898.91	3.09578e-06
3907.59	3.12081e-06
3916.27	3.06866e-06
3924.95	2.8977e-06
3933.62	3.51677e-06
3942.3	3.85927e-06
3950.98	4.1121e-06
3959.66	3.29452e-06
3968.34	3.2966e-06
