Infrared Spectrum: Trichloroethene
Formula: C2 H Cl3
CAS: 79-01-6
State: gas
Melting point: -73 C
Boiling point: 87 C
Class: IUPAC A
Instrument: IFS66V (Bruker)
Instrument parameters: KBr Beam Splitter; MCT Detector; Multipass cell
Sampling: 1 L/min Flow
Resolution: 1.9290
Temperature: 23 C
Pressure: 101.3 Pa
Origin: NIST, Analytical Chemistry Division, 301-975-3108
cm-1	(micromol/mol)-1m-1 (base 10)
575.652	1.41547e-06
584.33	9.93088e-07
593.008	2.91418e-07
601.687	1.35399e-06
610.365	6.2845e-06
619.043	3.02338e-05
627.721	8.04721e-05
636.399	8.43829e-05
645.077	2.14057e-05
653.756	3.20404e-06
662.434	1.94794e-06
671.112	1.5317e-06
679.79	1.10583e-06
688.468	5.33141e-07
697.146	-4.80293e-08
705.825	1.37801e-07
714.503	2.94818e-07
723.181	4.80267e-07
731.859	1.02774e-06
740.537	1.85299e-06
749.216	2.16244e-06
757.894	5.2969e-06
766.572	4.05033e-05
775.25	9.89602e-05
783.928	0.000237577
792.606	9.62063e-05
801.285	3.73774e-05
809.963	1.4186e-05
818.641	6.26272e-06
827.319	2.67988e-05
835.997	0.000272797
844.676	0.000740929
853.354	0.000700937
862.032	1.64558e-05
870.71	4.45126e-06
879.388	2.68461e-06
888.066	3.24305e-06
896.745	1.07036e-05
905.423	2.24382e-05
914.101	3.52196e-05
922.779	0.000104863
931.457	0.00045543
940.135	0.000510425
948.814	0.000406873
957.492	5.60648e-05
966.17	6.30576e-06
974.848	8.62551e-06
983.526	1.28441e-05
992.205	1.04257e-05
1000.88	4.31275e-06
1009.56	8.16631e-06
1018.24	8.7785e-06
1026.92	6.09554e-06
1035.6	2.01926e-06
1044.27	1.37806e-06
1052.95	9.52228e-07
1061.63	6.32114e-07
1070.31	5.79824e-07
1078.99	5.33302e-07
1087.66	6.85795e-07
1096.34	1.06241e-06
1105.02	2.32966e-06
1113.7	3.26545e-06
1122.38	2.01848e-06
1131.06	1.3077e-06
1139.73	8.75723e-07
1148.41	6.42548e-07
1157.09	3.28666e-07
1165.77	2.73515e-07
1174.45	4.68678e-07
1183.12	6.25927e-07
1191.8	6.4048e-07
1200.48	1.09495e-06
1209.16	2.34613e-06
1217.84	5.1245e-06
1226.52	1.09799e-05
1235.19	1.53255e-05
1243.87	4.55324e-05
1252.55	5.44865e-05
1261.23	3.90196e-05
1269.91	1.64414e-05
1278.58	3.57642e-06
1287.26	7.20958e-07
1295.94	5.11795e-07
1304.62	1.0669e-06
1313.3	1.91814e-06
1321.98	2.09103e-06
1330.65	1.25182e-06
1339.33	6.52585e-07
1348.01	5.45242e-07
1356.69	3.62605e-07
1365.37	7.41645e-07
1374.04	7.81144e-07
1382.72	1.04868e-06
1391.4	1.07806e-06
1400.08	8.6351e-07
1408.76	1.10057e-06
1417.44	1.1152e-06
1426.11	1.54251e-06
1434.79	8.53021e-07
1443.47	6.55412e-07
1452.15	6.2028e-07
1460.83	6.23451e-07
1469.5	6.14217e-07
1478.18	5.818e-07
1486.86	4.45877e-07
1495.54	1.04321e-07
1504.22	2.16427e-07
1512.9	4.13479e-07
1521.57	-1.18844e-07
1530.25	9.02046e-07
1538.93	2.77118e-06
1547.61	1.7014e-05
1556.29	5.35863e-05
1564.96	5.00788e-05
1573.64	2.11341e-05
1582.32	3.71598e-05
1591	3.6695e-05
1599.68	2.97371e-05
1608.36	4.9506e-06
1617.03	3.12683e-08
1625.71	4.63303e-07
1634.39	1.04726e-07
1643.07	2.97736e-07
1651.75	-5.86355e-07
1660.42	2.10748e-07
1669.1	-6.21163e-08
1677.78	4.86145e-07
1686.46	4.27303e-07
1695.14	-9.03424e-08
1703.82	1.87384e-07
1712.49	1.77473e-07
1721.17	4.08388e-07
1729.85	4.47716e-07
1738.53	5.74037e-07
1747.21	1.19095e-06
1755.88	2.39978e-06
1764.56	2.60078e-06
1773.24	1.87986e-06
1781.92	2.25614e-06
1790.6	2.38407e-06
1799.28	8.97031e-07
1807.95	6.62741e-07
1816.63	5.25934e-07
1825.31	4.29134e-07
1833.99	6.53614e-07
1842.67	5.64779e-07
1851.34	8.67082e-07
1860.02	1.46412e-06
1868.7	1.58607e-06
1877.38	1.2363e-06
1886.06	8.19022e-07
1894.74	1.9166e-07
1903.41	3.20243e-07
1912.09	4.03593e-07
1920.77	5.52196e-07
1929.45	5.56875e-07
1938.13	5.37704e-07
1946.8	5.65054e-07
1955.48	7.63288e-07
1964.16	7.95174e-07
1972.84	1.01844e-06
1981.52	7.01695e-07
1990.19	6.07716e-07
1998.87	6.64311e-07
2007.55	7.12223e-07
2016.23	6.40021e-07
2024.91	7.4206e-07
2033.59	8.50382e-07
2042.26	7.74048e-07
2050.94	7.14842e-07
2059.62	7.38054e-07
2068.3	9.09894e-07
2076.98	1.06238e-06
2085.65	1.34529e-06
2094.33	1.70663e-06
2103.01	1.41941e-06
2111.69	7.903e-07
2120.37	7.44766e-07
2129.05	7.24357e-07
2137.72	7.39984e-07
2146.4	9.08468e-07
2155.08	8.23294e-07
2163.76	1.00559e-06
2172.44	9.70084e-07
2181.11	1.11405e-06
2189.79	1.11196e-06
2198.47	1.14623e-06
2207.15	1.08023e-06
2215.83	1.37509e-06
2224.51	1.35886e-06
2233.18	1.18517e-06
2241.86	1.04244e-06
2250.54	9.79111e-07
2259.22	1.03263e-06
2267.9	1.06778e-06
2276.57	1.01601e-06
2285.25	9.86356e-07
2293.93	1.09965e-06
2302.61	9.59006e-07
2311.29	1.13942e-06
2319.97	9.40123e-07
2328.64	9.37548e-07
2337.32	8.32108e-07
2346	9.1543e-07
2354.68	9.39846e-07
2363.36	7.82973e-07
2372.03	9.78077e-07
2380.71	1.10953e-06
2389.39	1.09529e-06
2398.07	1.16444e-06
2406.75	1.20153e-06
2415.43	1.26691e-06
2424.1	1.51771e-06
2432.78	1.57564e-06
2441.46	1.32158e-06
2450.14	1.33167e-06
2458.82	1.2935e-06
2467.49	1.57537e-06
2476.17	1.95034e-06
2484.85	1.95308e-06
2493.53	1.71206e-06
2502.21	1.67023e-06
2510.89	1.60719e-06
2519.56	1.7326e-06
2528.24	1.65792e-06
2536.92	1.33046e-06
2545.6	1.26857e-06
2554.28	1.22677e-06
2562.95	1.23543e-06
2571.63	1.23718e-06
2580.31	1.21496e-06
2588.99	1.17188e-06
2597.67	1.23084e-06
2606.35	1.27635e-06
2615.02	1.33084e-06
2623.7	1.32801e-06
2632.38	1.27992e-06
2641.06	1.28882e-06
2649.74	1.3356e-06
2658.41	1.24878e-06
2667.09	1.31626e-06
2675.77	1.40656e-06
2684.45	1.2953e-06
2693.13	1.3521e-06
2701.81	1.16834e-06
2710.48	1.46535e-06
2719.16	1.47283e-06
2727.84	1.36258e-06
2736.52	1.21176e-06
2745.2	1.26403e-06
2753.87	1.3969e-06
2762.55	1.4101e-06
2771.23	1.51281e-06
2779.91	1.50761e-06
2788.59	1.54632e-06
2797.27	1.68195e-06
2805.94	2.24523e-06
2814.62	2.5659e-06
2823.3	3.09669e-06
2831.98	2.95373e-06
2840.66	2.6144e-06
2849.33	1.77469e-06
2858.01	1.67313e-06
2866.69	1.57988e-06
2875.37	2.00064e-06
2884.05	1.67948e-06
2892.73	1.9594e-06
2901.4	2.17621e-06
2910.08	2.15386e-06
2918.76	2.11796e-06
2927.44	2.29677e-06
2936.12	2.61618e-06
2944.79	2.69682e-06
2953.47	2.72776e-06
2962.15	2.59354e-06
2970.83	3.23678e-06
2979.51	3.4832e-06
2988.19	3.60526e-06
2996.86	3.23968e-06
3005.54	2.71873e-06
3014.22	2.36271e-06
3022.9	2.28559e-06
3031.58	2.15291e-06
3040.25	2.16326e-06
3048.93	2.44682e-06
3057.61	2.53805e-06
3066.29	2.97528e-06
3074.97	5.78043e-06
3083.65	2.25265e-05
3092.32	6.37077e-05
3101	7.58818e-05
3109.68	1.13158e-05
3118.36	4.39263e-06
3127.04	3.90541e-06
3135.71	4.27069e-06
3144.39	4.84884e-06
3153.07	5.38177e-06
3161.75	9.41462e-06
3170.43	1.11386e-05
3179.11	8.32608e-06
3187.78	2.75079e-06
3196.46	2.35414e-06
3205.14	2.69398e-06
3213.82	2.39592e-06
3222.5	2.71872e-06
3231.17	2.82186e-06
3239.85	2.87199e-06
3248.53	2.60211e-06
3257.21	2.9833e-06
3265.89	2.82292e-06
3274.57	2.9174e-06
3283.24	2.53673e-06
3291.92	2.35778e-06
3300.6	2.47775e-06
3309.28	2.61184e-06
3317.96	2.60209e-06
3326.63	2.38297e-06
3335.31	2.29025e-06
3343.99	2.4572e-06
3352.67	2.32164e-06
3361.35	2.57098e-06
3370.03	2.30617e-06
3378.7	2.18618e-06
3387.38	2.60497e-06
3396.06	2.55248e-06
3404.74	2.20065e-06
3413.42	2.3003e-06
3422.09	2.37783e-06
3430.77	2.33558e-06
3439.45	2.50046e-06
3448.13	2.41375e-06
3456.81	2.49677e-06
3465.49	2.47363e-06
3474.16	2.5113e-06
3482.84	2.6294e-06
3491.52	2.33616e-06
3500.2	2.61112e-06
3508.88	2.62697e-06
3517.55	2.5465e-06
3526.23	2.61541e-06
3534.91	2.66509e-06
3543.59	2.59336e-06
3552.27	2.58401e-06
3560.95	2.59476e-06
3569.62	2.71654e-06
3578.3	2.62523e-06
3586.98	2.8136e-06
3595.66	2.70799e-06
3604.34	2.85693e-06
3613.01	2.71567e-06
3621.69	2.95802e-06
3630.37	2.67333e-06
3639.05	3.00643e-06
3647.73	2.73338e-06
3656.41	2.73293e-06
3665.08	3.11743e-06
3673.76	2.94564e-06
3682.44	2.97302e-06
3691.12	2.7681e-06
3699.8	3.38962e-06
3708.47	3.10967e-06
3717.15	3.66644e-06
3725.83	3.78038e-06
3734.51	3.4877e-06
3743.19	2.7913e-06
3751.87	2.38293e-06
3760.54	3.02695e-06
3769.22	3.05473e-06
3777.9	2.9512e-06
3786.58	3.19101e-06
3795.26	3.13233e-06
3803.93	2.98473e-06
3812.61	3.14262e-06
3821.29	2.78409e-06
3829.97	3.27236e-06
3838.65	2.5084e-06
3847.33	3.22909e-06
3856	2.91825e-06
3864.68	3.08736e-06
3873.36	3.29086e-06
3882.04	3.27757e-06
3890.72	3.00609e-06
3899.39	2.98876e-06
3908.07	3.1257e-06
3916.75	3.04561e-06
3925.43	3.18103e-06
3934.11	3.64193e-06
3942.79	3.98799e-06
3951.46	3.62832e-06
3960.14	3.35556e-06
3968.82	3.42345e-06
