Infrared Spectrum: 1,1,2-Trichloroethane
Formula: Cl C H2 C H Cl2
CAS: 79-00-5
State: gas
Melting point: -36.5 C
Boiling point: 113.77 C
Class: IUPAC A
Instrument: IFS66V (Bruker)
Instrument parameters: KBr Beam Splitter; MCT Detector; Multipass cell
Sampling: 1 L/min Flow
Resolution: 1.9290
Temperature: 23 C
Pressure: 101.3 Pa
Origin: NIST, Analytical Chemistry Division, 301-975-3108
cm-1	(micromol/mol)-1m-1 (base 10)
575.652	-1.11616e-06
584.33	4.34592e-07
593.008	-1.24904e-06
601.687	-1.38769e-06
610.365	-5.0795e-07
619.043	-6.36643e-07
627.721	-3.6185e-08
636.399	1.53694e-06
645.077	5.88075e-06
653.756	1.53342e-05
662.434	6.4113e-05
671.112	0.000162077
679.79	0.000197162
688.468	6.05448e-05
697.147	1.23616e-05
705.825	1.89184e-05
714.503	2.91047e-05
723.181	8.22747e-05
731.859	0.000428038
740.537	0.000849592
749.216	0.000706414
757.894	4.40194e-05
766.572	2.83108e-05
775.25	4.48096e-05
783.928	9.4418e-05
792.607	7.27197e-05
801.285	5.18384e-05
809.963	6.89034e-06
818.641	1.70961e-06
827.319	2.04873e-06
835.997	2.815e-06
844.676	2.32018e-06
853.354	2.05156e-06
862.032	8.10542e-07
870.71	1.34304e-06
879.388	1.33379e-06
888.066	2.81635e-06
896.745	4.07447e-06
905.423	6.96804e-06
914.101	1.6062e-05
922.779	5.13215e-05
931.457	0.000144516
940.136	0.000166361
948.814	7.19483e-05
957.492	1.68361e-05
966.17	5.69477e-06
974.848	3.73766e-06
983.526	1.95372e-06
992.205	2.40582e-06
1000.88	2.68756e-06
1009.56	2.41142e-06
1018.24	1.56115e-06
1026.92	2.91742e-06
1035.6	7.23881e-06
1044.27	1.46065e-05
1052.95	1.7387e-05
1061.63	1.37518e-05
1070.31	7.35427e-06
1078.99	2.83899e-06
1087.66	6.37281e-07
1096.34	8.11754e-07
1105.02	1.63589e-07
1113.7	4.45706e-07
1122.38	5.34677e-07
1131.06	7.97353e-07
1139.73	1.58304e-06
1148.41	7.68356e-06
1157.09	1.84757e-05
1165.77	2.02493e-05
1174.45	6.64203e-06
1183.12	3.20242e-06
1191.8	1.05114e-05
1200.48	7.11917e-05
1209.16	0.000171164
1217.84	8.10936e-05
1226.52	1.16386e-05
1235.19	1.08542e-05
1243.87	1.41067e-05
1252.55	3.73044e-05
1261.23	9.54273e-05
1269.91	8.52964e-05
1278.58	2.37538e-05
1287.26	4.33522e-06
1295.94	1.2289e-05
1304.62	3.45193e-05
1313.3	3.66742e-05
1321.98	1.03656e-05
1330.65	4.85639e-06
1339.33	4.37806e-06
1348.01	4.13546e-06
1356.69	3.30282e-06
1365.37	1.01196e-06
1374.04	9.58282e-07
1382.72	4.37651e-07
1391.4	1.05236e-06
1400.08	1.89775e-07
1408.76	1.7555e-06
1417.44	3.22532e-06
1426.11	2.13615e-05
1434.79	4.17064e-05
1443.47	4.60338e-05
1452.15	1.48937e-05
1460.83	1.58759e-06
1469.5	1.26767e-06
1478.18	7.57079e-07
1486.86	8.87125e-07
1495.54	-6.36789e-08
1504.22	2.21042e-07
1512.9	-3.15513e-07
1521.57	-7.34239e-07
1530.25	-1.35799e-07
1538.93	-1.24815e-06
1547.61	9.04442e-08
1556.29	1.50667e-07
1564.96	-1.48419e-07
1573.64	-3.26183e-07
1582.32	-2.26616e-07
1591	-2.09761e-07
1599.68	-1.2209e-08
1608.36	2.76721e-07
1617.03	-9.05504e-07
1625.71	-7.57132e-08
1634.39	-3.70159e-07
1643.07	-1.32226e-07
1651.75	-7.60425e-07
1660.42	-1.45674e-07
1669.1	-1.03355e-06
1677.78	-2.30196e-07
1686.46	1.51587e-07
1695.14	-7.79062e-07
1703.82	-2.35863e-07
1712.49	-1.03156e-07
1721.17	-1.53974e-07
1729.85	-1.865e-07
1738.53	-1.27229e-08
1747.21	-3.62154e-07
1755.88	-5.39219e-07
1764.56	-1.89949e-07
1773.24	-5.87212e-07
1781.92	-4.46169e-08
1790.6	-7.54922e-08
1799.28	4.41748e-08
1807.95	6.76915e-08
1816.63	6.96269e-08
1825.31	5.38122e-07
1833.99	1.07099e-07
1842.67	-2.3661e-07
1851.34	-2.88394e-07
1860.02	-2.35743e-07
1868.7	-4.8433e-07
1877.38	-3.42806e-07
1886.06	-3.37089e-07
1894.74	-4.64478e-07
1903.41	-4.09365e-07
1912.09	-3.06237e-07
1920.77	-3.24899e-07
1929.45	-1.96319e-07
1938.13	-8.71064e-08
1946.8	-5.00702e-08
1955.48	-2.3548e-07
1964.16	-3.17043e-07
1972.84	1.2257e-07
1981.52	3.70768e-07
1990.2	4.87011e-07
1998.87	3.95355e-09
2007.55	-6.20954e-08
2016.23	9.11582e-09
2024.91	-8.35494e-08
2033.59	-8.25562e-08
2042.26	-3.36957e-08
2050.94	2.00316e-07
2059.62	-8.33711e-08
2068.3	-1.54052e-07
2076.98	-1.29878e-07
2085.66	9.22077e-08
2094.33	1.72525e-07
2103.01	-5.83893e-09
2111.69	-1.66057e-07
2120.37	-6.53523e-08
2129.05	2.66029e-07
2137.72	-7.70793e-09
2146.4	-1.98253e-07
2155.08	-5.29387e-07
2163.76	1.85869e-07
2172.44	-7.07493e-07
2181.12	2.98346e-07
2189.79	-2.70518e-07
2198.47	6.96085e-07
2207.15	5.05632e-07
2215.83	4.96463e-08
2224.51	-8.83097e-08
2233.18	-6.04638e-08
2241.86	-1.18914e-07
2250.54	1.2479e-07
2259.22	-2.75757e-09
2267.9	3.46288e-08
2276.58	-5.05322e-08
2285.25	-2.08864e-07
2293.93	-2.18295e-07
2302.61	-2.38864e-07
2311.29	-6.65232e-07
2319.97	-3.52343e-07
2328.64	-2.25078e-06
2337.32	-2.06177e-06
2346	-8.86589e-07
2354.68	-4.90488e-07
2363.36	-5.22068e-07
2372.04	6.61839e-07
2380.71	5.26543e-07
2389.39	5.36631e-07
2398.07	8.8201e-07
2406.75	1.99258e-06
2415.43	8.38996e-07
2424.1	4.07211e-07
2432.78	9.99057e-08
2441.46	3.7971e-07
2450.14	1.16171e-06
2458.82	2.36414e-06
2467.5	1.93292e-06
2476.17	1.19138e-06
2484.85	7.31048e-07
2493.53	6.40027e-07
2502.21	6.95389e-07
2510.89	1.1953e-06
2519.56	1.18437e-06
2528.24	6.08817e-07
2536.92	-2.97682e-07
2545.6	-3.06026e-07
2554.28	-1.34167e-07
2562.96	2.97469e-07
2571.63	4.9819e-07
2580.31	3.84993e-07
2588.99	3.22241e-07
2597.67	4.69286e-07
2606.35	1.15027e-07
2615.02	2.91361e-07
2623.7	-1.16812e-07
2632.38	-8.61633e-08
2641.06	2.63261e-08
2649.74	3.01457e-07
2658.42	-8.8266e-08
2667.09	-6.80826e-08
2675.77	5.80982e-08
2684.45	-8.1513e-08
2693.13	8.13733e-07
2701.81	8.63335e-07
2710.48	3.82457e-07
2719.16	1.61465e-07
2727.84	9.94955e-08
2736.52	6.42273e-07
2745.2	5.56113e-07
2753.88	4.3082e-07
2762.55	-1.60451e-07
2771.23	-1.35305e-08
2779.91	1.1691e-07
2788.59	-1.20069e-07
2797.27	-3.59258e-08
2805.94	1.54384e-07
2814.62	-1.68665e-08
2823.3	1.84103e-07
2831.98	2.64156e-07
2840.66	7.52714e-07
2849.34	3.88215e-06
2858.01	8.96893e-06
2866.69	4.11348e-06
2875.37	2.51325e-07
2884.05	1.08689e-06
2892.73	1.07276e-06
2901.4	1.0964e-06
2910.08	1.36082e-06
2918.76	1.23845e-06
2927.44	2.14465e-06
2936.12	1.69992e-06
2944.8	2.31347e-06
2953.47	4.1971e-06
2962.15	1.68783e-05
2970.83	4.27471e-05
2979.51	4.81276e-05
2988.19	1.13168e-05
2996.86	6.56639e-06
3005.54	8.56018e-06
3014.22	8.95676e-06
3022.9	5.20277e-06
3031.58	5.03835e-06
3040.26	1.32341e-06
3048.93	4.52861e-07
3057.61	2.77173e-07
3066.29	-5.30487e-08
3074.97	4.34452e-07
3083.65	1.95977e-07
3092.32	4.50098e-08
3101	-9.00613e-08
3109.68	1.16535e-07
3118.36	6.46002e-08
3127.04	-1.02772e-09
3135.72	-8.76121e-08
3144.39	-3.06234e-08
3153.07	3.97372e-07
3161.75	6.3537e-08
3170.43	1.60435e-07
3179.11	2.57027e-07
3187.78	2.85298e-08
3196.46	1.67369e-07
3205.14	6.69512e-08
3213.82	7.59642e-08
3222.5	-7.96204e-08
3231.18	-2.23303e-07
3239.85	-2.94675e-08
3248.53	3.76347e-08
3257.21	1.54967e-07
3265.89	1.05602e-07
3274.57	-5.17691e-08
3283.24	-9.1291e-08
3291.92	8.54821e-08
3300.6	2.0076e-07
3309.28	8.70982e-08
3317.96	-6.07367e-08
3326.64	-5.11506e-08
3335.31	3.77329e-07
3343.99	4.20821e-09
3352.67	8.85934e-08
3361.35	2.9713e-09
3370.03	1.90643e-07
3378.7	-9.41686e-08
3387.38	8.01806e-08
3396.06	2.46e-07
3404.74	3.98478e-07
3413.42	5.19324e-07
3422.1	-2.34048e-08
3430.77	2.90227e-07
3439.45	-2.40905e-07
3448.13	-1.06623e-07
3456.81	1.50124e-07
3465.49	-6.88857e-08
3474.16	-3.06939e-07
3482.84	-2.29119e-07
3491.52	-1.12894e-07
3500.2	-2.68046e-07
3508.88	-8.47954e-08
3517.56	-8.63288e-09
3526.23	-2.4948e-07
3534.91	5.50787e-08
3543.59	-5.17048e-07
3552.27	1.08329e-08
3560.95	-9.05434e-08
3569.62	-2.15934e-07
3578.3	-4.48288e-09
3586.98	-3.46218e-07
3595.66	-4.63941e-07
3604.34	-2.62325e-07
3613.02	-1.85295e-07
3621.69	-3.01905e-07
3630.37	-4.71516e-08
3639.05	-2.91419e-08
3647.73	-1.12441e-07
3656.41	-3.66979e-09
3665.08	2.33482e-07
3673.76	2.83495e-07
3682.44	-7.04218e-09
3691.12	-4.11014e-07
3699.8	2.55209e-07
3708.48	3.04222e-07
3717.15	7.03154e-08
3725.83	-2.2977e-07
3734.51	-6.90356e-07
3743.19	9.05925e-08
3751.87	-7.74516e-07
3760.54	5.31451e-07
3769.22	6.90782e-07
3777.9	4.14312e-07
3786.58	3.04269e-07
3795.26	1.76587e-07
3803.94	5.05196e-07
3812.61	6.30269e-07
3821.29	-1.42506e-07
3829.97	-5.14762e-08
3838.65	-4.10195e-07
3847.33	-2.53019e-07
3856	-1.373e-07
3864.68	-4.83989e-07
3873.36	-2.95714e-07
3882.04	-3.94559e-07
3890.72	-1.99804e-07
3899.4	-3.57957e-08
3908.07	4.36841e-07
3916.75	-7.35186e-08
3925.43	-5.92424e-08
3934.11	2.62542e-07
3942.79	-5.85884e-08
3951.46	6.06474e-07
3960.14	1.00496e-06
3968.82	3.18148e-07
