Infrared Spectrum: 1,1,2-Trichloroethane
Formula: Cl C H2 C H Cl2
CAS: 79-00-5
State: gas
Melting point: -36.5 C
Boiling point: 113.77 C
Class: IUPAC A
Instrument: IFS66V (Bruker)
Instrument parameters: KBr Beam Splitter; MCT Detector; Multipass cell
Sampling: 1 L/min Flow
Resolution: 0.2410
Temperature: 23 C
Pressure: 101.3 Pa
Origin: NIST, Analytical Chemistry Division, 301-975-3108
cm-1	(micromol/mol)-1m-1 (base 10)
575.05	-1.96187e-06
583.608	8.58952e-07
592.165	3.53193e-06
600.723	-1.39877e-06
609.281	-7.83271e-08
617.838	-1.01132e-06
626.396	2.66313e-07
634.954	1.82033e-06
643.511	3.5786e-06
652.069	1.18552e-05
660.626	4.91777e-05
669.184	0.00015071
677.742	0.000160676
686.299	8.29543e-05
694.857	1.93751e-05
703.415	1.33746e-05
711.972	2.75044e-05
720.53	5.35144e-05
729.088	0.000256657
737.645	0.000796156
746.203	0.000836442
754.761	0.000148921
763.318	2.62773e-05
771.876	3.68111e-05
780.434	7.60203e-05
788.991	0.000102821
797.549	9.83979e-05
806.106	1.97062e-05
814.664	2.48049e-06
823.222	1.14462e-06
831.779	1.40283e-06
840.337	2.61174e-06
848.895	2.801e-06
857.452	1.17306e-06
866.01	1.42877e-07
874.568	5.36397e-07
883.125	4.6609e-07
891.683	3.10964e-06
900.241	5.16719e-06
908.798	8.16927e-06
917.356	2.41311e-05
925.914	7.82905e-05
934.471	0.00013899
943.029	0.000150421
951.586	4.87603e-05
960.144	1.01322e-05
968.702	5.36439e-06
977.259	3.84415e-06
985.817	1.59404e-06
994.375	2.16677e-06
1002.93	2.72569e-06
1011.49	2.2253e-06
1020.05	1.93948e-06
1028.61	3.0507e-06
1037.16	8.45401e-06
1045.72	1.60745e-05
1054.28	1.68212e-05
1062.84	1.22641e-05
1071.39	7.17876e-06
1079.95	1.80682e-06
1088.51	9.66917e-07
1097.07	8.2639e-08
1105.62	-1.31359e-07
1114.18	5.8735e-07
1122.74	3.99686e-07
1131.3	7.4901e-07
1139.85	1.85134e-06
1148.41	7.33851e-06
1156.97	1.84739e-05
1165.53	2.02385e-05
1174.09	6.92979e-06
1182.64	3.16582e-06
1191.2	9.36656e-06
1199.76	6.03804e-05
1208.32	8.66764e-05
1216.87	0.000101919
1225.43	1.38462e-05
1233.99	9.50491e-06
1242.55	1.54514e-05
1251.1	2.80681e-05
1259.66	9.56624e-05
1268.22	9.2056e-05
1276.78	3.3997e-05
1285.33	6.3216e-06
1293.89	7.94354e-06
1302.45	3.20574e-05
1311.01	3.47231e-05
1319.57	1.72681e-05
1328.12	4.99985e-06
1336.68	3.93804e-06
1345.24	4.09403e-06
1353.8	3.31674e-06
1362.35	1.45819e-06
1370.91	7.10828e-07
1379.47	6.38471e-07
1388.03	8.95447e-08
1396.58	9.85276e-07
1405.14	1.98465e-07
1413.7	2.12552e-06
1422.26	1.13113e-05
1430.81	4.29146e-05
1439.37	3.42164e-05
1447.93	2.85245e-05
1456.49	3.21096e-06
1465.05	5.39821e-07
1473.6	-5.90389e-07
1482.16	7.61066e-07
1490.72	3.19668e-08
1499.28	2.94686e-07
1507.83	-4.60136e-07
1516.39	-2.48595e-07
1524.95	2.01744e-07
1533.51	7.35259e-08
1542.06	-1.8834e-06
1550.62	-4.6585e-08
1559.18	1.06105e-07
1567.74	-4.63894e-08
1576.29	-2.75885e-06
1584.85	-5.82046e-08
1593.41	1.22508e-08
1601.97	1.57916e-07
1610.53	3.0864e-07
1619.08	-1.70302e-07
1627.64	-4.1752e-07
1636.2	-1.66964e-08
1644.76	3.42247e-07
1653.31	-5.20167e-06
1661.87	-2.35969e-07
1670.43	-2.03582e-07
1678.99	-9.24942e-08
1687.54	-3.47698e-08
1696.1	-1.6776e-06
1704.66	-1.45011e-07
1713.22	-2.76899e-07
1721.77	-1.35338e-07
1730.33	-1.11552e-07
1738.89	-4.55358e-07
1747.45	-5.25553e-07
1756.01	-7.06844e-07
1764.56	-1.8169e-07
1773.12	2.81815e-07
1781.68	-5.35726e-08
1790.24	1.5905e-07
1798.79	-4.89897e-08
1807.35	4.18807e-07
1815.91	1.70498e-07
1824.47	3.09457e-07
1833.02	3.03003e-07
1841.58	1.50783e-07
1850.14	-4.34855e-07
1858.7	-5.1192e-07
1867.25	-3.65705e-07
1875.81	-2.50746e-07
1884.37	-2.32791e-07
1892.93	-2.92323e-07
1901.49	-5.75514e-07
1910.04	-2.78712e-07
1918.6	-5.09804e-07
1927.16	-1.47665e-07
1935.72	-1.06676e-07
1944.27	-4.54183e-07
1952.83	2.55512e-08
1961.39	-4.80578e-07
1969.95	-3.36172e-07
1978.5	4.15862e-07
1987.06	-3.83632e-08
1995.62	4.45103e-07
2004.18	3.17406e-07
2012.73	3.33632e-07
2021.29	1.20416e-07
2029.85	-4.11303e-07
2038.41	-1.31902e-07
2046.97	7.303e-07
2055.52	-1.1895e-07
2064.08	7.67482e-08
2072.64	1.32538e-07
2081.2	2.71947e-08
2089.75	4.11114e-07
2098.31	1.0636e-06
2106.87	6.19902e-07
2115.43	-1.82872e-07
2123.98	-7.07242e-07
2132.54	-3.66172e-07
2141.1	-4.66392e-07
2149.66	2.10487e-07
2158.21	-1.6114e-06
2166.77	1.51817e-07
2175.33	-1.69121e-07
2183.89	-2.80232e-08
2192.45	-2.44293e-07
2201	2.11475e-07
2209.56	-4.38813e-07
2218.12	2.08522e-07
2226.68	-4.18867e-07
2235.23	2.95661e-07
2243.79	2.77417e-07
2252.35	1.16267e-07
2260.91	-1.93813e-07
2269.46	1.20216e-07
2278.02	4.68059e-07
2286.58	-1.03001e-07
2295.14	-9.0075e-08
2303.69	-2.83747e-07
2312.25	-2.09729e-07
2320.81	-1.20586e-06
2329.37	-6.3255e-07
2337.93	-1.05978e-06
2346.48	3.80878e-07
2355.04	1.39495e-06
2363.6	1.6281e-06
2372.16	1.84564e-06
2380.71	-1.42226e-08
2389.27	5.39107e-07
2397.83	7.20759e-07
2406.39	2.40075e-06
2414.94	4.93739e-07
2423.5	4.46363e-07
2432.06	3.59938e-07
2440.62	1.10225e-06
2449.17	1.175e-06
2457.73	2.28899e-06
2466.29	2.59817e-06
2474.85	1.24496e-06
2483.41	9.67373e-07
2491.96	6.33593e-07
2500.52	1.50502e-07
2509.08	9.57849e-07
2517.64	1.35607e-06
2526.19	9.42211e-07
2534.75	2.53814e-07
2543.31	-4.60656e-07
2551.87	7.50084e-08
2560.42	-1.77169e-08
2568.98	5.57615e-07
2577.54	3.77082e-07
2586.1	3.3266e-07
2594.65	5.08911e-07
2603.21	5.69819e-07
2611.77	-1.15846e-07
2620.33	-1.18411e-07
2628.89	-3.14452e-07
2637.44	-2.94425e-07
2646	-1.18571e-07
2654.56	-2.01813e-07
2663.12	8.98849e-09
2671.67	1.32686e-07
2680.23	-5.35517e-08
2688.79	3.33912e-07
2697.35	6.52507e-07
2705.9	9.73926e-07
2714.46	-9.98475e-08
2723.02	4.06602e-07
2731.58	1.46618e-07
2740.13	8.79669e-07
2748.69	8.66734e-07
2757.25	-4.28381e-07
2765.81	-1.50955e-07
2774.37	-5.17282e-08
2782.92	2.5581e-07
2791.48	-6.89384e-08
2800.04	-1.20145e-07
2808.6	7.22179e-07
2817.15	6.75706e-08
2825.71	-4.12196e-07
2834.27	2.8794e-07
2842.83	1.45948e-06
2851.38	5.27531e-06
2859.94	4.38744e-06
2868.5	2.74494e-06
2877.06	2.02198e-06
2885.61	1.24171e-06
2894.17	8.6806e-07
2902.73	1.23538e-06
2911.29	1.4182e-06
2919.85	9.65274e-07
2928.4	1.75646e-06
2936.96	2.82356e-06
2945.52	2.10113e-06
2954.08	4.63483e-06
2962.63	1.71883e-05
2971.19	4.21928e-05
2979.75	4.87709e-05
2988.31	1.06752e-05
2996.86	7.47107e-06
3005.42	6.24234e-06
3013.98	8.96018e-06
3022.54	5.75283e-06
3031.09	5.30946e-06
3039.65	1.06242e-06
3048.21	5.67712e-07
3056.77	3.79227e-07
3065.33	5.72198e-07
3073.88	-2.54132e-07
3082.44	-5.2081e-08
3091	2.89097e-07
3099.56	-3.67998e-07
3108.11	-5.74396e-07
3116.67	7.2564e-07
3125.23	-7.04573e-08
3133.79	-2.79796e-07
3142.34	5.59734e-07
3150.9	7.88792e-07
3159.46	6.49163e-07
3168.02	-3.58324e-07
3176.57	-1.8095e-07
3185.13	-8.3453e-08
3193.69	3.09209e-07
3202.25	7.70374e-08
3210.81	1.49581e-07
3219.36	4.81684e-08
3227.92	8.33577e-07
3236.48	-4.82915e-07
3245.04	7.67686e-07
3253.59	1.26864e-07
3262.15	-4.39135e-07
3270.71	-5.38964e-09
3279.27	6.77425e-08
3287.82	-5.69567e-07
3296.38	5.59549e-07
3304.94	-2.09163e-07
3313.5	-8.61663e-07
3322.05	-1.06113e-07
3330.61	-9.25999e-07
3339.17	3.29089e-07
3347.73	2.17676e-07
3356.29	5.7063e-07
3364.84	-3.35332e-07
3373.4	-7.24789e-07
3381.96	1.29125e-06
3390.52	4.22895e-08
3399.07	1.91374e-07
3407.63	5.60494e-07
3416.19	-1.38472e-06
3424.75	-7.38131e-07
3433.3	9.2014e-08
3441.86	-3.64733e-08
3450.42	4.99901e-08
3458.98	-7.923e-07
3467.53	2.45904e-07
3476.09	9.5519e-07
3484.65	-4.99342e-07
3493.21	-1.27519e-06
3501.77	-4.58168e-07
3510.32	-1.26901e-07
3518.88	7.6939e-07
3527.44	-8.4175e-07
3536	6.12769e-08
3544.55	6.51986e-07
3553.11	-1.23259e-07
3561.67	-3.1402e-07
3570.23	-2.87873e-07
3578.78	1.23221e-07
3587.34	-4.78404e-07
3595.9	7.5306e-07
3604.46	-3.57029e-08
3613.01	5.56692e-07
3621.57	-5.169e-07
3630.13	6.56177e-07
3638.69	4.9955e-07
3647.25	-5.88655e-07
3655.8	1.74804e-07
3664.36	2.19378e-07
3672.92	-1.58435e-07
3681.48	-3.4942e-07
3690.03	3.63748e-07
3698.59	5.66822e-07
3707.15	1.77767e-07
3715.71	-3.55307e-07
3724.26	5.44266e-07
3732.82	-1.50012e-07
3741.38	4.61225e-07
3749.94	4.79525e-07
3758.49	8.4587e-07
3767.05	1.78366e-07
3775.61	8.94383e-07
3784.17	2.06339e-07
3792.73	6.68137e-07
3801.28	-1.27508e-06
3809.84	1.16043e-06
3818.4	7.4805e-07
3826.96	5.86809e-07
3835.51	6.21111e-07
3844.07	-5.04712e-07
3852.63	-3.59672e-07
3861.19	-5.91706e-07
3869.74	-2.89122e-07
3878.3	-4.30099e-07
3886.86	-7.58651e-08
3895.42	4.55085e-07
3903.97	3.21059e-07
3912.53	-7.90635e-07
3921.09	-2.03489e-07
3929.65	-5.12754e-07
3938.21	3.97201e-07
3946.76	-8.28727e-09
3955.32	3.66142e-07
3963.88	2.28692e-07
3972.44	4.59042e-07
