Infrared Spectrum: Trichloroethene
Formula: C2 H Cl3
CAS: 79-01-6
State: gas
Melting point: -73 C
Boiling point: 87 C
Class: IUPAC A
Instrument: IFS66V (Bruker)
Instrument parameters: KBr Beam Splitter; MCT Detector; Multipass cell
Sampling: 1 L/min Flow
Resolution: 0.4820
Temperature: 23 C
Pressure: 101.3 Pa
Origin: NIST, Analytical Chemistry Division, 301-975-3108
cm-1	(micromol/mol)-1m-1 (base 10)
575.17	4.01162e-07
583.848	-2.50142e-07
592.526	1.52073e-06
601.205	2.08035e-06
609.883	7.29792e-06
618.561	2.59648e-05
627.239	7.85686e-05
635.917	8.25815e-05
644.595	2.35395e-05
653.274	3.33834e-06
661.952	3.48936e-07
670.63	6.22348e-07
679.308	3.08233e-07
687.986	6.54113e-07
696.664	7.85485e-07
705.343	5.93733e-07
714.021	1.32621e-06
722.699	6.57607e-07
731.377	1.24844e-06
740.055	1.61352e-06
748.734	2.17453e-06
757.412	4.86793e-06
766.09	3.65805e-05
774.768	9.38273e-05
783.446	0.000227708
792.124	9.96291e-05
800.803	4.04179e-05
809.481	1.53103e-05
818.159	6.8742e-06
826.837	2.46442e-05
835.515	0.000240719
844.193	0.00071912
852.872	0.000706382
861.55	1.71696e-05
870.228	4.03797e-06
878.906	2.56691e-06
887.584	2.98914e-06
896.263	9.85711e-06
904.941	2.41289e-05
913.619	3.40717e-05
922.297	9.46833e-05
930.975	0.000429317
939.653	0.00050489
948.332	0.000449949
957.01	6.23712e-05
965.688	6.90719e-06
974.366	7.81278e-06
983.044	1.1756e-05
991.723	1.05843e-05
1000.4	4.84389e-06
1009.08	8.45485e-06
1017.76	8.88209e-06
1026.44	6.77224e-06
1035.11	1.91884e-06
1043.79	1.48845e-06
1052.47	1.267e-06
1061.15	9.75585e-07
1069.83	1.33951e-06
1078.5	6.37559e-07
1087.18	8.29906e-07
1095.86	7.37553e-07
1104.54	2.08688e-06
1113.22	3.43911e-06
1121.9	1.94166e-06
1130.57	1.58349e-06
1139.25	1.27252e-06
1147.93	4.9015e-07
1156.61	5.05618e-07
1165.29	9.0356e-07
1173.96	7.25712e-07
1182.64	8.52842e-07
1191.32	8.23447e-07
1200	9.65998e-07
1208.68	2.53238e-06
1217.36	4.6077e-06
1226.03	1.0892e-05
1234.71	1.64597e-05
1243.39	4.36847e-05
1252.07	5.14587e-05
1260.75	4.11262e-05
1269.42	1.73604e-05
1278.1	4.26852e-06
1286.78	2.53882e-07
1295.46	5.54977e-07
1304.14	8.2283e-07
1312.82	1.97029e-06
1321.49	2.42113e-06
1330.17	1.28926e-06
1338.85	5.72624e-07
1347.53	5.71782e-07
1356.21	5.30651e-07
1364.88	6.42206e-07
1373.56	-6.58042e-08
1382.24	1.11923e-06
1390.92	6.83514e-07
1399.6	1.24474e-06
1408.28	1.36717e-06
1416.95	1.1892e-06
1425.63	1.577e-06
1434.31	8.66815e-07
1442.99	9.50046e-07
1451.67	4.26688e-07
1460.34	7.07259e-07
1469.02	8.00863e-07
1477.7	1.00094e-06
1486.38	3.83773e-07
1495.06	1.068e-07
1503.73	9.18737e-07
1512.41	-8.80366e-08
1521.09	-1.20669e-06
1529.77	7.93868e-07
1538.45	2.77366e-06
1547.13	1.52553e-05
1555.8	5.68944e-05
1564.48	5.15807e-05
1573.16	2.06313e-05
1581.84	3.51047e-05
1590.52	3.66556e-05
1599.19	3.21145e-05
1607.87	5.413e-06
1616.55	-1.38538e-06
1625.23	2.75692e-07
1633.91	7.65297e-07
1642.59	4.28686e-07
1651.26	4.02959e-07
1659.94	1.16919e-08
1668.62	2.2624e-07
1677.3	6.42317e-07
1685.98	4.70817e-07
1694.65	9.53542e-07
1703.33	-4.86374e-08
1712.01	-8.15358e-08
1720.69	3.84641e-07
1729.37	1.29215e-07
1738.05	6.42539e-07
1746.72	1.26622e-06
1755.4	2.26633e-06
1764.08	2.38231e-06
1772.76	-9.99649e-08
1781.44	2.42298e-06
1790.11	2.67676e-06
1798.79	8.72748e-07
1807.47	8.32052e-07
1816.15	5.17301e-07
1824.83	6.0278e-07
1833.51	6.74777e-07
1842.18	4.92862e-07
1850.86	5.06831e-07
1859.54	1.48272e-06
1868.22	2.15826e-06
1876.9	1.27028e-06
1885.57	6.68431e-07
1894.25	1.738e-07
1902.93	2.06756e-07
1911.61	5.82041e-07
1920.29	5.14769e-07
1928.97	7.66994e-07
1937.64	5.27354e-07
1946.32	9.11393e-07
1955	7.69542e-07
1963.68	7.62967e-07
1972.36	7.00791e-07
1981.03	6.88699e-07
1989.71	5.51787e-07
1998.39	5.73948e-07
2007.07	6.24419e-07
2015.75	7.06212e-07
2024.43	6.5812e-07
2033.1	5.657e-07
2041.78	1.10073e-06
2050.46	4.7052e-07
2059.14	7.36032e-07
2067.82	9.80473e-07
2076.49	1.19202e-06
2085.17	1.47266e-06
2093.85	1.87379e-06
2102.53	1.23524e-06
2111.21	1.2552e-06
2119.89	4.17727e-07
2128.56	7.41273e-07
2137.24	6.41559e-07
2145.92	9.40293e-07
2154.6	5.13865e-07
2163.28	1.31649e-06
2171.95	7.69444e-07
2180.63	1.17671e-06
2189.31	9.46614e-07
2197.99	1.44047e-06
2206.67	1.09945e-06
2215.35	1.30394e-06
2224.02	1.0366e-06
2232.7	1.30627e-06
2241.38	8.79385e-07
2250.06	1.02711e-06
2258.74	1.23662e-06
2267.41	1.13547e-06
2276.09	9.43973e-07
2284.77	1.23319e-06
2293.45	1.05837e-06
2302.13	1.21793e-06
2310.81	1.00297e-06
2319.48	1.13754e-06
2328.16	9.28265e-07
2336.84	1.202e-06
2345.52	5.04225e-07
2354.2	7.64844e-07
2362.87	-9.24147e-08
2371.55	1.03914e-06
2380.23	1.17805e-06
2388.91	8.78882e-07
2397.59	9.97146e-07
2406.27	1.01433e-06
2414.94	1.26374e-06
2423.62	1.72283e-06
2432.3	1.69519e-06
2440.98	1.24537e-06
2449.66	1.28027e-06
2458.33	1.24536e-06
2467.01	1.72588e-06
2475.69	2.00489e-06
2484.37	2.12813e-06
2493.05	1.96558e-06
2501.73	1.39388e-06
2510.4	1.44811e-06
2519.08	1.36545e-06
2527.76	2.0729e-06
2536.44	1.54281e-06
2545.12	1.4172e-06
2553.79	1.44639e-06
2562.47	9.2661e-07
2571.15	1.43258e-06
2579.83	1.31561e-06
2588.51	8.77243e-07
2597.19	1.75207e-06
2605.86	1.47138e-06
2614.54	1.01156e-06
2623.22	1.32337e-06
2631.9	9.58795e-07
2640.58	1.27749e-06
2649.25	7.04891e-07
2657.93	1.05411e-06
2666.61	1.50717e-06
2675.29	1.12788e-06
2683.97	1.41397e-06
2692.65	1.69375e-06
2701.32	9.00839e-07
2710	1.48312e-06
2718.68	1.59866e-06
2727.36	1.55362e-06
2736.04	1.26065e-06
2744.71	1.59618e-06
2753.39	1.89944e-06
2762.07	1.75653e-06
2770.75	1.79166e-06
2779.43	1.11959e-06
2788.11	1.78966e-06
2796.78	1.80284e-06
2805.46	2.19027e-06
2814.14	2.29771e-06
2822.82	3.09539e-06
2831.5	2.11244e-06
2840.17	2.05949e-06
2848.85	1.65348e-06
2857.53	1.26178e-06
2866.21	1.47812e-06
2874.89	1.91357e-06
2883.57	2.10669e-06
2892.24	2.02374e-06
2900.92	2.93952e-06
2909.6	1.70792e-06
2918.28	2.01167e-06
2926.96	2.14563e-06
2935.63	2.65397e-06
2944.31	2.7293e-06
2952.99	2.43843e-06
2961.67	1.91842e-06
2970.35	2.98859e-06
2979.03	3.62752e-06
2987.7	3.92584e-06
2996.38	2.82246e-06
3005.06	3.20396e-06
3013.74	2.93623e-06
3022.42	2.92348e-06
3031.09	1.54218e-06
3039.77	2.06433e-06
3048.45	2.47011e-06
3057.13	2.2957e-06
3065.81	2.82498e-06
3074.49	5.77591e-06
3083.16	1.9357e-05
3091.84	6.77088e-05
3100.52	7.92283e-05
3109.2	1.22913e-05
3117.88	4.29638e-06
3126.55	3.56319e-06
3135.23	4.36458e-06
3143.91	4.71039e-06
3152.59	4.92156e-06
3161.27	9.06539e-06
3169.95	1.08586e-05
3178.62	9.62817e-06
3187.3	2.70418e-06
3195.98	1.42434e-06
3204.66	2.73616e-06
3213.34	2.44478e-06
3222.01	2.71784e-06
3230.69	3.1194e-06
3239.37	2.2167e-06
3248.05	2.42624e-06
3256.73	2.94438e-06
3265.4	2.47914e-06
3274.08	3.46653e-06
3282.76	2.17397e-06
3291.44	1.85904e-06
3300.12	2.72846e-06
3308.8	2.58656e-06
3317.47	2.59425e-06
3326.15	2.51549e-06
3334.83	1.64311e-06
3343.51	3.40883e-06
3352.19	1.57452e-06
3360.86	2.65828e-06
3369.54	2.79439e-06
3378.22	1.14416e-06
3386.9	2.39103e-06
3395.58	2.76538e-06
3404.26	1.87313e-06
3412.93	1.65944e-06
3421.61	2.88729e-06
3430.29	2.11351e-06
3438.97	2.97676e-06
3447.65	1.94121e-06
3456.32	2.79947e-06
3465	2.18623e-06
3473.68	2.22778e-06
3482.36	2.96733e-06
3491.04	2.29741e-06
3499.72	3.07723e-06
3508.39	2.41124e-06
3517.07	2.20435e-06
3525.75	3.21385e-06
3534.43	3.37207e-06
3543.11	2.27847e-06
3551.78	2.06951e-06
3560.46	1.82001e-06
3569.14	2.94817e-06
3577.82	2.58396e-06
3586.5	2.02677e-06
3595.18	2.52185e-06
3603.85	2.34662e-06
3612.53	2.59417e-06
3621.21	2.65801e-06
3629.89	2.53326e-06
3638.57	2.5775e-06
3647.24	3.04558e-06
3655.92	2.75646e-06
3664.6	3.19032e-06
3673.28	2.80364e-06
3681.96	3.16939e-06
3690.64	2.99265e-06
3699.31	3.37843e-06
3707.99	3.26762e-06
3716.67	4.17955e-06
3725.35	4.31167e-06
3734.03	3.19554e-06
3742.7	3.66317e-06
3751.38	2.86524e-06
3760.06	2.16989e-06
3768.74	3.77798e-06
3777.42	2.79435e-06
3786.1	3.19565e-06
3794.77	3.4345e-06
3803.45	3.44559e-06
3812.13	3.3953e-06
3820.81	1.93584e-06
3829.49	3.04279e-06
3838.16	3.29203e-06
3846.84	2.96398e-06
3855.52	2.71765e-06
3864.2	3.47453e-06
3872.88	3.59436e-06
3881.56	3.46946e-06
3890.23	4.12482e-06
3898.91	3.41864e-06
3907.59	2.95161e-06
3916.27	2.82624e-06
3924.95	2.61796e-06
3933.62	3.45498e-06
3942.3	3.8512e-06
3950.98	4.47389e-06
3959.66	3.17457e-06
3968.34	3.25416e-06
