Infrared Spectrum: Trichloroethene
Formula: C2 H Cl3
CAS: 79-01-6
State: gas
Melting point: -73 C
Boiling point: 87 C
Class: IUPAC A
Instrument: IFS66V (Bruker)
Instrument parameters: KBr Beam Splitter; MCT Detector; Multipass cell
Sampling: 1 L/min Flow
Resolution: 0.4820
Temperature: 23 C
Pressure: 101.3 Pa
Origin: NIST, Analytical Chemistry Division, 301-975-3108
cm-1	(micromol/mol)-1m-1 (base 10)
575.17	-5.10393e-07
583.848	-8.84706e-08
592.526	-7.40452e-08
601.205	1.16597e-06
609.883	6.3847e-06
618.561	2.65368e-05
627.239	7.84847e-05
635.917	8.26917e-05
644.595	2.35087e-05
653.274	3.69007e-06
661.952	1.60177e-06
670.63	1.1929e-06
679.308	1.05057e-06
687.986	5.30241e-07
696.664	5.20929e-08
705.343	3.0671e-07
714.021	4.02731e-07
722.699	2.70254e-07
731.377	1.08496e-06
740.055	1.85106e-06
748.734	2.01347e-06
757.412	4.52239e-06
766.09	3.66895e-05
774.768	9.42839e-05
783.446	0.000283086
792.124	9.84066e-05
800.803	4.01764e-05
809.481	1.54646e-05
818.159	5.80634e-06
826.837	2.38734e-05
835.515	0.000241052
844.193	0.000717393
852.872	0.000707033
861.55	1.78899e-05
870.228	4.21678e-06
878.906	2.50128e-06
887.584	3.07363e-06
896.263	9.80863e-06
904.941	2.37053e-05
913.619	3.46001e-05
922.297	9.48956e-05
930.975	0.000429212
939.653	0.000505079
948.332	0.000450199
957.01	6.23932e-05
965.688	6.71048e-06
974.366	7.96629e-06
983.044	1.1911e-05
991.723	1.10181e-05
1000.4	4.46007e-06
1009.08	8.28636e-06
1017.76	8.91319e-06
1026.44	6.71342e-06
1035.11	2.08543e-06
1043.79	1.39037e-06
1052.47	1.09391e-06
1061.15	8.89782e-07
1069.83	7.54403e-07
1078.5	5.67089e-07
1087.18	7.31299e-07
1095.86	9.77155e-07
1104.54	2.18682e-06
1113.22	3.25719e-06
1121.9	2.1292e-06
1130.57	1.39156e-06
1139.25	9.64887e-07
1147.93	5.7792e-07
1156.61	4.8203e-07
1165.29	5.25712e-07
1173.96	5.43995e-07
1182.64	7.23818e-07
1191.32	6.63873e-07
1200	9.47685e-07
1208.68	2.4334e-06
1217.36	4.805e-06
1226.03	1.07206e-05
1234.71	1.56638e-05
1243.39	4.36318e-05
1252.07	5.20665e-05
1260.75	4.10348e-05
1269.42	1.73041e-05
1278.1	3.89384e-06
1286.78	7.28614e-07
1295.46	4.59473e-07
1304.14	9.00444e-07
1312.82	1.90329e-06
1321.49	2.31375e-06
1330.17	1.54497e-06
1338.85	6.29119e-07
1347.53	4.5493e-07
1356.21	4.91252e-07
1364.88	7.39168e-07
1373.56	3.23507e-07
1382.24	9.72204e-07
1390.92	8.99e-07
1399.6	8.40276e-07
1408.28	1.19965e-06
1416.95	1.23503e-06
1425.63	1.65399e-06
1434.31	9.99667e-07
1442.99	7.81324e-07
1451.67	5.71198e-07
1460.34	5.7498e-07
1469.02	6.62156e-07
1477.7	7.58191e-07
1486.38	4.51227e-07
1495.06	2.94825e-07
1503.73	5.76505e-07
1512.41	2.13475e-07
1521.09	-8.97085e-07
1529.77	8.58998e-07
1538.45	2.92276e-06
1547.13	1.56392e-05
1555.8	5.67156e-05
1564.48	5.11815e-05
1573.16	2.0934e-05
1581.84	3.52976e-05
1590.52	3.67638e-05
1599.19	3.24161e-05
1607.87	5.44315e-06
1616.55	-1.08207e-06
1625.23	4.37017e-07
1633.91	4.6613e-07
1642.59	3.59792e-07
1651.26	2.01988e-07
1659.94	7.01617e-08
1668.62	1.04688e-07
1677.3	5.29863e-07
1685.98	6.51967e-07
1694.65	5.58332e-07
1703.33	3.67112e-07
1712.01	8.80486e-08
1720.69	4.14648e-07
1729.37	2.4993e-07
1738.05	7.02622e-07
1746.72	1.12811e-06
1755.4	2.40943e-06
1764.08	2.45779e-06
1772.76	8.11733e-07
1781.44	2.22274e-06
1790.11	2.62682e-06
1798.79	9.15991e-07
1807.47	7.50488e-07
1816.15	5.38577e-07
1824.83	3.9115e-07
1833.51	6.65933e-07
1842.18	6.42797e-07
1850.86	7.53774e-07
1859.54	1.48643e-06
1868.22	1.73602e-06
1876.9	1.17099e-06
1885.57	7.50678e-07
1894.25	3.2223e-07
1902.93	2.2157e-07
1911.61	5.37841e-07
1920.29	6.32898e-07
1928.97	6.0218e-07
1937.64	6.41215e-07
1946.32	6.24568e-07
1955	7.86e-07
1963.68	7.65518e-07
1972.36	8.74838e-07
1981.03	7.08069e-07
1989.71	5.89165e-07
1998.39	5.78502e-07
2007.07	6.18734e-07
2015.75	6.5757e-07
2024.43	7.41145e-07
2033.1	8.10803e-07
2041.78	9.02586e-07
2050.46	6.91958e-07
2059.14	7.65831e-07
2067.82	9.46027e-07
2076.49	1.14566e-06
2085.17	1.40879e-06
2093.85	1.75838e-06
2102.53	1.45752e-06
2111.21	8.50986e-07
2119.89	4.98564e-07
2128.56	7.38231e-07
2137.24	6.98368e-07
2145.92	9.87733e-07
2154.6	5.81135e-07
2163.28	1.11615e-06
2171.95	1.01763e-06
2180.63	1.09739e-06
2189.31	1.08361e-06
2197.99	1.27184e-06
2206.67	9.97403e-07
2215.35	1.4148e-06
2224.02	1.33665e-06
2232.7	1.23969e-06
2241.38	1.03227e-06
2250.06	1.06861e-06
2258.74	1.12109e-06
2267.41	1.07459e-06
2276.09	1.03526e-06
2284.77	1.15729e-06
2293.45	1.13889e-06
2302.13	1.07063e-06
2310.81	1.0171e-06
2319.48	9.55592e-07
2328.16	9.87062e-07
2336.84	1.04629e-06
2345.52	9.36763e-07
2354.2	8.12302e-07
2362.87	5.18601e-07
2371.55	9.5022e-07
2380.23	1.1808e-06
2388.91	9.30747e-07
2397.59	1.10478e-06
2406.27	1.04383e-06
2414.94	1.26141e-06
2423.62	1.50969e-06
2432.3	1.63177e-06
2440.98	1.31818e-06
2449.66	1.39912e-06
2458.33	1.27372e-06
2467.01	1.65678e-06
2475.69	1.91844e-06
2484.37	2.15287e-06
2493.05	1.85453e-06
2501.73	1.47259e-06
2510.4	1.50717e-06
2519.08	1.65422e-06
2527.76	1.72708e-06
2536.44	1.5925e-06
2545.12	1.47835e-06
2553.79	1.31272e-06
2562.47	1.13747e-06
2571.15	1.35057e-06
2579.83	1.24756e-06
2588.51	9.76897e-07
2597.19	1.3587e-06
2605.86	1.47177e-06
2614.54	1.18385e-06
2623.22	1.25266e-06
2631.9	1.24227e-06
2640.58	1.30104e-06
2649.25	1.11295e-06
2657.93	1.08528e-06
2666.61	1.46023e-06
2675.29	1.405e-06
2683.97	1.28058e-06
2692.65	1.36545e-06
2701.32	1.07637e-06
2710	1.46511e-06
2718.68	1.58727e-06
2727.36	1.40757e-06
2736.04	1.33035e-06
2744.71	1.28464e-06
2753.39	1.62818e-06
2762.07	1.5976e-06
2770.75	1.72889e-06
2779.43	1.27359e-06
2788.11	1.57189e-06
2796.78	1.86927e-06
2805.46	2.20769e-06
2814.14	2.44066e-06
2822.82	2.93644e-06
2831.5	2.66721e-06
2840.17	2.51927e-06
2848.85	1.76726e-06
2857.53	1.67263e-06
2866.21	1.632e-06
2874.89	1.95704e-06
2883.57	1.67996e-06
2892.24	1.95133e-06
2900.92	2.28185e-06
2909.6	1.96899e-06
2918.28	1.94465e-06
2926.96	2.06334e-06
2935.63	2.61807e-06
2944.31	2.80406e-06
2952.99	2.47888e-06
2961.67	1.59802e-06
2970.35	3.07619e-06
2979.03	3.63516e-06
2987.7	3.75166e-06
2996.38	2.98567e-06
3005.06	2.94516e-06
3013.74	2.65297e-06
3022.42	2.49547e-06
3031.09	1.90148e-06
3039.77	2.19796e-06
3048.45	2.3291e-06
3057.13	2.36655e-06
3065.81	2.83255e-06
3074.49	5.73757e-06
3083.16	1.9675e-05
3091.84	6.76155e-05
3100.52	7.90001e-05
3109.2	1.22769e-05
3117.88	4.28161e-06
3126.55	3.68036e-06
3135.23	4.34627e-06
3143.91	4.79844e-06
3152.59	5.03805e-06
3161.27	8.94746e-06
3169.95	1.08398e-05
3178.62	9.0988e-06
3187.3	2.62456e-06
3195.98	1.91271e-06
3204.66	2.88654e-06
3213.34	2.14858e-06
3222.01	2.86337e-06
3230.69	2.96621e-06
3239.37	2.77065e-06
3248.05	2.52827e-06
3256.73	2.8983e-06
3265.4	2.85733e-06
3274.08	3.14692e-06
3282.76	2.33001e-06
3291.44	2.25284e-06
3300.12	2.6422e-06
3308.8	2.51169e-06
3317.47	2.66632e-06
3326.15	2.49983e-06
3334.83	1.94357e-06
3343.51	2.5848e-06
3352.19	1.81904e-06
3360.86	2.78669e-06
3369.54	2.55217e-06
3378.22	1.85344e-06
3386.9	2.60703e-06
3395.58	2.86167e-06
3404.26	2.21653e-06
3412.93	2.28614e-06
3421.61	2.34393e-06
3430.29	2.35391e-06
3438.97	2.7935e-06
3447.65	2.13709e-06
3456.32	2.52498e-06
3465	2.39409e-06
3473.68	2.39814e-06
3482.36	2.67452e-06
3491.04	2.47324e-06
3499.72	2.81632e-06
3508.39	2.49645e-06
3517.07	2.57021e-06
3525.75	2.78989e-06
3534.43	2.99592e-06
3543.11	2.23098e-06
3551.78	2.32909e-06
3560.46	2.31171e-06
3569.14	2.8076e-06
3577.82	2.30951e-06
3586.5	2.58204e-06
3595.18	2.47296e-06
3603.85	2.45882e-06
3612.53	2.5232e-06
3621.21	2.78894e-06
3629.89	2.37364e-06
3638.57	2.84443e-06
3647.24	2.68721e-06
3655.92	2.48087e-06
3664.6	3.38217e-06
3673.28	3.05707e-06
3681.96	3.00509e-06
3690.64	2.96399e-06
3699.31	3.34169e-06
3707.99	3.32377e-06
3716.67	3.90466e-06
3725.35	4.13103e-06
3734.03	3.41844e-06
3742.7	3.53365e-06
3751.38	2.80117e-06
3760.06	2.70412e-06
3768.74	3.37786e-06
3777.42	2.99115e-06
3786.1	3.36808e-06
3794.77	3.40162e-06
3803.45	3.22902e-06
3812.13	3.09617e-06
3820.81	2.63633e-06
3829.49	3.32679e-06
3838.16	1.94594e-06
3846.84	3.05004e-06
3855.52	2.90494e-06
3864.2	3.45518e-06
3872.88	3.44126e-06
3881.56	3.28628e-06
3890.23	3.41053e-06
3898.91	3.00187e-06
3907.59	3.16801e-06
3916.27	3.08195e-06
3924.95	2.90464e-06
3933.62	3.48429e-06
3942.3	3.85385e-06
3950.98	4.05246e-06
3959.66	3.33439e-06
3968.34	3.31777e-06
