Infrared Spectrum: 1,1,2-Trichloroethane
Formula: Cl C H2 C H Cl2
CAS: 79-00-5
State: gas
Melting point: -36.5 C
Boiling point: 113.77 C
Class: IUPAC A
Instrument: IFS66V (Bruker)
Instrument parameters: KBr Beam Splitter; MCT Detector; Multipass cell
Sampling: 1 L/min Flow
Resolution: 0.2410
Temperature: 23 C
Pressure: 101.3 Pa
Origin: NIST, Analytical Chemistry Division, 301-975-3108
cm-1	(micromol/mol)-1m-1 (base 10)
575.05	5.56357e-07
583.608	-7.34533e-07
592.165	2.28679e-06
600.723	-4.64358e-07
609.281	-4.23402e-07
617.838	-1.11468e-06
626.396	-3.20247e-07
634.954	1.69697e-06
643.511	3.30021e-06
652.069	1.15577e-05
660.626	4.89686e-05
669.184	0.000150336
677.742	0.000160411
686.299	8.35491e-05
694.857	1.90877e-05
703.415	1.36389e-05
711.972	2.75924e-05
720.53	5.36558e-05
729.088	0.000257234
737.645	0.000797599
746.203	0.000830691
754.761	0.000148655
763.318	2.64623e-05
771.876	3.72363e-05
780.434	7.56644e-05
788.991	0.000103101
797.549	9.90461e-05
806.106	1.96969e-05
814.664	2.50859e-06
823.222	1.61714e-06
831.779	1.61513e-06
840.337	2.63905e-06
848.895	2.73508e-06
857.452	1.16462e-06
866.01	4.6522e-07
874.568	7.36801e-07
883.125	9.26543e-07
891.683	3.44703e-06
900.241	5.05574e-06
908.798	8.4712e-06
917.356	2.43935e-05
925.914	7.78957e-05
934.471	0.000138951
943.029	0.000150536
951.586	4.87141e-05
960.144	1.04593e-05
968.702	5.4307e-06
977.259	3.89946e-06
985.817	1.75795e-06
994.375	2.31517e-06
1002.93	2.78798e-06
1011.49	2.56685e-06
1020.05	1.74717e-06
1028.61	2.83687e-06
1037.16	8.2182e-06
1045.72	1.59331e-05
1054.28	1.69103e-05
1062.84	1.23378e-05
1071.39	6.95728e-06
1079.95	2.01082e-06
1088.51	1.0108e-06
1097.07	2.048e-07
1105.62	-1.96412e-07
1114.18	4.23461e-07
1122.74	1.90343e-07
1131.3	8.36505e-07
1139.85	1.72734e-06
1148.41	7.56157e-06
1156.97	1.85338e-05
1165.53	2.03583e-05
1174.09	6.98616e-06
1182.64	3.27526e-06
1191.2	9.35425e-06
1199.76	6.03898e-05
1208.32	8.70562e-05
1216.87	0.000101828
1225.43	1.35367e-05
1233.99	9.61872e-06
1242.55	1.51982e-05
1251.1	2.82402e-05
1259.66	9.59271e-05
1268.22	9.20894e-05
1276.78	3.40085e-05
1285.33	5.97323e-06
1293.89	8.07406e-06
1302.45	3.17334e-05
1311.01	3.46794e-05
1319.57	1.73529e-05
1328.12	4.91452e-06
1336.68	4.05713e-06
1345.24	4.28111e-06
1353.8	3.48489e-06
1362.35	1.42049e-06
1370.91	8.29752e-07
1379.47	8.32618e-07
1388.03	3.4485e-07
1396.58	7.82551e-07
1405.14	3.07813e-07
1413.7	2.33258e-06
1422.26	1.08981e-05
1430.81	4.2824e-05
1439.37	3.4501e-05
1447.93	2.84578e-05
1456.49	3.79531e-06
1465.05	4.54927e-07
1473.6	-2.3344e-07
1482.16	1.00008e-06
1490.72	1.14377e-07
1499.28	5.77281e-08
1507.83	-3.36954e-07
1516.39	-2.69079e-07
1524.95	-6.47275e-08
1533.51	-9.28562e-08
1542.06	-1.78594e-06
1550.62	7.69592e-08
1559.18	-2.12912e-09
1567.74	-1.86704e-07
1576.29	-2.92277e-06
1584.85	-1.20411e-07
1593.41	1.78369e-08
1601.97	1.8125e-07
1610.53	2.0659e-07
1619.08	-1.27078e-07
1627.64	-4.04521e-07
1636.2	-1.1135e-07
1644.76	7.38397e-08
1653.31	-4.11395e-06
1661.87	-3.51127e-07
1670.43	-1.45715e-07
1678.99	-3.43074e-07
1687.54	2.01125e-08
1696.1	-2.10792e-06
1704.66	-4.26805e-07
1713.22	-3.02128e-07
1721.77	-1.09781e-07
1730.33	-1.13834e-07
1738.89	-3.66428e-07
1747.45	-3.01608e-07
1756.01	-6.28485e-07
1764.56	-1.96777e-07
1773.12	-8.41233e-08
1781.68	-1.07152e-07
1790.24	9.43978e-08
1798.79	1.43756e-07
1807.35	1.80499e-07
1815.91	1.57042e-07
1824.47	3.91143e-07
1833.02	1.70879e-07
1841.58	-5.34898e-08
1850.14	-1.94212e-07
1858.7	-3.9419e-07
1867.25	-3.9376e-07
1875.81	-1.90331e-07
1884.37	-3.28712e-07
1892.93	-2.16656e-07
1901.49	-4.90863e-07
1910.04	-3.48112e-07
1918.6	-3.43264e-07
1927.16	-1.83156e-07
1935.72	-4.62248e-08
1944.27	-2.63321e-07
1952.83	-7.61471e-08
1961.39	-3.40863e-07
1969.95	-2.66938e-07
1978.5	4.01325e-07
1987.06	2.09513e-07
1995.62	2.23485e-07
2004.18	1.38291e-07
2012.73	1.69791e-07
2021.29	7.02463e-08
2029.85	-1.88485e-07
2038.41	-2.82215e-09
2046.97	3.79771e-07
2055.52	-5.81055e-08
2064.08	2.86398e-09
2072.64	-4.26469e-08
2081.2	-1.36361e-07
2089.75	5.06504e-07
2098.31	1.03531e-06
2106.87	6.94879e-07
2115.43	-4.0142e-07
2123.98	-4.86454e-07
2132.54	-3.23508e-07
2141.1	-4.0086e-07
2149.66	1.00056e-07
2158.21	-1.60582e-06
2166.77	3.22805e-08
2175.33	-3.05816e-08
2183.89	1.27383e-08
2192.45	-4.90215e-08
2201	3.30842e-07
2209.56	-1.38029e-07
2218.12	2.09907e-07
2226.68	-2.16241e-07
2235.23	1.54992e-07
2243.79	3.02908e-07
2252.35	1.13925e-07
2260.91	-1.20351e-07
2269.46	3.5391e-08
2278.02	3.28249e-07
2286.58	-1.82687e-07
2295.14	-2.47778e-07
2303.69	-1.8759e-07
2312.25	-3.10977e-07
2320.81	-1.02116e-06
2329.37	-5.52307e-07
2337.93	-1.47669e-06
2346.48	1.96389e-07
2355.04	1.13244e-06
2363.6	1.7751e-06
2372.16	1.52704e-06
2380.71	3.56274e-07
2389.27	4.95577e-07
2397.83	7.95226e-07
2406.39	2.26844e-06
2414.94	7.21965e-07
2423.5	4.11717e-07
2432.06	2.4891e-07
2440.62	8.61749e-07
2449.17	9.3746e-07
2457.73	2.3615e-06
2466.29	2.38233e-06
2474.85	1.19391e-06
2483.41	9.85006e-07
2491.96	5.53259e-07
2500.52	3.77494e-07
2509.08	1.0453e-06
2517.64	1.06761e-06
2526.19	6.75873e-07
2534.75	1.98721e-07
2543.31	-3.91696e-07
2551.87	1.46639e-07
2560.42	1.24013e-07
2568.98	5.06844e-07
2577.54	4.17777e-07
2586.1	3.93095e-07
2594.65	5.16921e-07
2603.21	6.07581e-07
2611.77	-7.93093e-08
2620.33	-1.4212e-07
2628.89	-3.01558e-07
2637.44	-2.27875e-07
2646	4.38401e-08
2654.56	1.82789e-08
2663.12	-1.39652e-08
2671.67	5.34253e-08
2680.23	1.22217e-08
2688.79	4.3124e-07
2697.35	7.96476e-07
2705.9	9.27297e-07
2714.46	-1.75632e-08
2723.02	2.21583e-07
2731.58	3.96729e-08
2740.13	7.83328e-07
2748.69	5.76031e-07
2757.25	-2.53461e-07
2765.81	-1.28733e-07
2774.37	1.33037e-07
2782.92	8.79222e-08
2791.48	-8.96693e-08
2800.04	-9.65733e-08
2808.6	3.08991e-07
2817.15	1.62535e-08
2825.71	-1.9311e-07
2834.27	3.34564e-07
2842.83	1.42376e-06
2851.38	5.33719e-06
2859.94	4.38841e-06
2868.5	2.87283e-06
2877.06	1.71436e-06
2885.61	1.11503e-06
2894.17	8.70966e-07
2902.73	1.20049e-06
2911.29	1.26072e-06
2919.85	1.2688e-06
2928.4	2.00085e-06
2936.96	2.43655e-06
2945.52	2.25339e-06
2954.08	4.62435e-06
2962.63	1.74908e-05
2971.19	4.24964e-05
2979.75	4.87943e-05
2988.31	1.0379e-05
2996.86	7.17816e-06
3005.42	6.61058e-06
3013.98	9.25327e-06
3022.54	5.48458e-06
3031.09	5.2974e-06
3039.65	1.33468e-06
3048.21	7.15718e-07
3056.77	1.78124e-07
3065.33	2.94492e-07
3073.88	-3.15875e-08
3082.44	3.61085e-07
3091	2.09094e-07
3099.56	-3.64272e-07
3108.11	-5.40065e-07
3116.67	5.44717e-07
3125.23	1.7183e-08
3133.79	3.71363e-08
3142.34	4.50967e-07
3150.9	2.92897e-07
3159.46	3.73329e-07
3168.02	-3.16001e-07
3176.57	3.34019e-08
3185.13	3.38412e-08
3193.69	2.80599e-07
3202.25	1.59911e-07
3210.81	1.02763e-07
3219.36	-1.62189e-07
3227.92	4.60175e-07
3236.48	-2.14315e-07
3245.04	4.15001e-07
3253.59	3.10421e-07
3262.15	-2.07014e-07
3270.71	9.6315e-10
3279.27	7.43735e-08
3287.82	-4.83739e-07
3296.38	6.05168e-07
3304.94	-1.10106e-07
3313.5	-2.20945e-07
3322.05	-7.91311e-08
3330.61	-1.47642e-07
3339.17	1.72403e-07
3347.73	2.31429e-07
3356.29	2.99236e-07
3364.84	-2.37052e-07
3373.4	-2.55895e-07
3381.96	8.59857e-07
3390.52	1.03454e-07
3399.07	3.47322e-07
3407.63	3.77762e-07
3416.19	-3.38402e-07
3424.75	-6.40989e-07
3433.3	2.88215e-07
3441.86	-4.09357e-07
3450.42	4.05833e-08
3458.98	-4.14248e-07
3467.53	3.31295e-07
3476.09	5.74006e-07
3484.65	-2.94416e-07
3493.21	-6.85803e-07
3501.77	-2.79626e-07
3510.32	9.33773e-08
3518.88	3.51899e-07
3527.44	-5.8808e-07
3536	2.3252e-08
3544.55	3.63399e-07
3553.11	-1.74911e-07
3561.67	-2.0931e-07
3570.23	-2.97696e-07
3578.78	4.5148e-08
3587.34	-2.62145e-07
3595.9	8.53611e-08
3604.46	-2.28484e-07
3613.01	3.07474e-07
3621.57	-1.6225e-07
3630.13	2.34483e-07
3638.69	2.62592e-07
3647.25	-4.19825e-07
3655.8	2.61634e-07
3664.36	2.62651e-07
3672.92	-2.75115e-07
3681.48	-8.79559e-08
3690.03	2.36476e-07
3698.59	6.71526e-07
3707.15	-2.46981e-08
3715.71	-3.04899e-07
3724.26	1.95366e-07
3732.82	-4.45839e-07
3741.38	3.91488e-07
3749.94	2.4539e-07
3758.49	1.05058e-06
3767.05	4.88857e-07
3775.61	4.30082e-07
3784.17	7.80897e-08
3792.73	5.23062e-07
3801.28	-1.42316e-06
3809.84	9.85046e-07
3818.4	9.76557e-07
3826.96	4.58501e-07
3835.51	1.00809e-07
3844.07	-6.11725e-07
3852.63	-3.62306e-07
3861.19	-3.33307e-07
3869.74	-4.71931e-07
3878.3	-5.84256e-07
3886.86	-2.80374e-07
3895.42	4.42009e-07
3903.97	7.13777e-08
3912.53	-6.14852e-07
3921.09	-2.6793e-07
3929.65	-3.05565e-07
3938.21	2.72207e-07
3946.76	3.65449e-07
3955.32	4.9119e-07
3963.88	3.97755e-07
3972.44	9.52518e-08
