Infrared Spectrum: 1,1,2-Trichloroethane
Formula: Cl C H2 C H Cl2
CAS: 79-00-5
State: gas
Melting point: -36.5 C
Boiling point: 113.77 C
Class: IUPAC A
Instrument: IFS66V (Bruker)
Instrument parameters: KBr Beam Splitter; MCT Detector; Multipass cell
Sampling: 1 L/min Flow
Resolution: 0.9640
Temperature: 23 C
Pressure: 101.3 Pa
Origin: NIST, Analytical Chemistry Division, 301-975-3108
cm-1	(micromol/mol)-1m-1 (base 10)
575.17	-4.42003e-07
583.848	-5.50541e-07
592.526	-6.58334e-07
601.205	-1.42243e-06
609.883	1.07302e-07
618.561	-3.24292e-07
627.239	-4.62235e-07
635.917	9.54898e-07
644.595	5.49088e-06
653.274	1.39426e-05
661.952	6.00492e-05
670.63	0.000160799
679.308	0.000192111
687.986	6.45749e-05
696.665	1.39537e-05
705.343	1.75254e-05
714.021	2.87341e-05
722.699	7.54029e-05
731.377	0.000396196
740.055	0.000843387
748.734	0.000714114
757.412	5.22644e-05
766.09	2.68681e-05
774.768	4.33109e-05
783.446	9.1021e-05
792.125	7.40094e-05
800.803	5.69391e-05
809.481	8.28863e-06
818.159	1.34331e-06
826.837	2.40589e-06
835.515	2.03983e-06
844.194	2.50324e-06
852.872	1.91914e-06
861.55	9.20921e-07
870.228	8.69808e-07
878.906	1.49337e-06
887.584	2.53841e-06
896.263	4.26219e-06
904.941	6.94685e-06
913.619	1.50581e-05
922.297	4.81124e-05
930.975	0.000139252
939.654	0.000154561
948.332	7.50772e-05
957.01	1.84975e-05
965.688	5.69234e-06
974.366	3.85987e-06
983.044	1.93018e-06
991.723	2.34053e-06
1000.4	2.7406e-06
1009.08	2.30226e-06
1017.76	1.5367e-06
1026.44	2.82689e-06
1035.11	6.95726e-06
1043.79	1.40218e-05
1052.47	1.77101e-05
1061.15	1.44184e-05
1069.83	8.0292e-06
1078.5	3.06028e-06
1087.18	6.60995e-07
1095.86	6.32323e-07
1104.54	2.71602e-07
1113.22	3.04794e-07
1121.9	6.93646e-07
1130.57	7.30858e-07
1139.25	1.45969e-06
1147.93	7.18445e-06
1156.61	1.88609e-05
1165.29	2.03013e-05
1173.96	7.05048e-06
1182.64	3.20312e-06
1191.32	9.49005e-06
1200	6.42157e-05
1208.68	0.000125922
1217.36	9.1057e-05
1226.03	1.28391e-05
1234.71	1.01288e-05
1243.39	1.46325e-05
1252.07	3.3961e-05
1260.75	9.70501e-05
1269.42	8.76803e-05
1278.1	2.63013e-05
1286.78	4.61348e-06
1295.46	1.10642e-05
1304.14	3.46886e-05
1312.82	3.64504e-05
1321.49	1.11266e-05
1330.17	5.08768e-06
1338.85	4.30788e-06
1347.53	4.28583e-06
1356.21	3.48765e-06
1364.88	1.112e-06
1373.56	4.7109e-07
1382.24	6.82792e-07
1390.92	5.26638e-07
1399.6	4.4675e-07
1408.28	1.30209e-06
1416.95	3.59155e-06
1425.63	1.88783e-05
1434.31	4.61041e-05
1442.99	4.94096e-05
1451.67	1.57258e-05
1460.34	2.14574e-06
1469.02	1.20279e-06
1477.7	1.04535e-06
1486.38	9.25598e-07
1495.06	4.29645e-07
1503.74	2.16131e-08
1512.41	-2.52858e-07
1521.09	-9.52962e-07
1529.77	-9.29944e-08
1538.45	-6.42255e-07
1547.13	5.66721e-08
1555.8	1.13071e-07
1564.48	-4.45887e-08
1573.16	-1.89511e-07
1581.84	-1.10191e-07
1590.52	-3.03133e-07
1599.2	-2.50846e-08
1607.87	2.63069e-07
1616.55	-1.05488e-06
1625.23	2.17441e-08
1633.91	-3.47035e-07
1642.59	-2.6617e-07
1651.26	-2.6548e-07
1659.94	-1.78408e-07
1668.62	-4.33466e-07
1677.3	-2.63266e-07
1685.98	-1.69976e-07
1694.66	-2.16867e-07
1703.33	-7.65645e-08
1712.01	-8.10919e-08
1720.69	9.32318e-09
1729.37	-8.56385e-08
1738.05	-1.19593e-07
1746.72	-3.6081e-07
1755.4	-4.5812e-07
1764.08	-1.60912e-07
1772.76	-9.93686e-07
1781.44	-4.24677e-08
1790.12	3.58012e-08
1798.79	1.6646e-07
1807.47	1.11758e-07
1816.15	1.34216e-07
1824.83	3.24113e-07
1833.51	1.92174e-07
1842.18	-2.19776e-07
1850.86	-2.93807e-07
1859.54	-3.18401e-07
1868.22	-4.1387e-07
1876.9	-3.15457e-07
1885.58	-3.44337e-07
1894.25	-3.03161e-07
1902.93	-3.4499e-07
1911.61	-2.59501e-07
1920.29	-2.58384e-07
1928.97	-1.56167e-07
1937.64	-5.86521e-08
1946.32	-7.48519e-08
1955	-1.86318e-07
1963.68	-3.79175e-07
1972.36	3.12637e-08
1981.04	3.82096e-07
1989.71	4.71034e-07
1998.39	-1.79843e-08
2007.07	2.39678e-08
2015.75	-7.36914e-08
2024.43	-1.17342e-08
2033.1	-1.04831e-07
2041.78	4.43513e-08
2050.46	8.47463e-08
2059.14	8.18823e-08
2067.82	-1.66862e-07
2076.5	3.60813e-08
2085.17	1.58919e-07
2093.85	5.03602e-07
2102.53	5.49096e-07
2111.21	1.49855e-07
2119.89	-4.84853e-07
2128.56	3.59458e-08
2137.24	-1.12768e-08
2145.92	-9.82768e-08
2154.6	-7.02547e-07
2163.28	-1.01232e-07
2171.96	-1.19909e-07
2180.63	8.2549e-08
2189.31	7.12313e-08
2197.99	6.28368e-07
2206.67	4.1662e-07
2215.35	6.29367e-10
2224.02	-1.03161e-07
2232.7	-3.27362e-08
2241.38	-1.04273e-07
2250.06	1.03955e-07
2258.74	1.19298e-07
2267.42	8.19069e-08
2276.09	-2.45908e-08
2284.77	-1.80066e-07
2293.45	-2.43457e-07
2302.13	-8.86807e-08
2310.81	-7.15622e-07
2319.48	-1.17847e-06
2328.16	-1.52231e-06
2336.84	-9.54899e-07
2345.52	-8.0845e-07
2354.2	-9.871e-07
2362.88	-1.613e-06
2371.55	2.14836e-07
2380.23	6.23585e-07
2388.91	5.53222e-07
2397.59	9.24324e-07
2406.27	2.20884e-06
2414.94	9.49767e-07
2423.62	3.93237e-07
2432.3	5.8683e-08
2440.98	3.99732e-07
2449.66	1.12735e-06
2458.34	2.14579e-06
2467.01	2.06971e-06
2475.69	1.22212e-06
2484.37	8.78397e-07
2493.05	7.66375e-07
2501.73	7.7084e-07
2510.4	1.14879e-06
2519.08	1.09977e-06
2527.76	6.22274e-07
2536.44	-8.80741e-08
2545.12	-2.40691e-07
2553.8	-1.07915e-07
2562.47	3.99965e-07
2571.15	5.59696e-07
2579.83	3.82568e-07
2588.51	2.81346e-07
2597.19	3.68323e-07
2605.86	1.8608e-07
2614.54	2.16906e-07
2623.22	-8.6377e-08
2631.9	1.51366e-08
2640.58	2.0503e-07
2649.26	1.5635e-07
2657.93	1.87773e-08
2666.61	4.15028e-08
2675.29	4.30762e-08
2683.97	1.09894e-08
2692.65	7.17048e-07
2701.32	7.10415e-07
2710	3.26053e-07
2718.68	3.44196e-08
2727.36	2.22225e-07
2736.04	6.03093e-07
2744.72	6.37264e-07
2753.39	3.90664e-07
2762.07	-1.67459e-07
2770.75	-5.77144e-08
2779.43	2.20637e-07
2788.11	-1.09903e-08
2796.78	-4.968e-08
2805.46	1.40359e-07
2814.14	2.47299e-08
2822.82	3.15071e-07
2831.5	3.22009e-07
2840.18	5.90405e-07
2848.85	3.61241e-06
2857.53	7.54122e-06
2866.21	4.44522e-06
2874.89	5.10139e-07
2883.57	1.0953e-06
2892.24	1.05558e-06
2900.92	1.30575e-06
2909.6	1.22555e-06
2918.28	1.55733e-06
2926.96	1.82851e-06
2935.63	1.99957e-06
2944.31	2.15207e-06
2952.99	4.32015e-06
2961.67	1.46171e-05
2970.35	4.57915e-05
2979.03	4.90218e-05
2987.7	1.20108e-05
2996.38	6.46916e-06
3005.06	6.98348e-06
3013.74	9.56392e-06
3022.42	5.4442e-06
3031.09	5.14439e-06
3039.77	1.21929e-06
3048.45	6.33205e-07
3057.13	2.30781e-07
3065.81	3.40886e-08
3074.49	4.817e-07
3083.16	4.46314e-07
3091.84	1.39246e-07
3100.52	1.00178e-07
3109.2	1.94718e-07
3117.88	8.86207e-08
3126.55	6.622e-09
3135.23	2.09715e-07
3143.91	4.26187e-08
3152.59	2.88146e-07
3161.27	1.27906e-07
3169.95	1.7746e-07
3178.62	1.61678e-07
3187.3	1.9479e-07
3195.98	1.73794e-08
3204.66	-4.3158e-08
3213.34	1.03786e-07
3222.01	-1.24729e-07
3230.69	-3.00022e-07
3239.37	-1.31439e-07
3248.05	2.2298e-08
3256.73	8.73192e-08
3265.41	1.55594e-07
3274.08	-1.46352e-07
3282.76	1.70216e-07
3291.44	-1.74649e-08
3300.12	2.83315e-07
3308.8	-8.96039e-08
3317.47	8.50919e-09
3326.15	1.17357e-07
3334.83	-4.16419e-08
3343.51	3.0748e-08
3352.19	2.9103e-07
3360.87	2.82642e-08
3369.54	8.57549e-08
3378.22	-1.04747e-07
3386.9	1.37085e-07
3395.58	2.22599e-07
3404.26	5.63314e-07
3412.93	2.63507e-07
3421.61	1.81107e-08
3430.29	1.06365e-07
3438.97	-4.86095e-08
3447.65	3.54528e-08
3456.33	-1.16695e-07
3465	-6.9646e-08
3473.68	-3.68282e-07
3482.36	-1.14861e-07
3491.04	-1.27722e-07
3499.72	-3.02342e-07
3508.39	-1.00701e-07
3517.07	9.72954e-08
3525.75	-3.46493e-07
3534.43	1.31314e-07
3543.11	-3.20517e-07
3551.79	-2.72028e-07
3560.46	-1.00621e-07
3569.14	-2.49146e-07
3577.82	-1.19767e-07
3586.5	-3.31555e-07
3595.18	-2.79821e-07
3603.85	-2.23163e-07
3612.53	-3.57617e-07
3621.21	-4.55097e-07
3629.89	-5.21e-07
3638.57	1.1741e-07
3647.25	-2.85328e-07
3655.92	-8.90518e-08
3664.6	2.30173e-07
3673.28	1.09148e-08
3681.96	1.45413e-07
3690.64	-2.69573e-08
3699.31	2.17439e-07
3707.99	1.19776e-07
3716.67	1.41063e-07
3725.35	-1.00175e-07
3734.03	-2.04331e-07
3742.71	1.80278e-07
3751.38	2.13232e-07
3760.06	4.80304e-07
3768.74	7.78457e-07
3777.42	4.39311e-07
3786.1	2.07213e-07
3794.77	1.77852e-07
3803.45	2.62444e-07
3812.13	4.47728e-07
3820.81	-2.53852e-07
3829.49	-1.78008e-07
3838.17	-1.21731e-06
3846.84	-4.62128e-07
3855.52	-1.13764e-07
3864.2	-3.28398e-07
3872.88	-2.90722e-07
3881.56	-2.9312e-07
3890.23	2.49691e-08
3898.91	4.03459e-08
3907.59	3.60187e-07
3916.27	-8.57722e-08
3924.95	-2.35733e-07
3933.63	1.58953e-07
3942.3	1.70031e-07
3950.98	4.47148e-07
3959.66	1.00528e-06
3968.34	2.1724e-07
