Infrared Spectrum: 1,1,2-Trichloroethane
Formula: Cl C H2 C H Cl2
CAS: 79-00-5
State: gas
Melting point: -36.5 C
Boiling point: 113.77 C
Class: IUPAC A
Instrument: IFS66V (Bruker)
Instrument parameters: KBr Beam Splitter; MCT Detector; Multipass cell
Sampling: 1 L/min Flow
Resolution: 0.1250
Temperature: 23 C
Pressure: 101.3 Pa
Origin: NIST, Analytical Chemistry Division, 301-975-3108
cm-1	(micromol/mol)-1m-1 (base 10)
575.05	-1.13488e-06
583.608	-1.00238e-06
592.165	2.15173e-06
600.723	-6.17946e-07
609.281	-5.12742e-07
617.838	-1.23968e-06
626.396	-4.39564e-07
634.954	1.74884e-06
643.511	3.35708e-06
652.069	1.24252e-05
660.626	4.92795e-05
669.184	0.000150486
677.742	0.000160186
686.299	8.33912e-05
694.857	1.92952e-05
703.415	1.39959e-05
711.972	2.73376e-05
720.53	5.41372e-05
729.088	0.000257168
737.645	0.000795753
746.203	0.000831633
754.761	0.000149985
763.318	2.65979e-05
771.876	3.70302e-05
780.434	7.60186e-05
788.991	0.000102733
797.549	9.87447e-05
806.106	1.98833e-05
814.664	2.2118e-06
823.222	1.39325e-06
831.779	1.38536e-06
840.337	2.52829e-06
848.895	2.71935e-06
857.452	1.09092e-06
866.01	2.78748e-07
874.568	5.73051e-07
883.125	8.02083e-07
891.683	3.21882e-06
900.241	5.30412e-06
908.798	8.11414e-06
917.356	2.43048e-05
925.914	7.82141e-05
934.471	0.00013886
943.029	0.000150584
951.586	4.84965e-05
960.144	1.05597e-05
968.702	5.27057e-06
977.259	3.8564e-06
985.817	1.59655e-06
994.375	2.15053e-06
1002.93	2.6334e-06
1011.49	2.4116e-06
1020.05	1.89373e-06
1028.61	3.09178e-06
1037.16	8.28356e-06
1045.72	1.60457e-05
1054.28	1.67594e-05
1062.84	1.22983e-05
1071.39	7.05509e-06
1079.95	2.09526e-06
1088.51	1.11082e-06
1097.07	3.69249e-07
1105.62	-1.20207e-07
1114.18	4.70301e-07
1122.74	2.4352e-07
1131.3	7.42868e-07
1139.85	1.77794e-06
1148.41	7.39891e-06
1156.97	1.84822e-05
1165.53	2.04486e-05
1174.09	6.86469e-06
1182.64	3.33474e-06
1191.2	9.44146e-06
1199.76	6.04587e-05
1208.32	8.78735e-05
1216.87	0.000101562
1225.43	1.38754e-05
1233.99	9.6425e-06
1242.55	1.54336e-05
1251.1	2.82329e-05
1259.66	9.55765e-05
1268.22	9.18009e-05
1276.78	3.41434e-05
1285.33	6.07776e-06
1293.89	8.06354e-06
1302.45	3.18753e-05
1311.01	3.47125e-05
1319.57	1.73864e-05
1328.12	5.19416e-06
1336.68	4.12433e-06
1345.24	4.26546e-06
1353.8	3.67079e-06
1362.35	1.77273e-06
1370.91	7.68253e-07
1379.47	7.13025e-07
1388.03	2.05828e-07
1396.58	8.24876e-07
1405.14	2.804e-07
1413.7	2.14465e-06
1422.26	1.11156e-05
1430.81	4.28089e-05
1439.37	3.48984e-05
1447.93	2.84659e-05
1456.49	3.40555e-06
1465.05	4.97151e-07
1473.6	-2.00291e-07
1482.16	9.61828e-07
1490.72	8.86444e-08
1499.28	1.55374e-07
1507.83	-3.40763e-07
1516.39	-2.59808e-07
1524.95	2.81996e-08
1533.51	-5.59136e-08
1542.06	-1.67952e-06
1550.62	3.47489e-08
1559.18	2.07728e-09
1567.74	-2.95093e-08
1576.29	-2.66316e-06
1584.85	-8.32074e-08
1593.41	9.92463e-08
1601.97	1.44894e-07
1610.53	2.14164e-07
1619.08	-1.32927e-07
1627.64	-3.45677e-07
1636.2	-1.66399e-07
1644.76	8.42934e-08
1653.31	-4.60909e-06
1661.87	-3.54252e-07
1670.43	-7.73339e-08
1678.99	-2.17961e-07
1687.54	8.53038e-08
1696.1	-1.89978e-06
1704.66	-2.39149e-07
1713.22	-3.23088e-07
1721.77	-1.01401e-07
1730.33	-1.78609e-07
1738.89	-3.84541e-07
1747.45	-4.03086e-07
1756.01	-6.44457e-07
1764.56	-1.62522e-07
1773.12	-5.21465e-08
1781.68	-8.55012e-09
1790.24	1.55608e-07
1798.79	3.70417e-08
1807.35	3.57067e-07
1815.91	1.66687e-07
1824.47	3.92043e-07
1833.02	2.17693e-07
1841.58	-1.20082e-07
1850.14	-3.10293e-07
1858.7	-4.64141e-07
1867.25	-4.47535e-07
1875.81	-2.32029e-07
1884.37	-2.43058e-07
1892.93	-2.34227e-07
1901.49	-4.08883e-07
1910.04	-3.27663e-07
1918.6	-4.62385e-07
1927.16	-2.18403e-07
1935.72	-1.12119e-07
1944.27	-3.52304e-07
1952.83	8.06718e-10
1961.39	-3.55225e-07
1969.95	-2.88195e-07
1978.5	3.72551e-07
1987.06	1.26429e-07
1995.62	3.11379e-07
2004.18	2.75726e-07
2012.73	2.38458e-07
2021.29	-1.04382e-08
2029.85	-3.73235e-07
2038.41	-6.62409e-08
2046.97	5.89858e-07
2055.52	6.06903e-09
2064.08	5.14153e-08
2072.64	-3.42878e-10
2081.2	6.01446e-09
2089.75	5.38422e-07
2098.31	1.03982e-06
2106.87	6.94528e-07
2115.43	-3.01088e-07
2123.98	-6.10909e-07
2132.54	-2.92154e-07
2141.1	-3.90576e-07
2149.66	1.33197e-07
2158.21	-1.39585e-06
2166.77	1.15456e-07
2175.33	-2.0023e-07
2183.89	-5.70905e-08
2192.45	-1.68222e-07
2201	2.66681e-07
2209.56	-1.85492e-07
2218.12	2.76097e-07
2226.68	-3.3231e-07
2235.23	2.35152e-07
2243.79	2.4226e-07
2252.35	2.73393e-08
2260.91	-5.80327e-08
2269.46	8.94129e-08
2278.02	4.15311e-07
2286.58	-1.48896e-07
2295.14	-1.56169e-07
2303.69	-3.19343e-07
2312.25	-3.40403e-07
2320.81	-9.40831e-07
2329.37	-5.98295e-07
2337.93	-1.14156e-06
2346.48	2.96598e-07
2355.04	1.22257e-06
2363.6	1.69597e-06
2372.16	1.55957e-06
2380.71	1.72274e-07
2389.27	4.28055e-07
2397.83	8.04541e-07
2406.39	2.38214e-06
2414.94	5.8439e-07
2423.5	3.64991e-07
2432.06	3.06368e-07
2440.62	9.56353e-07
2449.17	9.7684e-07
2457.73	2.31097e-06
2466.29	2.63204e-06
2474.85	1.28206e-06
2483.41	1.04546e-06
2491.96	6.06799e-07
2500.52	2.68017e-07
2509.08	1.08785e-06
2517.64	1.27443e-06
2526.19	9.39658e-07
2534.75	2.65493e-07
2543.31	-3.61562e-07
2551.87	4.30753e-08
2560.42	4.60429e-08
2568.98	4.72758e-07
2577.54	2.50349e-07
2586.1	3.82391e-07
2594.65	4.58171e-07
2603.21	5.3001e-07
2611.77	-1.66233e-07
2620.33	-6.55242e-08
2628.89	-3.86364e-07
2637.44	-2.50313e-07
2646	-5.15817e-08
2654.56	9.80248e-09
2663.12	3.31163e-08
2671.67	-7.21608e-08
2680.23	-1.72339e-08
2688.79	3.29535e-07
2697.35	7.68665e-07
2705.9	9.26798e-07
2714.46	-1.61478e-07
2723.02	4.39725e-07
2731.58	2.50792e-08
2740.13	7.78592e-07
2748.69	6.14915e-07
2757.25	-4.35206e-07
2765.81	-8.57376e-09
2774.37	7.82925e-08
2782.92	2.37664e-07
2791.48	-3.37039e-08
2800.04	-4.56655e-09
2808.6	5.96426e-07
2817.15	9.15784e-08
2825.71	-4.6202e-07
2834.27	3.66751e-07
2842.83	1.50567e-06
2851.38	5.39053e-06
2859.94	4.11873e-06
2868.5	2.85449e-06
2877.06	1.8323e-06
2885.61	1.08537e-06
2894.17	1.02547e-06
2902.73	1.12099e-06
2911.29	1.27525e-06
2919.85	1.20633e-06
2928.4	1.89571e-06
2936.96	2.72698e-06
2945.52	2.16435e-06
2954.08	4.56254e-06
2962.63	1.75079e-05
2971.19	4.25302e-05
2979.75	4.87466e-05
2988.31	1.07664e-05
2996.86	7.26483e-06
3005.42	6.65794e-06
3013.98	9.22471e-06
3022.54	5.4391e-06
3031.09	5.05762e-06
3039.65	1.2057e-06
3048.21	8.42653e-07
3056.77	2.37005e-07
3065.33	4.39261e-07
3073.88	-1.29668e-07
3082.44	2.39572e-07
3091	3.67042e-07
3099.56	-4.54705e-07
3108.11	-4.85374e-07
3116.67	6.82409e-07
3125.23	-2.52593e-08
3133.79	-1.3384e-07
3142.34	7.07733e-07
3150.9	6.98146e-07
3159.46	3.94257e-07
3168.02	-4.72015e-07
3176.57	-1.59409e-07
3185.13	6.42045e-08
3193.69	5.0182e-08
3202.25	1.47689e-07
3210.81	1.05455e-08
3219.36	-3.6124e-08
3227.92	4.97759e-07
3236.48	-4.23706e-07
3245.04	6.04317e-07
3253.59	2.04257e-07
3262.15	-2.78999e-07
3270.71	9.17857e-09
3279.27	2.59696e-08
3287.82	-6.34849e-07
3296.38	5.60109e-07
3304.94	-5.40728e-08
3313.5	-5.64814e-07
3322.05	-1.13085e-07
3330.61	-5.94116e-07
3339.17	2.68873e-07
3347.73	2.81735e-07
3356.29	4.24947e-07
3364.84	-2.62793e-07
3373.4	-6.77432e-07
3381.96	1.26009e-06
3390.52	2.63793e-07
3399.07	3.86969e-07
3407.63	3.48937e-07
3416.19	-7.10464e-07
3424.75	-4.24788e-07
3433.3	4.41144e-07
3441.86	-4.35296e-07
3450.42	-1.35532e-08
3458.98	-7.00856e-07
3467.53	1.34783e-07
3476.09	5.4977e-07
3484.65	-4.40453e-07
3493.21	-9.07224e-07
3501.77	-4.88855e-07
3510.32	1.0458e-07
3518.88	7.30855e-07
3527.44	-7.01109e-07
3536	-1.03675e-07
3544.55	2.64915e-07
3553.11	7.58242e-09
3561.67	-2.23538e-07
3570.23	-4.17906e-07
3578.78	8.49709e-08
3587.34	-1.32285e-07
3595.9	4.14783e-07
3604.46	-1.13764e-07
3613.01	2.90067e-07
3621.57	-3.47782e-07
3630.13	2.90345e-07
3638.69	5.20772e-07
3647.25	-4.08339e-07
3655.8	5.06813e-08
3664.36	2.47587e-07
3672.92	-2.65488e-07
3681.48	-3.06434e-07
3690.03	3.37043e-07
3698.59	5.92947e-07
3707.15	9.82622e-08
3715.71	-3.92975e-07
3724.26	4.10597e-07
3732.82	-2.60146e-07
3741.38	5.55175e-07
3749.94	3.96157e-07
3758.49	8.6499e-07
3767.05	4.72297e-07
3775.61	5.3029e-07
3784.17	1.69029e-07
3792.73	6.35228e-07
3801.28	-1.35118e-06
3809.84	1.08269e-06
3818.4	9.37415e-07
3826.96	4.84473e-07
3835.51	4.67995e-07
3844.07	-3.70526e-07
3852.63	-4.55838e-07
3861.19	-5.03013e-07
3869.74	-5.11209e-07
3878.3	-2.89145e-07
3886.86	-2.29968e-07
3895.42	3.51775e-07
3903.97	3.10113e-07
3912.53	-6.41644e-07
3921.09	-3.71033e-07
3929.65	-4.99593e-07
3938.21	3.56155e-07
3946.76	1.25947e-07
3955.32	4.86411e-07
3963.88	2.34647e-07
3972.44	8.48909e-08
