Infrared Spectrum: 1,1,2-Trichloroethane
Formula: Cl C H2 C H Cl2
CAS: 79-00-5
State: gas
Melting point: -36.5 C
Boiling point: 113.77 C
Class: IUPAC A
Instrument: IFS66V (Bruker)
Instrument parameters: KBr Beam Splitter; MCT Detector; Multipass cell
Sampling: 1 L/min Flow
Resolution: 0.2410
Temperature: 23 C
Pressure: 101.3 Pa
Origin: NIST, Analytical Chemistry Division, 301-975-3108
cm-1	(micromol/mol)-1m-1 (base 10)
575.05	2.18008e-07
583.608	-6.86026e-07
592.165	2.09912e-06
600.723	-4.74767e-07
609.281	-3.7693e-07
617.838	-9.9511e-07
626.396	-2.24702e-07
634.954	1.70838e-06
643.511	3.47615e-06
652.069	1.16916e-05
660.626	4.91457e-05
669.184	0.000149779
677.742	0.000160451
686.299	8.38487e-05
694.857	1.93802e-05
703.415	1.40064e-05
711.972	2.78102e-05
720.53	5.44421e-05
729.088	0.000258105
737.645	0.000794907
746.203	0.00082732
754.761	0.00015087
763.318	2.71372e-05
771.876	3.7457e-05
780.434	7.57536e-05
788.991	0.000102937
797.549	9.86829e-05
806.106	1.98621e-05
814.664	2.54958e-06
823.222	1.75219e-06
831.779	1.67657e-06
840.337	2.62864e-06
848.895	2.77769e-06
857.452	1.22274e-06
866.01	5.45915e-07
874.568	8.13487e-07
883.125	9.99728e-07
891.683	3.50559e-06
900.241	5.0967e-06
908.798	8.57514e-06
917.356	2.45717e-05
925.914	7.79348e-05
934.471	0.00013853
943.029	0.000149895
951.586	4.88169e-05
960.144	1.0637e-05
968.702	5.46376e-06
977.259	3.94262e-06
985.817	1.79018e-06
994.375	2.34327e-06
1002.93	2.79648e-06
1011.49	2.53249e-06
1020.05	1.77725e-06
1028.61	2.89682e-06
1037.16	8.28706e-06
1045.72	1.58967e-05
1054.28	1.68694e-05
1062.84	1.23569e-05
1071.39	6.94603e-06
1079.95	2.05992e-06
1088.51	9.92258e-07
1097.07	2.30236e-07
1105.62	-1.38892e-07
1114.18	4.06472e-07
1122.74	2.44216e-07
1131.3	8.47137e-07
1139.85	1.73749e-06
1148.41	7.62931e-06
1156.97	1.86227e-05
1165.53	2.03555e-05
1174.09	7.04143e-06
1182.64	3.34287e-06
1191.2	9.50153e-06
1199.76	6.04638e-05
1208.32	8.8938e-05
1216.87	0.000101452
1225.43	1.3763e-05
1233.99	9.72501e-06
1242.55	1.52484e-05
1251.1	2.84183e-05
1259.66	9.55376e-05
1268.22	9.17114e-05
1276.78	3.40981e-05
1285.33	6.1194e-06
1293.89	8.14837e-06
1302.45	3.16448e-05
1311.01	3.46491e-05
1319.57	1.73467e-05
1328.12	4.96761e-06
1336.68	4.08676e-06
1345.24	4.32807e-06
1353.8	3.52668e-06
1362.35	1.42761e-06
1370.91	8.6792e-07
1379.47	8.03464e-07
1388.03	3.67222e-07
1396.58	7.89737e-07
1405.14	3.84008e-07
1413.7	2.36637e-06
1422.26	1.09272e-05
1430.81	4.25942e-05
1439.37	3.54276e-05
1447.93	2.84635e-05
1456.49	3.87711e-06
1465.05	5.66632e-07
1473.6	-1.3798e-07
1482.16	1.00049e-06
1490.72	1.6443e-07
1499.28	3.61932e-08
1507.83	-3.5172e-07
1516.39	-2.57116e-07
1524.95	-6.08813e-08
1533.51	-1.34565e-07
1542.06	-1.63804e-06
1550.62	5.94406e-08
1559.18	-8.6688e-08
1567.74	-1.65323e-07
1576.29	-2.71226e-06
1584.85	-1.09688e-07
1593.41	-8.04262e-09
1601.97	1.7475e-07
1610.53	2.1415e-07
1619.08	-9.33355e-08
1627.64	-3.78408e-07
1636.2	-1.69245e-07
1644.76	5.48359e-08
1653.31	-3.86065e-06
1661.87	-3.51996e-07
1670.43	-1.82599e-07
1678.99	-3.1572e-07
1687.54	1.16606e-08
1696.1	-1.93752e-06
1704.66	-3.88832e-07
1713.22	-3.01867e-07
1721.77	-1.10047e-07
1730.33	-1.23683e-07
1738.89	-3.68815e-07
1747.45	-3.1726e-07
1756.01	-6.15151e-07
1764.56	-2.02954e-07
1773.12	-1.46925e-07
1781.68	-1.06202e-07
1790.24	9.43478e-08
1798.79	1.45319e-07
1807.35	1.77731e-07
1815.91	1.63226e-07
1824.47	3.94558e-07
1833.02	1.89438e-07
1841.58	-4.98146e-08
1850.14	-2.12539e-07
1858.7	-3.84875e-07
1867.25	-4.00647e-07
1875.81	-2.01965e-07
1884.37	-3.18185e-07
1892.93	-2.24332e-07
1901.49	-4.73362e-07
1910.04	-3.45774e-07
1918.6	-3.35577e-07
1927.16	-1.8079e-07
1935.72	-5.87658e-08
1944.27	-2.65929e-07
1952.83	-8.62451e-08
1961.39	-3.30642e-07
1969.95	-2.53262e-07
1978.5	3.9999e-07
1987.06	2.15525e-07
1995.62	2.21492e-07
2004.18	1.14365e-07
2012.73	1.66988e-07
2021.29	4.13281e-08
2029.85	-1.94323e-07
2038.41	-3.81895e-09
2046.97	3.74367e-07
2055.52	-3.4366e-08
2064.08	-3.83259e-09
2072.64	-4.60966e-08
2081.2	-1.21128e-07
2089.75	4.88979e-07
2098.31	9.99592e-07
2106.87	6.67117e-07
2115.43	-3.29192e-07
2123.98	-4.75711e-07
2132.54	-3.12912e-07
2141.1	-3.73372e-07
2149.66	8.83897e-08
2158.21	-1.47803e-06
2166.77	7.73976e-10
2175.33	-4.44522e-08
2183.89	-1.03336e-08
2192.45	-2.54548e-08
2201	3.27566e-07
2209.56	-1.13237e-07
2218.12	1.87041e-07
2226.68	-2.25855e-07
2235.23	1.37619e-07
2243.79	2.79418e-07
2252.35	1.15034e-07
2260.91	-1.26946e-07
2269.46	2.92474e-08
2278.02	3.08645e-07
2286.58	-1.89839e-07
2295.14	-2.47326e-07
2303.69	-1.85696e-07
2312.25	-3.15578e-07
2320.81	-1.08687e-06
2329.37	-6.72258e-07
2337.93	-1.50103e-06
2346.48	1.08924e-07
2355.04	9.63855e-07
2363.6	1.55273e-06
2372.16	1.36984e-06
2380.71	3.66165e-07
2389.27	4.94657e-07
2397.83	7.96923e-07
2406.39	2.24116e-06
2414.94	7.35073e-07
2423.5	4.04897e-07
2432.06	2.45424e-07
2440.62	8.068e-07
2449.17	9.52886e-07
2457.73	2.33936e-06
2466.29	2.36621e-06
2474.85	1.21188e-06
2483.41	9.71058e-07
2491.96	5.8244e-07
2500.52	4.08568e-07
2509.08	1.03791e-06
2517.64	1.09376e-06
2526.19	7.11067e-07
2534.75	1.88562e-07
2543.31	-3.57213e-07
2551.87	1.58971e-07
2560.42	1.4548e-07
2568.98	5.23747e-07
2577.54	4.02226e-07
2586.1	3.72436e-07
2594.65	5.01583e-07
2603.21	5.79154e-07
2611.77	-5.42265e-08
2620.33	-1.17784e-07
2628.89	-3.09808e-07
2637.44	-1.96532e-07
2646	3.68416e-08
2654.56	2.5563e-08
2663.12	-1.9826e-08
2671.67	5.82601e-08
2680.23	-5.57517e-09
2688.79	4.18899e-07
2697.35	7.80297e-07
2705.9	9.29071e-07
2714.46	-6.39008e-09
2723.02	2.07989e-07
2731.58	5.37363e-08
2740.13	7.69521e-07
2748.69	5.97126e-07
2757.25	-2.37869e-07
2765.81	-1.09745e-07
2774.37	1.14914e-07
2782.92	7.44636e-08
2791.48	-8.87426e-08
2800.04	-7.90356e-08
2808.6	2.98946e-07
2817.15	3.81249e-08
2825.71	-1.79601e-07
2834.27	3.41918e-07
2842.83	1.4093e-06
2851.38	5.35758e-06
2859.94	4.45565e-06
2868.5	2.88558e-06
2877.06	1.68903e-06
2885.61	1.13552e-06
2894.17	8.88288e-07
2902.73	1.20377e-06
2911.29	1.25821e-06
2919.85	1.27111e-06
2928.4	1.98241e-06
2936.96	2.41948e-06
2945.52	2.28229e-06
2954.08	4.67235e-06
2962.63	1.74809e-05
2971.19	4.23941e-05
2979.75	4.85044e-05
2988.31	1.04974e-05
2996.86	7.19174e-06
3005.42	6.84415e-06
3013.98	9.23489e-06
3022.54	5.49013e-06
3031.09	5.28507e-06
3039.65	1.29533e-06
3048.21	6.81899e-07
3056.77	2.03497e-07
3065.33	2.93129e-07
3073.88	-2.25663e-08
3082.44	3.70167e-07
3091	1.9846e-07
3099.56	-3.52571e-07
3108.11	-5.09689e-07
3116.67	5.10024e-07
3125.23	3.56729e-08
3133.79	4.61966e-08
3142.34	4.28289e-07
3150.9	3.15864e-07
3159.46	3.61558e-07
3168.02	-2.8298e-07
3176.57	4.21076e-08
3185.13	2.52784e-08
3193.69	2.69295e-07
3202.25	1.21698e-07
3210.81	6.61399e-08
3219.36	-1.64714e-07
3227.92	4.32211e-07
3236.48	-1.88981e-07
3245.04	3.9879e-07
3253.59	2.85324e-07
3262.15	-1.70822e-07
3270.71	-7.13131e-09
3279.27	5.2122e-08
3287.82	-4.26034e-07
3296.38	5.35863e-07
3304.94	-7.85481e-08
3313.5	-2.24456e-07
3322.05	-8.13903e-08
3330.61	-1.24869e-07
3339.17	1.44462e-07
3347.73	2.37692e-07
3356.29	2.83795e-07
3364.84	-2.60662e-07
3373.4	-2.1372e-07
3381.96	8.18492e-07
3390.52	9.42241e-08
3399.07	3.14129e-07
3407.63	3.40619e-07
3416.19	-3.00004e-07
3424.75	-5.63508e-07
3433.3	2.51633e-07
3441.86	-4.08932e-07
3450.42	4.48442e-08
3458.98	-3.87962e-07
3467.53	2.81175e-07
3476.09	4.93967e-07
3484.65	-3.26344e-07
3493.21	-6.66621e-07
3501.77	-2.607e-07
3510.32	8.62924e-08
3518.88	3.35067e-07
3527.44	-5.53271e-07
3536	1.62453e-08
3544.55	3.02785e-07
3553.11	-1.83209e-07
3561.67	-1.89913e-07
3570.23	-2.93391e-07
3578.78	4.42058e-08
3587.34	-2.74567e-07
3595.9	4.58783e-08
3604.46	-2.21357e-07
3613.01	2.3856e-07
3621.57	-1.57394e-07
3630.13	1.90996e-07
3638.69	2.74872e-07
3647.25	-4.12459e-07
3655.8	2.19732e-07
3664.36	2.73566e-07
3672.92	-2.59289e-07
3681.48	-5.07486e-08
3690.03	2.47374e-07
3698.59	6.06232e-07
3707.15	-1.65327e-08
3715.71	-2.84411e-07
3724.26	1.82279e-07
3732.82	-4.33627e-07
3741.38	3.78221e-07
3749.94	1.86611e-07
3758.49	9.85435e-07
3767.05	4.98043e-07
3775.61	4.53119e-07
3784.17	1.07641e-07
3792.73	5.32933e-07
3801.28	-1.24158e-06
3809.84	9.56945e-07
3818.4	9.40286e-07
3826.96	4.51783e-07
3835.51	4.37119e-08
3844.07	-5.78094e-07
3852.63	-4.20034e-07
3861.19	-3.38774e-07
3869.74	-5.29682e-07
3878.3	-5.19131e-07
3886.86	-2.90225e-07
3895.42	4.30388e-07
3903.97	7.4881e-08
3912.53	-5.4374e-07
3921.09	-2.81603e-07
3929.65	-2.63989e-07
3938.21	2.69444e-07
3946.76	3.62827e-07
3955.32	5.31283e-07
3963.88	4.12543e-07
3972.44	9.26397e-08
