Infrared Spectrum: Trichloroethene
Formula: C2 H Cl3
CAS: 79-01-6
State: gas
Melting point: -73 C
Boiling point: 87 C
Class: IUPAC A
Instrument: IFS66V (Bruker)
Instrument parameters: KBr Beam Splitter; MCT Detector; Multipass cell
Sampling: 1 L/min Flow
Resolution: 0.2410
Temperature: 23 C
Pressure: 101.3 Pa
Origin: NIST, Analytical Chemistry Division, 301-975-3108
cm-1	(micromol/mol)-1m-1 (base 10)
575.05	3.67873e-06
583.608	2.37878e-06
592.165	-2.77308e-06
600.723	1.07284e-06
609.281	3.84318e-06
617.838	2.4572e-05
626.396	7.85028e-05
634.954	7.18736e-05
643.511	2.8022e-05
652.069	4.49741e-06
660.626	1.65847e-06
669.184	8.84209e-07
677.742	1.13077e-07
686.299	1.18846e-06
694.857	1.38142e-07
703.415	-8.69318e-07
711.972	-1.44819e-07
720.53	-3.17827e-07
729.088	1.16266e-06
737.645	1.44267e-06
746.203	1.98095e-06
754.761	2.15675e-06
763.318	1.98088e-05
771.876	8.23286e-05
780.434	9.65766e-05
788.991	0.000106295
797.549	6.22434e-05
806.106	1.94652e-05
814.664	5.20253e-06
823.222	1.22646e-05
831.779	8.91808e-05
840.337	0.000564478
848.895	0.000865616
857.452	0.000322482
866.01	4.65732e-06
874.568	3.81143e-06
883.125	2.80843e-06
891.683	5.01758e-06
900.241	1.88372e-05
908.798	1.93555e-05
917.356	4.29554e-05
925.914	0.000183785
934.471	0.000588234
943.029	0.000621224
951.586	0.000200426
960.144	2.53904e-05
968.702	6.41948e-06
977.259	1.23622e-05
985.817	1.01119e-05
994.375	7.77176e-06
1002.93	4.74668e-06
1011.49	8.53473e-06
1020.05	8.16093e-06
1028.61	4.373e-06
1037.16	2.21322e-06
1045.72	1.65408e-06
1054.28	1.17315e-06
1062.84	5.36024e-07
1071.39	6.59699e-07
1079.95	8.08034e-07
1088.51	9.49429e-07
1097.07	1.44912e-06
1105.62	2.40386e-06
1114.18	3.65626e-06
1122.74	1.36932e-06
1131.3	1.68173e-06
1139.85	7.08974e-07
1148.41	1.6859e-07
1156.97	4.54874e-07
1165.53	2.28372e-07
1174.09	2.35016e-07
1182.64	8.02992e-07
1191.2	5.81502e-07
1199.76	1.17907e-06
1208.32	2.61093e-06
1216.87	4.50912e-06
1225.43	1.04681e-05
1233.99	1.34968e-05
1242.55	3.89767e-05
1251.1	5.47272e-05
1259.66	4.50921e-05
1268.22	1.77517e-05
1276.78	4.91984e-06
1285.33	1.2358e-06
1293.89	7.27753e-07
1302.45	9.25309e-07
1311.01	1.42499e-06
1319.57	2.01556e-06
1328.12	1.98549e-06
1336.68	6.34867e-07
1345.24	3.30672e-07
1353.8	2.71453e-07
1362.35	4.58199e-08
1370.91	9.3671e-07
1379.47	1.13021e-06
1388.03	1.12212e-06
1396.58	1.15253e-06
1405.14	7.18857e-07
1413.7	1.24062e-06
1422.26	1.40099e-06
1430.81	1.39858e-06
1439.37	9.96015e-07
1447.93	-2.06191e-07
1456.49	-7.38524e-07
1465.05	-6.46783e-08
1473.6	-4.96876e-07
1482.16	6.79932e-07
1490.72	-4.37917e-07
1499.28	-1.12808e-08
1507.83	2.58495e-07
1516.39	2.04477e-07
1524.95	1.5202e-07
1533.51	9.59779e-07
1542.06	4.80166e-06
1550.62	2.99072e-05
1559.18	3.17394e-05
1567.74	4.16715e-05
1576.29	1.91757e-05
1584.85	4.49665e-05
1593.41	4.22225e-05
1601.97	1.80915e-05
1610.53	2.85431e-06
1619.08	8.06953e-07
1627.64	-2.5692e-08
1636.2	-7.13973e-08
1644.76	3.22738e-07
1653.31	-3.87694e-06
1661.87	4.39688e-07
1670.43	5.40941e-08
1678.99	2.91408e-07
1687.54	5.81035e-07
1696.1	-1.7268e-06
1704.66	-2.02815e-07
1713.22	-6.63535e-09
1721.77	3.90438e-07
1730.33	6.50382e-07
1738.89	4.37776e-07
1747.45	1.18594e-06
1756.01	2.54689e-06
1764.56	2.5364e-06
1773.12	2.17966e-06
1781.68	2.09507e-06
1790.24	2.80096e-06
1798.79	8.72883e-07
1807.35	7.07456e-07
1815.91	7.40891e-07
1824.47	5.04505e-07
1833.02	8.18627e-07
1841.58	5.40199e-07
1850.14	5.56529e-07
1858.7	1.28457e-06
1867.25	1.42821e-06
1875.81	1.33632e-06
1884.37	8.86104e-07
1892.93	2.83121e-07
1901.49	2.02689e-07
1910.04	3.05233e-07
1918.6	4.65373e-07
1927.16	6.4337e-07
1935.72	4.86532e-07
1944.27	4.71757e-07
1952.83	5.53117e-07
1961.39	7.70939e-07
1969.95	7.55113e-07
1978.5	9.91786e-07
1987.06	6.22197e-07
1995.62	8.72799e-07
2004.18	9.67133e-07
2012.73	5.7385e-07
2021.29	7.0062e-07
2029.85	6.48238e-07
2038.41	4.2766e-07
2046.97	8.23221e-07
2055.52	9.06569e-07
2064.08	7.19439e-07
2072.64	1.02298e-06
2081.2	1.46364e-06
2089.75	1.13896e-06
2098.31	1.58307e-06
2106.87	1.36101e-06
2115.43	5.58741e-07
2123.98	8.7e-07
2132.54	8.23069e-07
2141.1	5.14187e-07
2149.66	7.68087e-07
2158.21	2.47345e-07
2166.77	1.07716e-06
2175.33	1.37313e-06
2183.89	1.19231e-06
2192.45	1.00539e-06
2201	1.0209e-06
2209.56	1.36874e-06
2218.12	1.42469e-06
2226.68	1.36466e-06
2235.23	1.15481e-06
2243.79	1.1572e-06
2252.35	1.13714e-06
2260.91	8.70225e-07
2269.46	1.02374e-06
2278.02	1.31352e-06
2286.58	8.96732e-07
2295.14	1.23244e-06
2303.69	9.72167e-07
2312.25	1.17927e-06
2320.81	1.01571e-06
2329.37	9.97976e-07
2337.93	6.01834e-07
2346.48	7.96404e-07
2355.04	1.37566e-06
2363.6	8.77077e-07
2372.16	1.2999e-06
2380.71	1.02531e-06
2389.27	9.97692e-07
2397.83	1.40394e-06
2406.39	9.17715e-07
2414.94	1.33407e-06
2423.5	1.61285e-06
2432.06	1.54701e-06
2440.62	1.30906e-06
2449.17	9.72788e-07
2457.73	1.42132e-06
2466.29	1.59757e-06
2474.85	1.99107e-06
2483.41	1.71377e-06
2491.96	1.93271e-06
2500.52	1.79424e-06
2509.08	1.52166e-06
2517.64	2.21308e-06
2526.19	1.54785e-06
2534.75	1.58496e-06
2543.31	1.20154e-06
2551.87	1.37111e-06
2560.42	1.33977e-06
2568.98	1.06446e-06
2577.54	1.28304e-06
2586.1	1.42532e-06
2594.65	1.16169e-06
2603.21	1.18479e-06
2611.77	1.53949e-06
2620.33	1.18801e-06
2628.89	1.63953e-06
2637.44	1.5207e-06
2646	1.3218e-06
2654.56	9.82626e-07
2663.12	1.04531e-06
2671.67	1.31636e-06
2680.23	1.5086e-06
2688.79	1.07591e-06
2697.35	1.35727e-06
2705.9	1.41096e-06
2714.46	9.24323e-07
2723.02	1.25786e-06
2731.58	1.27404e-06
2740.13	1.28632e-06
2748.69	1.06307e-06
2757.25	8.21795e-07
2765.81	1.37683e-06
2774.37	1.5648e-06
2782.92	1.26951e-06
2791.48	1.56948e-06
2800.04	1.8475e-06
2808.6	2.58641e-06
2817.15	2.34117e-06
2825.71	3.51526e-06
2834.27	3.55083e-06
2842.83	2.22976e-06
2851.38	2.02405e-06
2859.94	1.72071e-06
2868.5	2.04343e-06
2877.06	2.05209e-06
2885.61	2.31631e-06
2894.17	1.67588e-06
2902.73	1.88737e-06
2911.29	2.32423e-06
2919.85	2.36623e-06
2928.4	2.63064e-06
2936.96	2.11675e-06
2945.52	1.88504e-06
2954.08	2.46395e-06
2962.63	3.89466e-06
2971.19	3.23837e-06
2979.75	3.50885e-06
2988.31	3.79818e-06
2996.86	3.33186e-06
3005.42	2.98527e-06
3013.98	2.61129e-06
3022.54	2.77237e-06
3031.09	1.70515e-06
3039.65	2.34412e-06
3048.21	2.65439e-06
3056.77	2.08025e-06
3065.33	2.9344e-06
3073.88	5.40642e-06
3082.44	1.65887e-05
3091	6.92601e-05
3099.56	7.55437e-05
3108.11	1.48243e-05
3116.67	4.38722e-06
3125.23	2.86808e-06
3133.79	4.43628e-06
3142.34	4.4158e-06
3150.9	4.91118e-06
3159.46	7.81557e-06
3168.02	1.18724e-05
3176.57	9.91003e-06
3185.13	2.51646e-06
3193.69	2.10512e-06
3202.25	2.6507e-06
3210.81	2.82171e-06
3219.36	2.15011e-06
3227.92	2.30803e-06
3236.48	2.25886e-06
3245.04	3.1071e-06
3253.59	2.69409e-06
3262.15	4.03918e-06
3270.71	2.96899e-06
3279.27	2.48371e-06
3287.82	2.61279e-06
3296.38	2.41246e-06
3304.94	1.55705e-06
3313.5	2.10509e-06
3322.05	2.51923e-06
3330.61	1.957e-06
3339.17	1.92595e-06
3347.73	2.77769e-06
3356.29	3.16227e-06
3364.84	3.03376e-06
3373.4	2.2026e-06
3381.96	2.08187e-06
3390.52	2.47661e-06
3399.07	2.08145e-06
3407.63	2.13082e-06
3416.19	2.445e-06
3424.75	2.42522e-06
3433.3	2.59621e-06
3441.86	2.24955e-06
3450.42	2.5446e-06
3458.98	2.24579e-06
3467.53	2.14988e-06
3476.09	2.25175e-06
3484.65	2.9398e-06
3493.21	2.74943e-06
3501.77	2.71994e-06
3510.32	3.22796e-06
3518.88	2.44507e-06
3527.44	2.67379e-06
3536	2.7539e-06
3544.55	3.14939e-06
3553.11	3.39036e-06
3561.67	2.53277e-06
3570.23	2.53985e-06
3578.78	2.54866e-06
3587.34	2.32006e-06
3595.9	3.35661e-06
3604.46	3.42574e-06
3613.01	2.59359e-06
3621.57	3.23014e-06
3630.13	3.5571e-06
3638.69	2.66621e-06
3647.25	2.9537e-06
3655.8	2.77389e-06
3664.36	3.76501e-06
3672.92	3.25179e-06
3681.48	3.3737e-06
3690.03	2.90176e-06
3698.59	3.85939e-06
3707.15	3.38337e-06
3715.71	3.78584e-06
3724.26	3.7458e-06
3732.82	3.53535e-06
3741.38	2.54819e-06
3749.94	3.01195e-06
3758.49	3.17617e-06
3767.05	3.2276e-06
3775.61	2.79527e-06
3784.17	3.00032e-06
3792.73	3.50036e-06
3801.28	9.72078e-07
3809.84	3.24954e-06
3818.4	2.64198e-06
3826.96	3.1342e-06
3835.51	2.58227e-06
3844.07	2.97984e-06
3852.63	3.61195e-06
3861.19	3.97955e-06
3869.74	3.01349e-06
3878.3	3.48228e-06
3886.86	2.93552e-06
3895.42	3.05727e-06
3903.97	3.54399e-06
3912.53	3.43116e-06
3921.09	2.28706e-06
3929.65	3.58715e-06
3938.21	3.76641e-06
3946.76	3.27651e-06
3955.32	3.06082e-06
3963.88	3.75981e-06
3972.44	2.85273e-06
