Infrared Spectrum: Trichloroethene
Formula: C2 H Cl3
CAS: 79-01-6
State: gas
Melting point: -73 C
Boiling point: 87 C
Class: IUPAC A
Instrument: IFS66V (Bruker)
Instrument parameters: KBr Beam Splitter; MCT Detector; Multipass cell
Sampling: 1 L/min Flow
Resolution: 0.9640
Temperature: 23 C
Pressure: 101.3 Pa
Origin: NIST, Analytical Chemistry Division, 301-975-3108
cm-1	(micromol/mol)-1m-1 (base 10)
575.17	-8.13894e-08
583.848	2.0014e-07
592.526	-1.36429e-07
601.205	1.14634e-06
609.883	5.82118e-06
618.561	2.70093e-05
627.239	7.88927e-05
635.917	8.24185e-05
644.595	2.34583e-05
653.274	3.6095e-06
661.952	1.8255e-06
670.63	1.46098e-06
679.308	1.24895e-06
687.986	5.27225e-07
696.664	-1.37891e-07
705.343	2.11022e-07
714.021	3.06916e-07
722.699	2.11677e-07
731.377	1.08206e-06
740.055	1.85906e-06
748.734	2.07007e-06
757.412	4.60232e-06
766.09	3.67569e-05
774.768	9.46288e-05
783.446	0.000336374
792.124	9.82593e-05
800.803	4.01229e-05
809.481	1.54894e-05
818.159	5.66766e-06
826.837	2.35846e-05
835.515	0.000241337
844.194	0.000718741
852.872	0.000705246
861.55	1.84777e-05
870.228	4.30897e-06
878.906	2.56875e-06
887.584	3.04121e-06
896.263	9.8016e-06
904.941	2.36215e-05
913.619	3.47332e-05
922.297	9.50776e-05
930.975	0.000429283
939.653	0.000505771
948.332	0.000450422
957.01	6.23917e-05
965.688	6.59952e-06
974.366	7.95115e-06
983.044	1.20872e-05
991.723	1.10639e-05
1000.4	4.37685e-06
1009.08	8.16649e-06
1017.76	8.98131e-06
1026.44	6.67596e-06
1035.11	2.09063e-06
1043.79	1.35211e-06
1052.47	1.00612e-06
1061.15	8.42599e-07
1069.83	5.8814e-07
1078.5	5.25393e-07
1087.18	6.68718e-07
1095.86	9.70599e-07
1104.54	2.22546e-06
1113.22	3.22304e-06
1121.9	2.14015e-06
1130.57	1.36129e-06
1139.25	9.03271e-07
1147.93	5.78136e-07
1156.61	4.34708e-07
1165.29	3.86161e-07
1173.96	5.16197e-07
1182.64	6.66811e-07
1191.32	6.49605e-07
1200	9.29017e-07
1208.68	2.36036e-06
1217.36	4.83474e-06
1226.03	1.07301e-05
1234.71	1.52988e-05
1243.39	4.356e-05
1252.07	5.25797e-05
1260.75	4.10553e-05
1269.42	1.72832e-05
1278.1	3.88732e-06
1286.78	7.79488e-07
1295.46	4.45875e-07
1304.14	9.87536e-07
1312.82	1.88786e-06
1321.49	2.22011e-06
1330.17	1.47132e-06
1338.85	6.57421e-07
1347.53	4.61703e-07
1356.21	4.19947e-07
1364.88	7.12255e-07
1373.56	4.8025e-07
1382.24	9.5423e-07
1390.92	1.02478e-06
1399.6	7.57715e-07
1408.28	1.17482e-06
1416.95	1.22565e-06
1425.63	1.62991e-06
1434.31	9.81279e-07
1442.99	7.27403e-07
1451.67	6.09651e-07
1460.34	5.71091e-07
1469.02	6.26978e-07
1477.7	6.98807e-07
1486.38	5.06891e-07
1495.06	3.53532e-07
1503.73	5.01527e-07
1512.41	3.20104e-07
1521.09	-6.0026e-07
1529.77	8.99493e-07
1538.45	2.67304e-06
1547.13	1.57586e-05
1555.8	5.64599e-05
1564.48	5.09573e-05
1573.16	2.09986e-05
1581.84	3.53581e-05
1590.52	3.68347e-05
1599.19	3.24923e-05
1607.87	5.45368e-06
1616.55	-6.89324e-07
1625.23	4.90805e-07
1633.91	4.57182e-07
1642.59	2.90461e-07
1651.26	1.44371e-07
1659.94	1.57535e-07
1668.62	2.3715e-08
1677.3	5.34133e-07
1685.98	5.95929e-07
1694.65	5.00913e-07
1703.33	3.7456e-07
1712.01	1.51534e-07
1720.69	4.16405e-07
1729.37	3.09697e-07
1738.05	6.96253e-07
1746.72	1.11462e-06
1755.4	2.42232e-06
1764.08	2.48875e-06
1772.76	1.22238e-06
1781.44	2.18857e-06
1790.11	2.52518e-06
1798.79	9.17808e-07
1807.47	7.32216e-07
1816.15	5.29563e-07
1824.83	3.54313e-07
1833.51	6.51087e-07
1842.18	6.55537e-07
1850.86	7.77564e-07
1859.54	1.49608e-06
1868.22	1.66544e-06
1876.9	1.17308e-06
1885.57	7.7496e-07
1894.25	2.97526e-07
1902.93	2.39488e-07
1911.61	4.65233e-07
1920.29	6.14732e-07
1928.97	5.64099e-07
1937.64	6.1832e-07
1946.32	5.5002e-07
1955	7.95507e-07
1963.68	7.61467e-07
1972.36	9.34426e-07
1981.03	7.0051e-07
1989.71	5.99118e-07
1998.39	6.19035e-07
2007.07	6.60012e-07
2015.75	6.57455e-07
2024.43	7.56031e-07
2033.1	8.70423e-07
2041.78	8.23951e-07
2050.46	7.29043e-07
2059.14	7.51994e-07
2067.82	9.34927e-07
2076.49	1.12255e-06
2085.17	1.37801e-06
2093.85	1.76196e-06
2102.53	1.50384e-06
2111.21	7.79764e-07
2119.89	5.62125e-07
2128.56	7.24901e-07
2137.24	7.04345e-07
2145.92	9.77701e-07
2154.6	6.67758e-07
2163.28	1.05457e-06
2171.95	1.02269e-06
2180.63	1.0841e-06
2189.31	1.1051e-06
2197.99	1.23417e-06
2206.67	1.00446e-06
2215.35	1.41744e-06
2224.02	1.36806e-06
2232.7	1.20776e-06
2241.38	1.07341e-06
2250.06	1.04923e-06
2258.74	1.0753e-06
2267.41	1.03995e-06
2276.09	1.04836e-06
2284.77	1.11316e-06
2293.45	1.10643e-06
2302.13	1.00755e-06
2310.81	1.06702e-06
2319.48	9.35234e-07
2328.16	9.69638e-07
2336.84	9.87862e-07
2345.52	9.79042e-07
2354.2	8.90239e-07
2362.87	6.9623e-07
2371.55	9.57243e-07
2380.23	1.15423e-06
2388.91	9.46753e-07
2397.59	1.13737e-06
2406.27	1.04155e-06
2414.94	1.2512e-06
2423.62	1.48458e-06
2432.3	1.63542e-06
2440.98	1.3256e-06
2449.66	1.39055e-06
2458.33	1.28437e-06
2467.01	1.61075e-06
2475.69	1.89629e-06
2484.37	2.10158e-06
2493.05	1.81772e-06
2501.73	1.55837e-06
2510.4	1.53431e-06
2519.08	1.71568e-06
2527.76	1.69149e-06
2536.44	1.52775e-06
2545.12	1.42316e-06
2553.79	1.28026e-06
2562.47	1.23054e-06
2571.15	1.31091e-06
2579.83	1.23439e-06
2588.51	1.03341e-06
2597.19	1.30033e-06
2605.86	1.3749e-06
2614.54	1.26311e-06
2623.22	1.21108e-06
2631.9	1.28996e-06
2640.58	1.32013e-06
2649.25	1.19736e-06
2657.93	1.15826e-06
2666.61	1.44531e-06
2675.29	1.42747e-06
2683.97	1.30383e-06
2692.65	1.33205e-06
2701.32	1.12265e-06
2710	1.44546e-06
2718.68	1.5873e-06
2727.36	1.38765e-06
2736.04	1.31762e-06
2744.71	1.23226e-06
2753.39	1.55101e-06
2762.07	1.53821e-06
2770.75	1.65634e-06
2779.43	1.38256e-06
2788.11	1.51825e-06
2796.78	1.803e-06
2805.46	2.27697e-06
2814.14	2.49703e-06
2822.82	2.94198e-06
2831.5	2.80067e-06
2840.17	2.61551e-06
2848.85	1.72845e-06
2857.53	1.74166e-06
2866.21	1.5872e-06
2874.89	1.92021e-06
2883.57	1.65814e-06
2892.24	2.00771e-06
2900.92	2.18395e-06
2909.6	2.10105e-06
2918.28	2.02908e-06
2926.96	2.1438e-06
2935.63	2.64722e-06
2944.31	2.82054e-06
2952.99	2.58465e-06
2961.67	1.76372e-06
2970.35	3.14459e-06
2979.03	3.6056e-06
2987.7	3.73484e-06
2996.38	3.17022e-06
3005.06	2.87035e-06
3013.74	2.54078e-06
3022.42	2.36538e-06
3031.09	2.0104e-06
3039.77	2.22079e-06
3048.45	2.35937e-06
3057.13	2.36365e-06
3065.81	2.92115e-06
3074.49	5.73002e-06
3083.16	1.98113e-05
3091.84	6.73507e-05
3100.52	7.88343e-05
3109.2	1.22393e-05
3117.88	4.33655e-06
3126.55	3.76279e-06
3135.23	4.31486e-06
3143.91	4.83771e-06
3152.59	5.09091e-06
3161.27	8.94782e-06
3169.95	1.0999e-05
3178.62	8.98308e-06
3187.3	2.59026e-06
3195.98	2.1596e-06
3204.66	2.86312e-06
3213.34	2.198e-06
3222.01	2.82111e-06
3230.69	2.91078e-06
3239.37	2.8769e-06
3248.05	2.50554e-06
3256.73	2.91114e-06
3265.41	2.98483e-06
3274.08	3.07189e-06
3282.76	2.41513e-06
3291.44	2.33032e-06
3300.12	2.53783e-06
3308.8	2.60738e-06
3317.47	2.63145e-06
3326.15	2.43635e-06
3334.83	2.07689e-06
3343.51	2.47245e-06
3352.19	1.97058e-06
3360.86	2.73964e-06
3369.54	2.41837e-06
3378.22	2.0337e-06
3386.9	2.62118e-06
3395.58	2.82052e-06
3404.26	2.21696e-06
3412.93	2.31953e-06
3421.61	2.29697e-06
3430.29	2.42678e-06
3438.97	2.73165e-06
3447.65	2.26089e-06
3456.32	2.54417e-06
3465	2.49085e-06
3473.68	2.39366e-06
3482.36	2.64882e-06
3491.04	2.42477e-06
3499.72	2.6511e-06
3508.39	2.50928e-06
3517.07	2.60469e-06
3525.75	2.75876e-06
3534.43	2.8709e-06
3543.11	2.3752e-06
3551.78	2.35204e-06
3560.46	2.40067e-06
3569.14	2.87988e-06
3577.82	2.43341e-06
3586.5	2.78285e-06
3595.18	2.53646e-06
3603.85	2.6067e-06
3612.53	2.60355e-06
3621.21	2.82181e-06
3629.89	2.40884e-06
3638.57	2.92052e-06
3647.24	2.6743e-06
3655.92	2.53854e-06
3664.6	3.3348e-06
3673.28	3.11226e-06
3681.96	3.03059e-06
3690.64	2.9055e-06
3699.31	3.36079e-06
3707.99	3.26675e-06
3716.67	3.80877e-06
3725.35	4.05468e-06
3734.03	3.55269e-06
3742.7	3.40591e-06
3751.38	2.697e-06
3760.06	2.88278e-06
3768.74	3.33436e-06
3777.42	2.98146e-06
3786.1	3.358e-06
3794.77	3.32424e-06
3803.45	3.05959e-06
3812.13	3.08886e-06
3820.81	2.84816e-06
3829.49	3.26095e-06
3838.16	1.88667e-06
3846.84	3.07979e-06
3855.52	2.8793e-06
3864.2	3.33075e-06
3872.88	3.48561e-06
3881.56	3.26714e-06
3890.23	3.30543e-06
3898.91	2.90034e-06
3907.59	3.23034e-06
3916.27	3.06773e-06
3924.95	3.0003e-06
3933.62	3.45767e-06
3942.3	3.89037e-06
3950.98	3.88432e-06
3959.66	3.38489e-06
3968.34	3.33293e-06
