Infrared Spectrum: Trichloroethene
Formula: C2 H Cl3
CAS: 79-01-6
State: gas
Melting point: -73 C
Boiling point: 87 C
Class: IUPAC A
Instrument: IFS66V (Bruker)
Instrument parameters: KBr Beam Splitter; MCT Detector; Multipass cell
Sampling: 1 L/min Flow
Resolution: 0.2410
Temperature: 23 C
Pressure: 101.3 Pa
Origin: NIST, Analytical Chemistry Division, 301-975-3108
cm-1	(micromol/mol)-1m-1 (base 10)
575.05	7.58298e-07
583.608	3.40392e-06
592.165	-3.03127e-06
600.723	-1.42136e-06
609.281	3.18e-06
617.838	2.32987e-05
626.396	7.73801e-05
634.954	7.2096e-05
643.511	2.6278e-05
652.069	4.69323e-06
660.626	2.16303e-06
669.184	1.13972e-06
677.742	-3.7995e-07
686.299	1.16497e-06
694.857	7.72118e-07
703.415	-1.16536e-06
711.972	-8.93686e-07
720.53	-2.80054e-07
729.088	1.14506e-06
737.645	1.8073e-06
746.203	1.0847e-06
754.761	2.48352e-06
763.318	1.95296e-05
771.876	8.1719e-05
780.434	9.62046e-05
788.991	0.000107429
797.549	6.31324e-05
806.106	1.96e-05
814.664	5.64115e-06
823.222	1.06783e-05
831.779	8.96792e-05
840.337	0.000564268
848.895	0.000856413
857.452	0.000322121
866.01	4.48162e-06
874.568	4.03598e-06
883.125	2.99439e-06
891.683	5.50644e-06
900.241	1.95419e-05
908.798	1.94324e-05
917.356	4.24312e-05
925.914	0.000183832
934.471	0.00058799
943.029	0.000622228
951.586	0.000200382
960.144	2.49755e-05
968.702	7.12398e-06
977.259	1.22509e-05
985.817	1.02929e-05
994.375	7.97015e-06
1002.93	5.14657e-06
1011.49	8.17857e-06
1020.05	7.91483e-06
1028.61	4.26263e-06
1037.16	2.75682e-06
1045.72	1.42582e-06
1054.28	1.10293e-06
1062.84	9.65136e-07
1071.39	7.01097e-07
1079.95	1.04564e-06
1088.51	1.36677e-06
1097.07	1.48381e-06
1105.62	2.28969e-06
1114.18	4.24279e-06
1122.74	6.14626e-07
1131.3	1.81521e-06
1139.85	8.38116e-07
1148.41	1.25631e-08
1156.97	5.50647e-07
1165.53	2.57202e-07
1174.09	-1.11522e-07
1182.64	9.27168e-07
1191.2	4.81381e-07
1199.76	1.04019e-06
1208.32	2.69367e-06
1216.87	3.93863e-06
1225.43	1.0768e-05
1233.99	1.315e-05
1242.55	3.85808e-05
1251.1	5.51603e-05
1259.66	4.53362e-05
1268.22	1.81517e-05
1276.78	4.94713e-06
1285.33	1.30184e-06
1293.89	1.21559e-06
1302.45	1.14399e-06
1311.01	1.19689e-06
1319.57	1.91885e-06
1328.12	2.35957e-06
1336.68	6.78804e-07
1345.24	2.37816e-07
1353.8	1.0662e-07
1362.35	-3.67312e-07
1370.91	1.04486e-06
1379.47	1.29856e-06
1388.03	1.26634e-06
1396.58	1.07829e-06
1405.14	9.19619e-07
1413.7	1.3782e-06
1422.26	1.35061e-06
1430.81	1.09574e-06
1439.37	1.15373e-06
1447.93	-4.6701e-07
1456.49	-1.15303e-06
1465.05	2.44922e-07
1473.6	-2.74272e-07
1482.16	7.30476e-07
1490.72	-6.6884e-07
1499.28	1.52198e-07
1507.83	1.57695e-07
1516.39	3.47323e-07
1524.95	-1.73881e-07
1533.51	1.12549e-06
1542.06	4.41445e-06
1550.62	2.99788e-05
1559.18	3.16832e-05
1567.74	4.17336e-05
1576.29	1.88501e-05
1584.85	4.51616e-05
1593.41	4.25857e-05
1601.97	1.81439e-05
1610.53	2.9248e-06
1619.08	1.00969e-06
1627.64	-5.56383e-08
1636.2	-2.24683e-07
1644.76	4.27236e-07
1653.31	-4.75047e-06
1661.87	5.59748e-07
1670.43	-1.84013e-07
1678.99	1.82043e-07
1687.54	5.16097e-07
1696.1	-1.11815e-06
1704.66	1.00822e-08
1713.22	-1.43942e-07
1721.77	4.58905e-07
1730.33	6.29132e-07
1738.89	4.75557e-07
1747.45	1.03013e-06
1756.01	2.67523e-06
1764.56	2.54917e-06
1773.12	2.57817e-06
1781.68	2.15403e-06
1790.24	2.75974e-06
1798.79	8.46505e-07
1807.35	5.33714e-07
1815.91	9.92728e-07
1824.47	5.56862e-07
1833.02	8.30613e-07
1841.58	4.50856e-07
1850.14	2.09208e-07
1858.7	1.2666e-06
1867.25	1.40384e-06
1875.81	1.203e-06
1884.37	7.2874e-07
1892.93	4.9101e-07
1901.49	2.22613e-07
1910.04	1.21071e-07
1918.6	4.44632e-07
1927.16	5.8034e-07
1935.72	1.98764e-07
1944.27	4.13261e-07
1952.83	3.86176e-07
1961.39	7.75377e-07
1969.95	7.02861e-07
1978.5	1.25941e-06
1987.06	7.30978e-07
1995.62	9.62911e-07
2004.18	9.9677e-07
2012.73	3.35181e-07
2021.29	8.03654e-07
2029.85	6.38579e-07
2038.41	2.18172e-07
2046.97	9.04086e-07
2055.52	9.3932e-07
2064.08	5.82303e-07
2072.64	1.13167e-06
2081.2	1.47017e-06
2089.75	6.82006e-07
2098.31	1.36624e-06
2106.87	1.44335e-06
2115.43	7.55293e-07
2123.98	6.60146e-07
2132.54	9.53516e-07
2141.1	2.4301e-07
2149.66	6.29194e-07
2158.21	3.60124e-08
2166.77	1.12271e-06
2175.33	1.54577e-06
2183.89	1.23368e-06
2192.45	8.77868e-07
2201	9.28328e-07
2209.56	1.41715e-06
2218.12	1.53636e-06
2226.68	1.7588e-06
2235.23	1.13584e-06
2243.79	1.20297e-06
2252.35	1.30305e-06
2260.91	7.14444e-07
2269.46	9.0768e-07
2278.02	1.51052e-06
2286.58	8.61606e-07
2295.14	1.32831e-06
2303.69	1.08052e-06
2312.25	1.08101e-06
2320.81	1.13492e-06
2329.37	9.76358e-07
2337.93	4.71681e-07
2346.48	7.26316e-07
2355.04	1.49991e-06
2363.6	8.80077e-07
2372.16	1.17202e-06
2380.71	8.25337e-07
2389.27	7.70901e-07
2397.83	1.50688e-06
2406.39	9.93807e-07
2414.94	1.53026e-06
2423.5	1.65996e-06
2432.06	1.42521e-06
2440.62	1.21463e-06
2449.17	6.07993e-07
2457.73	1.5616e-06
2466.29	1.59747e-06
2474.85	1.94569e-06
2483.41	1.79491e-06
2491.96	2.08841e-06
2500.52	1.76009e-06
2509.08	1.43974e-06
2517.64	2.50821e-06
2526.19	1.65216e-06
2534.75	1.73658e-06
2543.31	1.23248e-06
2551.87	8.96792e-07
2560.42	1.26396e-06
2568.98	1.26335e-06
2577.54	1.3771e-06
2586.1	1.45837e-06
2594.65	9.69978e-07
2603.21	1.47791e-06
2611.77	1.77391e-06
2620.33	1.14406e-06
2628.89	1.89895e-06
2637.44	1.3003e-06
2646	1.58267e-06
2654.56	5.07484e-07
2663.12	6.86742e-07
2671.67	1.15876e-06
2680.23	1.81379e-06
2688.79	1.19547e-06
2697.35	1.09585e-06
2705.9	1.39254e-06
2714.46	7.25545e-07
2723.02	9.42889e-07
2731.58	9.95206e-07
2740.13	1.47374e-06
2748.69	1.09335e-06
2757.25	1.10007e-06
2765.81	1.0626e-06
2774.37	1.6965e-06
2782.92	9.24059e-07
2791.48	1.61078e-06
2800.04	1.73779e-06
2808.6	2.27104e-06
2817.15	2.08106e-06
2825.71	3.45193e-06
2834.27	3.52247e-06
2842.83	2.41066e-06
2851.38	1.9611e-06
2859.94	1.61507e-06
2868.5	2.1339e-06
2877.06	2.28369e-06
2885.61	2.60039e-06
2894.17	1.47042e-06
2902.73	1.8229e-06
2911.29	2.44477e-06
2919.85	1.98901e-06
2928.4	2.98624e-06
2936.96	1.4128e-06
2945.52	1.8593e-06
2954.08	2.36749e-06
2962.63	4.11677e-06
2971.19	3.4933e-06
2979.75	3.56575e-06
2988.31	3.93697e-06
2996.86	3.11527e-06
3005.42	2.59171e-06
3013.98	2.83813e-06
3022.54	2.8512e-06
3031.09	1.7922e-06
3039.65	2.47683e-06
3048.21	2.77778e-06
3056.77	1.89044e-06
3065.33	2.90711e-06
3073.88	5.25464e-06
3082.44	1.63394e-05
3091	6.90756e-05
3099.56	7.55675e-05
3108.11	1.48576e-05
3116.67	4.15733e-06
3125.23	2.50223e-06
3133.79	4.66465e-06
3142.34	4.54713e-06
3150.9	5.05328e-06
3159.46	7.82176e-06
3168.02	1.22109e-05
3176.57	9.55541e-06
3185.13	2.54997e-06
3193.69	2.01468e-06
3202.25	2.7163e-06
3210.81	3.06309e-06
3219.36	1.83842e-06
3227.92	2.24785e-06
3236.48	2.39463e-06
3245.04	3.58002e-06
3253.59	2.78987e-06
3262.15	3.97794e-06
3270.71	3.49401e-06
3279.27	2.62044e-06
3287.82	2.17739e-06
3296.38	2.35175e-06
3304.94	1.10033e-06
3313.5	2.3681e-06
3322.05	2.24424e-06
3330.61	1.85234e-06
3339.17	1.79998e-06
3347.73	3.01089e-06
3356.29	4.11254e-06
3364.84	3.25248e-06
3373.4	1.72756e-06
3381.96	1.93724e-06
3390.52	1.98501e-06
3399.07	2.41541e-06
3407.63	1.93984e-06
3416.19	2.4324e-06
3424.75	2.58492e-06
3433.3	2.70372e-06
3441.86	2.10464e-06
3450.42	2.16881e-06
3458.98	1.81207e-06
3467.53	2.65991e-06
3476.09	2.28084e-06
3484.65	3.65231e-06
3493.21	2.25679e-06
3501.77	2.2894e-06
3510.32	3.28001e-06
3518.88	2.2137e-06
3527.44	2.18956e-06
3536	2.88949e-06
3544.55	3.66435e-06
3553.11	3.24296e-06
3561.67	2.54543e-06
3570.23	2.24108e-06
3578.78	2.5376e-06
3587.34	1.87475e-06
3595.9	3.17026e-06
3604.46	3.49373e-06
3613.01	2.55341e-06
3621.57	3.63544e-06
3630.13	4.01644e-06
3638.69	2.53534e-06
3647.25	2.82843e-06
3655.8	2.90223e-06
3664.36	3.84129e-06
3672.92	2.92379e-06
3681.48	3.72008e-06
3690.03	2.73192e-06
3698.59	4.42952e-06
3707.15	3.21427e-06
3715.71	3.70944e-06
3724.26	3.41364e-06
3732.82	3.29223e-06
3741.38	2.93376e-06
3749.94	2.96557e-06
3758.49	3.58392e-06
3767.05	3.56278e-06
3775.61	2.81004e-06
3784.17	2.87628e-06
3792.73	3.31146e-06
3801.28	1.34392e-06
3809.84	3.36412e-06
3818.4	2.48016e-06
3826.96	3.13523e-06
3835.51	2.61747e-06
3844.07	3.49946e-06
3852.63	3.62319e-06
3861.19	4.5254e-06
3869.74	2.48666e-06
3878.3	3.86791e-06
3886.86	3.11978e-06
3895.42	2.68759e-06
3903.97	3.75631e-06
3912.53	3.84619e-06
3921.09	2.13371e-06
3929.65	3.98786e-06
3938.21	3.47979e-06
3946.76	3.39713e-06
3955.32	2.97683e-06
3963.88	3.84056e-06
3972.44	2.5754e-06
