Infrared Spectrum: 1,1,2-Trichloroethane
Formula: Cl C H2 C H Cl2
CAS: 79-00-5
State: gas
Melting point: -36.5 C
Boiling point: 113.77 C
Class: IUPAC A
Instrument: IFS66V (Bruker)
Instrument parameters: KBr Beam Splitter; MCT Detector; Multipass cell
Sampling: 1 L/min Flow
Resolution: 0.1250
Temperature: 23 C
Pressure: 101.3 Pa
Origin: NIST, Analytical Chemistry Division, 301-975-3108
cm-1	(micromol/mol)-1m-1 (base 10)
575.05	-3.36879e-07
583.608	-8.45235e-07
592.165	2.68148e-06
600.723	-6.29348e-07
609.281	-5.72089e-07
617.838	-1.20064e-06
626.396	-4.05312e-07
634.954	1.74826e-06
643.511	3.29189e-06
652.069	1.19985e-05
660.626	4.90495e-05
669.184	0.000150629
677.742	0.00016026
686.299	8.32446e-05
694.857	1.91559e-05
703.415	1.36e-05
711.972	2.73583e-05
720.53	5.366e-05
729.088	0.000256778
737.645	0.000797315
746.203	0.000833615
754.761	0.000148746
763.318	2.62768e-05
771.876	3.70286e-05
780.434	7.58476e-05
788.991	0.000102964
797.549	9.89598e-05
806.106	1.9729e-05
814.664	2.32957e-06
823.222	1.48725e-06
831.779	1.45146e-06
840.337	2.63072e-06
848.895	2.72385e-06
857.452	1.05279e-06
866.01	3.09329e-07
874.568	6.09737e-07
883.125	7.09609e-07
891.683	3.28816e-06
900.241	5.21279e-06
908.798	8.24636e-06
917.356	2.42662e-05
925.914	7.81241e-05
934.471	0.000138946
943.029	0.000150669
951.586	4.86201e-05
960.144	1.04357e-05
968.702	5.39424e-06
977.259	3.82346e-06
985.817	1.63551e-06
994.375	2.22034e-06
1002.93	2.72787e-06
1011.49	2.40474e-06
1020.05	1.78846e-06
1028.61	2.9256e-06
1037.16	8.30723e-06
1045.72	1.60299e-05
1054.28	1.68485e-05
1062.84	1.23454e-05
1071.39	7.06387e-06
1079.95	1.97293e-06
1088.51	1.05901e-06
1097.07	2.12115e-07
1105.62	-1.92024e-07
1114.18	4.81848e-07
1122.74	2.05637e-07
1131.3	8.08468e-07
1139.85	1.74245e-06
1148.41	7.44011e-06
1156.97	1.84682e-05
1165.53	2.04264e-05
1174.09	6.9357e-06
1182.64	3.24748e-06
1191.2	9.387e-06
1199.76	6.03923e-05
1208.32	8.68071e-05
1216.87	0.000101854
1225.43	1.36839e-05
1233.99	9.56811e-06
1242.55	1.53596e-05
1251.1	2.81751e-05
1259.66	9.58179e-05
1268.22	9.20523e-05
1276.78	3.40496e-05
1285.33	6.05686e-06
1293.89	8.02243e-06
1302.45	3.18577e-05
1311.01	3.46757e-05
1319.57	1.73677e-05
1328.12	5.04387e-06
1336.68	4.04124e-06
1345.24	4.21395e-06
1353.8	3.61719e-06
1362.35	1.60827e-06
1370.91	8.27307e-07
1379.47	7.11263e-07
1388.03	2.85065e-07
1396.58	8.68478e-07
1405.14	2.67075e-07
1413.7	2.2095e-06
1422.26	1.10525e-05
1430.81	4.29055e-05
1439.37	3.44371e-05
1447.93	2.84577e-05
1456.49	3.49046e-06
1465.05	4.79465e-07
1473.6	-3.27446e-07
1482.16	9.43068e-07
1490.72	7.31248e-08
1499.28	1.26452e-07
1507.83	-3.36176e-07
1516.39	-2.66664e-07
1524.95	3.86297e-08
1533.51	-3.5692e-08
1542.06	-1.83675e-06
1550.62	3.7893e-08
1559.18	6.98561e-08
1567.74	-1.07809e-07
1576.29	-2.85428e-06
1584.85	-8.8638e-08
1593.41	6.54715e-08
1601.97	1.51044e-07
1610.53	2.22296e-07
1619.08	-1.29012e-07
1627.64	-3.82353e-07
1636.2	-8.38231e-08
1644.76	1.40828e-07
1653.31	-4.66883e-06
1661.87	-3.43494e-07
1670.43	-1.13807e-07
1678.99	-2.66254e-07
1687.54	5.23066e-08
1696.1	-1.94184e-06
1704.66	-2.78092e-07
1713.22	-3.41927e-07
1721.77	-9.49398e-08
1730.33	-1.54599e-07
1738.89	-3.93774e-07
1747.45	-3.57926e-07
1756.01	-6.7971e-07
1764.56	-1.80888e-07
1773.12	-2.00633e-09
1781.68	-4.46832e-08
1790.24	1.3194e-07
1798.79	8.26472e-08
1807.35	2.86046e-07
1815.91	1.72084e-07
1824.47	3.91062e-07
1833.02	2.25704e-07
1841.58	-5.29369e-08
1850.14	-2.68979e-07
1858.7	-4.38008e-07
1867.25	-4.23543e-07
1875.81	-2.2063e-07
1884.37	-2.87666e-07
1892.93	-2.15249e-07
1901.49	-4.67619e-07
1910.04	-3.13142e-07
1918.6	-4.14451e-07
1927.16	-1.77868e-07
1935.72	-7.71529e-08
1944.27	-3.33402e-07
1952.83	-5.17682e-09
1961.39	-3.76686e-07
1969.95	-3.06603e-07
1978.5	4.08241e-07
1987.06	1.14285e-07
1995.62	3.08942e-07
2004.18	2.10317e-07
2012.73	2.38879e-07
2021.29	4.70743e-08
2029.85	-3.06984e-07
2038.41	-7.69974e-08
2046.97	5.24781e-07
2055.52	-4.08507e-08
2064.08	6.15397e-08
2072.64	1.8117e-09
2081.2	-3.99448e-08
2089.75	5.39117e-07
2098.31	1.06563e-06
2106.87	7.09349e-07
2115.43	-3.09922e-07
2123.98	-5.52917e-07
2132.54	-3.4322e-07
2141.1	-4.09274e-07
2149.66	1.33679e-07
2158.21	-1.5647e-06
2166.77	1.01176e-07
2175.33	-1.54105e-07
2183.89	-1.97378e-08
2192.45	-1.7227e-07
2201	2.58296e-07
2209.56	-2.26989e-07
2218.12	2.67145e-07
2226.68	-3.01537e-07
2235.23	2.16129e-07
2243.79	2.93733e-07
2252.35	5.81273e-08
2260.91	-1.30898e-07
2269.46	7.51193e-08
2278.02	4.13795e-07
2286.58	-1.69491e-07
2295.14	-2.06126e-07
2303.69	-2.57746e-07
2312.25	-3.2565e-07
2320.81	-9.57586e-07
2329.37	-6.05858e-07
2337.93	-1.05282e-06
2346.48	2.68769e-07
2355.04	1.26961e-06
2363.6	1.79882e-06
2372.16	1.58391e-06
2380.71	2.0539e-07
2389.27	4.5548e-07
2397.83	7.40771e-07
2406.39	2.35535e-06
2414.94	6.18993e-07
2423.5	3.85205e-07
2432.06	3.20816e-07
2440.62	9.74818e-07
2449.17	9.78278e-07
2457.73	2.37184e-06
2466.29	2.5333e-06
2474.85	1.23607e-06
2483.41	1.01068e-06
2491.96	5.85509e-07
2500.52	2.5571e-07
2509.08	1.02903e-06
2517.64	1.1988e-06
2526.19	8.40904e-07
2534.75	2.78638e-07
2543.31	-4.033e-07
2551.87	1.04385e-07
2560.42	3.58039e-08
2568.98	5.41954e-07
2577.54	3.59548e-07
2586.1	3.95977e-07
2594.65	4.92101e-07
2603.21	5.82235e-07
2611.77	-1.61309e-07
2620.33	-1.03329e-07
2628.89	-3.5636e-07
2637.44	-2.49628e-07
2646	-3.48571e-08
2654.56	-1.92002e-08
2663.12	2.64343e-08
2671.67	3.09572e-08
2680.23	-2.64716e-08
2688.79	3.76265e-07
2697.35	7.53872e-07
2705.9	9.48272e-07
2714.46	-9.84086e-08
2723.02	3.61088e-07
2731.58	5.31842e-08
2740.13	7.75262e-07
2748.69	6.67344e-07
2757.25	-3.82089e-07
2765.81	-1.05307e-07
2774.37	7.9343e-08
2782.92	1.57654e-07
2791.48	-7.11831e-08
2800.04	-4.73153e-08
2808.6	5.33141e-07
2817.15	3.51018e-08
2825.71	-3.58397e-07
2834.27	4.16184e-07
2842.83	1.4833e-06
2851.38	5.33555e-06
2859.94	4.22288e-06
2868.5	2.83762e-06
2877.06	1.7609e-06
2885.61	1.14929e-06
2894.17	9.07666e-07
2902.73	1.15806e-06
2911.29	1.28739e-06
2919.85	1.17266e-06
2928.4	1.96193e-06
2936.96	2.66148e-06
2945.52	2.19637e-06
2954.08	4.60313e-06
2962.63	1.74412e-05
2971.19	4.24881e-05
2979.75	4.88269e-05
2988.31	1.05373e-05
2996.86	7.25357e-06
3005.42	6.50322e-06
3013.98	9.19383e-06
3022.54	5.51371e-06
3031.09	5.18659e-06
3039.65	1.25651e-06
3048.21	7.1348e-07
3056.77	2.30198e-07
3065.33	3.95816e-07
3073.88	-1.4065e-07
3082.44	2.32588e-07
3091	3.03635e-07
3099.56	-4.5258e-07
3108.11	-5.7142e-07
3116.67	6.26898e-07
3125.23	-1.31576e-08
3133.79	-9.87324e-08
3142.34	5.73964e-07
3150.9	5.59582e-07
3159.46	4.10356e-07
3168.02	-4.29263e-07
3176.57	-7.86718e-08
3185.13	2.80678e-08
3193.69	1.73869e-07
3202.25	1.38877e-07
3210.81	1.03669e-07
3219.36	-6.96242e-08
3227.92	5.48236e-07
3236.48	-3.99029e-07
3245.04	6.12434e-07
3253.59	2.84163e-07
3262.15	-2.80761e-07
3270.71	-2.07973e-08
3279.27	4.72626e-08
3287.82	-5.84257e-07
3296.38	6.26907e-07
3304.94	-8.99467e-08
3313.5	-5.05736e-07
3322.05	-9.77247e-08
3330.61	-4.27357e-07
3339.17	2.06745e-07
3347.73	2.65111e-07
3356.29	4.19455e-07
3364.84	-3.25175e-07
3373.4	-5.26486e-07
3381.96	1.14087e-06
3390.52	1.73217e-07
3399.07	3.13212e-07
3407.63	3.98667e-07
3416.19	-6.80381e-07
3424.75	-5.89018e-07
3433.3	4.09436e-07
3441.86	-3.96436e-07
3450.42	1.34559e-08
3458.98	-5.81585e-07
3467.53	2.67064e-07
3476.09	6.30369e-07
3484.65	-4.13725e-07
3493.21	-8.98252e-07
3501.77	-4.13429e-07
3510.32	1.27202e-07
3518.88	6.13476e-07
3527.44	-7.57458e-07
3536	3.08554e-08
3544.55	4.19805e-07
3553.11	-8.89627e-08
3561.67	-2.26596e-07
3570.23	-3.82403e-07
3578.78	5.55016e-08
3587.34	-2.05586e-07
3595.9	3.61145e-07
3604.46	-1.24579e-07
3613.01	3.6801e-07
3621.57	-2.7266e-07
3630.13	3.54712e-07
3638.69	4.7725e-07
3647.25	-4.86681e-07
3655.8	1.13701e-07
3664.36	2.75575e-07
3672.92	-2.76267e-07
3681.48	-2.50724e-07
3690.03	3.10684e-07
3698.59	5.92656e-07
3707.15	5.61537e-08
3715.71	-3.88328e-07
3724.26	3.53761e-07
3732.82	-3.63727e-07
3741.38	4.71686e-07
3749.94	3.75256e-07
3758.49	9.5531e-07
3767.05	4.11246e-07
3775.61	5.63241e-07
3784.17	1.19721e-07
3792.73	5.56936e-07
3801.28	-1.41959e-06
3809.84	1.04295e-06
3818.4	9.85121e-07
3826.96	5.38478e-07
3835.51	3.36324e-07
3844.07	-5.06724e-07
3852.63	-4.10269e-07
3861.19	-4.47486e-07
3869.74	-4.71175e-07
3878.3	-4.47984e-07
3886.86	-2.42204e-07
3895.42	4.39775e-07
3903.97	1.62183e-07
3912.53	-7.1513e-07
3921.09	-3.34652e-07
3929.65	-3.93203e-07
3938.21	3.21795e-07
3946.76	1.90083e-07
3955.32	5.1244e-07
3963.88	2.65849e-07
3972.44	1.45949e-07
