Infrared Spectrum: 1,1,2-Trichloroethane
Formula: Cl C H2 C H Cl2
CAS: 79-00-5
State: gas
Melting point: -36.5 C
Boiling point: 113.77 C
Class: IUPAC A
Instrument: IFS66V (Bruker)
Instrument parameters: KBr Beam Splitter; MCT Detector; Multipass cell
Sampling: 1 L/min Flow
Resolution: 0.4820
Temperature: 23 C
Pressure: 101.3 Pa
Origin: NIST, Analytical Chemistry Division, 301-975-3108
cm-1	(micromol/mol)-1m-1 (base 10)
575.17	1.12722e-06
583.848	-7.552e-07
592.526	-1.4694e-06
601.205	-1.83369e-06
609.883	4.7111e-07
618.561	-2.45531e-07
627.239	-5.99625e-07
635.917	5.89435e-07
644.595	5.87716e-06
653.274	1.41518e-05
661.952	5.96993e-05
670.63	0.000161338
679.308	0.000192825
687.986	6.4748e-05
696.665	1.37338e-05
705.343	1.73967e-05
714.021	2.83588e-05
722.699	7.5315e-05
731.377	0.000395824
740.055	0.000843083
748.734	0.000716591
757.412	5.18543e-05
766.09	2.6909e-05
774.768	4.33142e-05
783.446	9.11827e-05
792.124	7.33836e-05
800.803	5.69607e-05
809.481	8.01856e-06
818.159	1.51595e-06
826.837	2.3375e-06
835.515	2.23481e-06
844.194	2.57314e-06
852.872	1.91308e-06
861.55	8.77012e-07
870.228	8.61318e-07
878.906	1.49064e-06
887.584	2.77205e-06
896.263	4.33692e-06
904.941	6.96545e-06
913.619	1.50781e-05
922.297	4.8122e-05
930.975	0.000139448
939.654	0.000154953
948.332	7.4978e-05
957.01	1.8523e-05
965.688	5.48415e-06
974.366	3.90809e-06
983.044	1.73139e-06
991.723	2.41007e-06
1000.4	2.7616e-06
1009.08	2.20074e-06
1017.76	1.45271e-06
1026.44	2.79245e-06
1035.11	6.96007e-06
1043.79	1.39431e-05
1052.47	1.77641e-05
1061.15	1.4509e-05
1069.83	8.20832e-06
1078.5	3.07222e-06
1087.18	5.91847e-07
1095.86	6.84475e-07
1104.54	3.95822e-07
1113.22	3.56325e-07
1121.9	6.49051e-07
1130.57	7.03416e-07
1139.25	1.49001e-06
1147.93	7.24905e-06
1156.61	1.8682e-05
1165.29	2.01273e-05
1173.96	7.02454e-06
1182.64	3.27893e-06
1191.32	9.42032e-06
1200	6.42293e-05
1208.68	0.000117928
1217.36	9.10294e-05
1226.03	1.28094e-05
1234.71	1.01313e-05
1243.39	1.47014e-05
1252.07	3.38668e-05
1260.75	9.73934e-05
1269.42	8.7623e-05
1278.1	2.62651e-05
1286.78	4.61657e-06
1295.46	1.1021e-05
1304.14	3.46778e-05
1312.82	3.63251e-05
1321.49	1.11107e-05
1330.17	5.1154e-06
1338.85	4.4311e-06
1347.53	4.3617e-06
1356.21	3.53324e-06
1364.88	1.27692e-06
1373.56	5.34283e-07
1382.24	6.57445e-07
1390.92	3.92604e-07
1399.6	5.14539e-07
1408.28	1.44085e-06
1416.95	3.64142e-06
1425.63	1.89657e-05
1434.31	4.61737e-05
1442.99	4.94229e-05
1451.67	1.56972e-05
1460.34	1.97847e-06
1469.02	1.27861e-06
1477.7	1.08039e-06
1486.38	8.92237e-07
1495.06	3.32192e-07
1503.74	-1.42844e-08
1512.41	-4.13758e-07
1521.09	-1.336e-06
1529.77	-1.49247e-09
1538.45	-3.01974e-07
1547.13	8.58549e-08
1555.8	8.25189e-08
1564.48	1.07039e-07
1573.16	-2.48028e-07
1581.84	-4.85177e-08
1590.52	-2.55147e-07
1599.2	-1.04493e-07
1607.87	2.55459e-07
1616.55	-1.61195e-06
1625.23	3.65615e-08
1633.91	-4.14338e-07
1642.59	-2.74313e-07
1651.26	-1.90071e-07
1659.94	-2.06979e-07
1668.62	-2.8736e-07
1677.3	-2.04676e-07
1685.98	-1.62702e-07
1694.66	-1.49175e-07
1703.33	-3.38967e-08
1712.01	-3.91044e-08
1720.69	-4.54172e-08
1729.37	2.00088e-10
1738.05	-6.82754e-08
1746.72	-3.42068e-07
1755.4	-5.56914e-07
1764.08	-1.4506e-07
1772.76	-1.62565e-06
1781.44	6.64528e-08
1790.12	1.93685e-08
1798.79	1.681e-07
1807.47	1.25601e-07
1816.15	1.19708e-07
1824.83	2.80895e-07
1833.51	2.16206e-07
1842.18	-2.27499e-07
1850.86	-3.31845e-07
1859.54	-3.30359e-07
1868.22	-4.27741e-07
1876.9	-2.97144e-07
1885.58	-3.4521e-07
1894.25	-2.37709e-07
1902.93	-3.28322e-07
1911.61	-1.42151e-07
1920.29	-2.09709e-07
1928.97	-1.76161e-07
1937.64	-1.28811e-08
1946.32	-8.0499e-08
1955	-1.55817e-07
1963.68	-4.06781e-07
1972.36	2.87626e-08
1981.04	4.3134e-07
1989.71	4.76783e-07
1998.39	-1.35724e-07
2007.07	3.94628e-09
2015.75	-1.23792e-07
2024.43	-4.22276e-09
2033.1	-2.13854e-07
2041.78	5.86121e-08
2050.46	7.12722e-08
2059.14	1.59757e-07
2067.82	-1.69705e-07
2076.5	1.64097e-07
2085.17	2.41816e-07
2093.85	5.82106e-07
2102.53	6.50455e-07
2111.21	3.38027e-07
2119.89	-6.17427e-07
2128.56	1.02461e-07
2137.24	-1.81934e-08
2145.92	-1.44447e-07
2154.6	-1.08596e-06
2163.28	2.69373e-08
2171.96	-8.16058e-08
2180.63	1.17794e-07
2189.31	1.91954e-07
2197.99	7.1025e-07
2206.67	4.83109e-07
2215.35	-4.59174e-08
2224.02	-2.25755e-07
2232.7	-3.71454e-08
2241.38	-1.46694e-07
2250.06	1.24414e-07
2258.74	2.00587e-07
2267.42	1.08203e-07
2276.09	-8.33666e-08
2284.77	-2.30497e-07
2293.45	-2.98726e-07
2302.13	-4.56218e-08
2310.81	-7.58394e-07
2319.48	-1.03681e-06
2328.16	-6.6236e-07
2336.84	-5.91613e-07
2345.52	-5.35143e-07
2354.2	-1.28528e-06
2362.88	-3.86766e-06
2371.55	-5.58278e-07
2380.23	7.96386e-07
2388.91	5.98725e-07
2397.59	8.97048e-07
2406.27	2.23517e-06
2414.94	8.76807e-07
2423.62	4.37397e-07
2432.3	-7.15478e-08
2440.98	3.02087e-07
2449.66	1.16272e-06
2458.34	2.07186e-06
2467.01	2.10933e-06
2475.69	1.16907e-06
2484.37	8.74989e-07
2493.05	8.67969e-07
2501.73	7.23089e-07
2510.4	1.16265e-06
2519.08	1.15321e-06
2527.76	7.01558e-07
2536.44	-1.7203e-08
2545.12	-3.96894e-07
2553.8	-1.55646e-07
2562.47	5.44465e-07
2571.15	5.7425e-07
2579.83	4.85531e-07
2588.51	3.11694e-07
2597.19	3.53294e-07
2605.86	1.74326e-07
2614.54	1.6094e-07
2623.22	-5.21065e-08
2631.9	-5.28914e-08
2640.58	2.85007e-07
2649.26	2.04326e-07
2657.93	4.43677e-08
2666.61	7.89856e-08
2675.29	-2.32056e-08
2683.97	5.53425e-08
2692.65	7.06855e-07
2701.32	6.16767e-07
2710	2.76618e-07
2718.68	4.61748e-09
2727.36	2.25898e-07
2736.04	6.0748e-07
2744.71	6.54203e-07
2753.39	4.39521e-07
2762.07	-2.80278e-07
2770.75	-2.894e-09
2779.43	2.49624e-07
2788.11	6.2813e-08
2796.78	-8.60314e-08
2805.46	-4.74354e-08
2814.14	-8.70537e-08
2822.82	4.04487e-07
2831.5	3.45984e-07
2840.17	6.06623e-07
2848.85	3.49749e-06
2857.53	7.73606e-06
2866.21	4.43018e-06
2874.89	3.88257e-07
2883.57	1.1461e-06
2892.24	1.05376e-06
2900.92	1.32808e-06
2909.6	1.18438e-06
2918.28	1.64782e-06
2926.96	1.77724e-06
2935.63	2.1216e-06
2944.31	2.0016e-06
2952.99	4.27281e-06
2961.67	1.45009e-05
2970.35	4.58977e-05
2979.03	4.90388e-05
2987.7	1.21024e-05
2996.38	6.33917e-06
3005.06	6.70304e-06
3013.74	9.56164e-06
3022.42	5.50358e-06
3031.09	5.18725e-06
3039.77	1.29694e-06
3048.45	6.60388e-07
3057.13	1.75609e-07
3065.81	7.85981e-09
3074.49	6.54824e-07
3083.16	4.6719e-07
3091.84	9.26197e-08
3100.52	1.32546e-07
3109.2	3.50605e-07
3117.88	4.90997e-08
3126.55	-2.80814e-08
3135.23	2.00901e-07
3143.91	7.19352e-08
3152.59	2.20935e-07
3161.27	1.64108e-07
3169.95	1.32032e-07
3178.62	1.95425e-07
3187.3	2.76241e-07
3195.98	-1.54832e-07
3204.66	-1.51956e-07
3213.34	1.14441e-07
3222.01	-2.1987e-07
3230.69	-3.14849e-07
3239.37	-1.52747e-07
3248.05	-3.08917e-08
3256.73	2.04812e-07
3265.41	7.89692e-08
3274.08	-3.15133e-07
3282.76	3.26221e-07
3291.44	-7.6961e-08
3300.12	3.67984e-07
3308.8	-2.31617e-07
3317.47	2.19039e-07
3326.15	2.14813e-07
3334.83	-1.78839e-07
3343.51	-3.44633e-08
3352.19	3.41124e-07
3360.87	2.26733e-07
3369.54	1.84201e-07
3378.22	-8.98576e-08
3386.9	1.80112e-07
3395.58	3.98502e-07
3404.26	5.59471e-07
3412.93	3.05779e-07
3421.61	-4.60611e-08
3430.29	2.13427e-07
3438.97	-1.62823e-07
3447.65	9.73627e-08
3456.33	-1.6383e-07
3465	-4.88151e-08
3473.68	-3.49442e-07
3482.36	-1.28885e-07
3491.04	-1.40793e-07
3499.72	-4.67889e-07
3508.39	1.02636e-07
3517.07	1.56753e-07
3525.75	-4.79368e-07
3534.43	9.93718e-08
3543.11	-4.33358e-07
3551.79	-2.74497e-07
3560.46	-3.05789e-08
3569.14	-2.3636e-07
3577.82	-1.88701e-07
3586.5	-5.13007e-07
3595.18	-3.38451e-07
3603.85	-2.72901e-07
3612.53	-5.92687e-07
3621.21	-5.93932e-07
3629.89	-5.54954e-07
3638.57	1.60546e-07
3647.25	-3.3168e-07
3655.92	8.1091e-08
3664.6	2.48871e-07
3673.28	-3.0829e-08
3681.96	2.59437e-07
3690.64	1.43819e-07
3699.31	1.42815e-07
3707.99	1.04066e-07
3716.67	2.17109e-07
3725.35	-1.04313e-07
3734.03	-9.53973e-08
3742.71	2.52488e-07
3751.38	3.41698e-07
3760.06	5.23929e-07
3768.74	7.71137e-07
3777.42	3.09174e-07
3786.1	2.95994e-07
3794.77	1.6146e-07
3803.45	1.82135e-07
3812.13	4.75862e-07
3820.81	-5.37205e-07
3829.49	-2.2368e-07
3838.17	-1.03857e-06
3846.84	-5.39334e-07
3855.52	-2.50346e-08
3864.2	-4.18635e-07
3872.88	-3.56517e-07
3881.56	-1.97616e-07
3890.23	-3.12583e-08
3898.91	1.62134e-07
3907.59	3.63703e-07
3916.27	-2.68615e-07
3924.95	-4.49558e-07
3933.63	1.6457e-07
3942.3	7.33122e-08
3950.98	4.24929e-07
3959.66	1.16234e-06
3968.34	-9.06552e-08
