Infrared Spectrum: Trichloroethene
Formula: C2 H Cl3
CAS: 79-01-6
State: gas
Melting point: -73 C
Boiling point: 87 C
Class: IUPAC A
Instrument: IFS66V (Bruker)
Instrument parameters: KBr Beam Splitter; MCT Detector; Multipass cell
Sampling: 1 L/min Flow
Resolution: 0.4820
Temperature: 23 C
Pressure: 101.3 Pa
Origin: NIST, Analytical Chemistry Division, 301-975-3108
cm-1	(micromol/mol)-1m-1 (base 10)
575.17	-4.88025e-07
583.848	-1.95279e-07
592.526	1.18783e-07
601.205	1.28596e-06
609.883	6.72057e-06
618.561	2.63101e-05
627.239	7.84e-05
635.917	8.2725e-05
644.595	2.35357e-05
653.274	3.67126e-06
661.952	1.41012e-06
670.63	1.01561e-06
679.308	9.07364e-07
687.986	5.66544e-07
696.664	2.17599e-07
705.343	3.80287e-07
714.021	5.33722e-07
722.699	3.40183e-07
731.377	1.10507e-06
740.055	1.84244e-06
748.734	2.02369e-06
757.412	4.55901e-06
766.09	3.67047e-05
774.768	9.42225e-05
783.446	0.00025806
792.124	9.84773e-05
800.803	4.01589e-05
809.481	1.54323e-05
818.159	5.93341e-06
826.837	2.40611e-05
835.515	0.000240898
844.193	0.000717515
852.872	0.000707493
861.55	1.76815e-05
870.228	4.17654e-06
878.906	2.49415e-06
887.584	3.09882e-06
896.263	9.81874e-06
904.941	2.37757e-05
913.619	3.44919e-05
922.297	9.48283e-05
930.975	0.000429153
939.653	0.000504861
948.332	0.000450067
957.01	6.23967e-05
965.688	6.76296e-06
974.366	7.94711e-06
983.044	1.1829e-05
991.723	1.09508e-05
1000.4	4.51932e-06
1009.08	8.33954e-06
1017.76	8.86774e-06
1026.44	6.7187e-06
1035.11	2.06695e-06
1043.79	1.41538e-06
1052.47	1.13944e-06
1061.15	8.99979e-07
1069.83	8.81684e-07
1078.5	5.85675e-07
1087.18	7.74282e-07
1095.86	9.5081e-07
1104.54	2.15819e-06
1113.22	3.29779e-06
1121.9	2.10335e-06
1130.57	1.4248e-06
1139.25	1.01705e-06
1147.93	5.67533e-07
1156.61	4.98648e-07
1165.29	6.11083e-07
1173.96	5.63046e-07
1182.64	7.48385e-07
1191.32	6.8658e-07
1200	9.62729e-07
1208.68	2.4668e-06
1217.36	4.78548e-06
1226.03	1.07257e-05
1234.71	1.58542e-05
1243.39	4.36623e-05
1252.07	5.18103e-05
1260.75	4.10288e-05
1269.42	1.73085e-05
1278.1	3.92872e-06
1286.78	6.59831e-07
1295.46	4.73243e-07
1304.14	8.51589e-07
1312.82	1.90817e-06
1321.49	2.36676e-06
1330.17	1.53874e-06
1338.85	6.15818e-07
1347.53	4.68734e-07
1356.21	4.99417e-07
1364.88	7.47964e-07
1373.56	2.28403e-07
1382.24	9.9117e-07
1390.92	8.39941e-07
1399.6	9.10914e-07
1408.28	1.21816e-06
1416.95	1.22468e-06
1425.63	1.64763e-06
1434.31	9.87068e-07
1442.99	8.17092e-07
1451.67	5.37987e-07
1460.34	5.97174e-07
1469.02	6.85929e-07
1477.7	8.02246e-07
1486.38	4.18169e-07
1495.06	2.41901e-07
1503.73	6.36437e-07
1512.41	1.49675e-07
1521.09	-1.02287e-06
1529.77	8.37451e-07
1538.45	2.99221e-06
1547.13	1.55576e-05
1555.8	5.68075e-05
1564.48	5.12689e-05
1573.16	2.08823e-05
1581.84	3.52562e-05
1590.52	3.67279e-05
1599.19	3.23541e-05
1607.87	5.43622e-06
1616.55	-1.25258e-06
1625.23	3.98434e-07
1633.91	5.03883e-07
1642.59	3.95898e-07
1651.26	2.41235e-07
1659.94	3.02865e-08
1668.62	1.29484e-07
1677.3	5.35102e-07
1685.98	6.4629e-07
1694.65	6.01899e-07
1703.33	3.21829e-07
1712.01	5.48871e-08
1720.69	4.08892e-07
1729.37	2.18606e-07
1738.05	6.94923e-07
1746.72	1.15098e-06
1755.4	2.38942e-06
1764.08	2.44154e-06
1772.76	5.75769e-07
1781.44	2.25337e-06
1790.11	2.66622e-06
1798.79	9.10885e-07
1807.47	7.6103e-07
1816.15	5.42109e-07
1824.83	4.35719e-07
1833.51	6.6754e-07
1842.18	6.16416e-07
1850.86	7.19297e-07
1859.54	1.47895e-06
1868.22	1.81128e-06
1876.9	1.188e-06
1885.57	7.35738e-07
1894.25	3.14235e-07
1902.93	2.17879e-07
1911.61	5.70294e-07
1920.29	6.21751e-07
1928.97	6.31913e-07
1937.64	6.30982e-07
1946.32	6.81966e-07
1955	7.85614e-07
1963.68	7.6388e-07
1972.36	8.29626e-07
1981.03	7.03872e-07
1989.71	5.79645e-07
1998.39	5.57011e-07
2007.07	6.04801e-07
2015.75	6.60037e-07
2024.43	7.24075e-07
2033.1	7.53645e-07
2041.78	9.5662e-07
2050.46	6.492e-07
2059.14	7.63036e-07
2067.82	9.55528e-07
2076.49	1.16223e-06
2085.17	1.43013e-06
2093.85	1.76593e-06
2102.53	1.40092e-06
2111.21	9.29036e-07
2119.89	4.67366e-07
2128.56	7.35894e-07
2137.24	6.86291e-07
2145.92	9.78459e-07
2154.6	5.40755e-07
2163.28	1.15485e-06
2171.95	9.76382e-07
2180.63	1.10818e-06
2189.31	1.05661e-06
2197.99	1.30363e-06
2206.67	1.01005e-06
2215.35	1.40445e-06
2224.02	1.29946e-06
2232.7	1.26004e-06
2241.38	9.97405e-07
2250.06	1.06449e-06
2258.74	1.1521e-06
2267.41	1.09406e-06
2276.09	1.01817e-06
2284.77	1.17827e-06
2293.45	1.14425e-06
2302.13	1.10562e-06
2310.81	9.92938e-07
2319.48	9.85231e-07
2328.16	9.77992e-07
2336.84	1.07265e-06
2345.52	8.81679e-07
2354.2	7.82078e-07
2362.87	3.85454e-07
2371.55	9.63886e-07
2380.23	1.18773e-06
2388.91	9.19263e-07
2397.59	1.07701e-06
2406.27	1.05144e-06
2414.94	1.27014e-06
2423.62	1.54423e-06
2432.3	1.62967e-06
2440.98	1.30767e-06
2449.66	1.39097e-06
2458.33	1.2598e-06
2467.01	1.68061e-06
2475.69	1.93691e-06
2484.37	2.16305e-06
2493.05	1.87039e-06
2501.73	1.4341e-06
2510.4	1.49147e-06
2519.08	1.59927e-06
2527.76	1.77558e-06
2536.44	1.60569e-06
2545.12	1.48934e-06
2553.79	1.33566e-06
2562.47	1.08092e-06
2571.15	1.36998e-06
2579.83	1.25716e-06
2588.51	9.59e-07
2597.19	1.4163e-06
2605.86	1.50318e-06
2614.54	1.13052e-06
2623.22	1.27635e-06
2631.9	1.19026e-06
2640.58	1.28859e-06
2649.25	1.0347e-06
2657.93	1.05181e-06
2666.61	1.47124e-06
2675.29	1.36283e-06
2683.97	1.28054e-06
2692.65	1.4135e-06
2701.32	1.04864e-06
2710	1.47677e-06
2718.68	1.57189e-06
2727.36	1.4245e-06
2736.04	1.32312e-06
2744.71	1.33677e-06
2753.39	1.67691e-06
2762.07	1.63943e-06
2770.75	1.75191e-06
2779.43	1.22216e-06
2788.11	1.61684e-06
2796.78	1.88544e-06
2805.46	2.17763e-06
2814.14	2.396e-06
2822.82	2.95026e-06
2831.5	2.55532e-06
2840.17	2.43715e-06
2848.85	1.77963e-06
2857.53	1.59817e-06
2866.21	1.63814e-06
2874.89	1.97597e-06
2883.57	1.73454e-06
2892.24	1.93029e-06
2900.92	2.39006e-06
2909.6	1.89503e-06
2918.28	1.91129e-06
2926.96	2.04254e-06
2935.63	2.60889e-06
2944.31	2.78912e-06
2952.99	2.43566e-06
2961.67	1.59815e-06
2970.35	3.04443e-06
2979.03	3.64719e-06
2987.7	3.76318e-06
2996.38	2.90527e-06
3005.06	3.00227e-06
3013.74	2.72761e-06
3022.42	2.59648e-06
3031.09	1.82231e-06
3039.77	2.1776e-06
3048.45	2.33248e-06
3057.13	2.3597e-06
3065.81	2.79474e-06
3074.49	5.73419e-06
3083.16	1.95876e-05
3091.84	6.76937e-05
3100.52	7.90345e-05
3109.2	1.22985e-05
3117.88	4.26548e-06
3126.55	3.63869e-06
3135.23	4.36228e-06
3143.91	4.76679e-06
3152.59	5.01392e-06
3161.27	8.97294e-06
3169.95	1.07981e-05
3178.62	9.20305e-06
3187.3	2.64965e-06
3195.98	1.78813e-06
3204.66	2.87788e-06
3213.34	2.17311e-06
3222.01	2.84933e-06
3230.69	3.00196e-06
3239.37	2.66868e-06
3248.05	2.51802e-06
3256.73	2.89127e-06
3265.4	2.75559e-06
3274.08	3.21196e-06
3282.76	2.29007e-06
3291.44	2.17945e-06
3300.12	2.70572e-06
3308.8	2.48127e-06
3317.47	2.65309e-06
3326.15	2.5236e-06
3334.83	1.87233e-06
3343.51	2.71639e-06
3352.19	1.7492e-06
3360.86	2.78641e-06
3369.54	2.63007e-06
3378.22	1.72283e-06
3386.9	2.57417e-06
3395.58	2.84936e-06
3404.26	2.16319e-06
3412.93	2.20152e-06
3421.61	2.42879e-06
3430.29	2.3015e-06
3438.97	2.82027e-06
3447.65	2.06183e-06
3456.32	2.55237e-06
3465	2.3281e-06
3473.68	2.38501e-06
3482.36	2.70408e-06
3491.04	2.46984e-06
3499.72	2.92223e-06
3508.39	2.48217e-06
3517.07	2.51877e-06
3525.75	2.85231e-06
3534.43	3.08037e-06
3543.11	2.19051e-06
3551.78	2.28569e-06
3560.46	2.23064e-06
3569.14	2.79137e-06
3577.82	2.30689e-06
3586.5	2.43835e-06
3595.18	2.46744e-06
3603.85	2.40003e-06
3612.53	2.50121e-06
3621.21	2.76424e-06
3629.89	2.39447e-06
3638.57	2.7896e-06
3647.24	2.73106e-06
3655.92	2.50175e-06
3664.6	3.37069e-06
3673.28	3.01858e-06
3681.96	3.01669e-06
3690.64	2.96968e-06
3699.31	3.34807e-06
3707.99	3.33704e-06
3716.67	3.9707e-06
3725.35	4.17175e-06
3734.03	3.34056e-06
3742.7	3.59642e-06
3751.38	2.82387e-06
3760.06	2.57347e-06
3768.74	3.42574e-06
3777.42	2.97591e-06
3786.1	3.35289e-06
3794.77	3.4296e-06
3803.45	3.32224e-06
3812.13	3.13605e-06
3820.81	2.47775e-06
3829.49	3.3298e-06
3838.16	2.14748e-06
3846.84	3.0475e-06
3855.52	2.9066e-06
3864.2	3.49198e-06
3872.88	3.43689e-06
3881.56	3.31644e-06
3890.23	3.52096e-06
3898.91	3.08483e-06
3907.59	3.11731e-06
3916.27	3.06423e-06
3924.95	2.84995e-06
3933.62	3.50091e-06
3942.3	3.84697e-06
3950.98	4.15707e-06
3959.66	3.29311e-06
3968.34	3.29788e-06
