Infrared Spectrum: Silanol, triphenyl-,
Formula: C18 H16 O Si
CAS: 791-31-1
State: SOLID (SPLIT MULL)
Melting point: 151 C
Class: COBLENTZ III
Instrument: PERKIN-ELMER 521 (GRATING)
Instrument parameters: FILTERS AT 3150, 2500, 2000, 1150, 700, 410. GRATING CHANGES: 2000, 630
Resolution: 2
Origin: DOW CORNING CORP.
1/CM	TRANSMITTANCE
258	0.7074
267	0.723
276	0.7611
285	0.7801
294	0.8005
303	0.8209
312	0.8252
321	0.8338
330	0.8444
339	0.8468
348	0.8408
357	0.8242
366	0.8156
375	0.8231
384	0.8377
393	0.8386
402	0.8438
411	0.8363
420	0.8203
429	0.7818
438	0.7664
447	0.777
456	0.8086
465	0.7962
474	0.7177
483	0.7224
492	0.7533
501	0.6239
510	0.3633
519	0.2025
528	0.7114
537	0.7624
546	0.7709
555	0.7692
564	0.7668
573	0.7626
582	0.7565
591	0.7509
600	0.7465
609	0.75
618	0.7789
627	0.7866
636	0.7819
645	0.7828
654	0.7857
663	0.7787
672	0.7612
681	0.7607
690	0.69
699	0.2282
708	0.3723
717	0.3301
726	0.7055
735	0.587
744	0.6705
753	0.787
762	0.8038
771	0.8052
780	0.803
789	0.7981
798	0.784
807	0.7579
816	0.6975
825	0.5363
834	0.4119
843	0.5161
852	0.4376
861	0.4734
870	0.6488
879	0.7759
888	0.7984
897	0.8103
906	0.8141
915	0.8078
924	0.8106
933	0.8056
942	0.795
951	0.7824
960	0.7674
969	0.7516
978	0.7379
987	0.72
996	0.6283
1005	0.7191
1014	0.7141
1023	0.6692
1032	0.7254
1041	0.7315
1050	0.7378
1059	0.7293
1068	0.7239
1077	0.7392
1086	0.7195
1095	0.6864
1104	0.5524
1113	0.2767
1122	0.4667
1131	0.7301
1140	0.752
1149	0.7525
1158	0.7745
1167	0.7789
1176	0.7525
1185	0.7474
1194	0.7898
1203	0.7911
1212	0.7915
1221	0.7916
1230	0.7916
1239	0.7898
1248	0.7774
1257	0.7575
1266	0.7759
1275	0.781
1284	0.7717
1293	0.7613
1302	0.73
1311	0.8084
1320	0.7944
1329	0.7829
1338	0.8675
1347	0.8619
1356	0.8553
1365	0.8475
1374	0.8254
1383	0.848
1392	0.8571
1401	0.8392
1410	0.7778
1419	0.4378
1428	0.6213
1437	0.9144
1446	0.9148
1455	0.9107
1464	0.9043
1473	0.861
1482	0.6502
1491	0.9155
1500	0.9185
1509	0.9181
1518	0.9148
1527	0.9088
1536	0.9035
1545	0.8901
1554	0.8815
1563	0.8208
1572	0.8728
1581	0.7306
1590	0.8259
1599	0.8855
1608	0.8836
1617	0.8889
1626	0.8922
1635	0.8881
1644	0.8756
1653	0.8612
1662	0.8625
1671	0.8754
1680	0.8813
1689	0.8799
1698	0.8778
1707	0.8763
1716	0.8752
1725	0.8737
1734	0.8718
1743	0.8698
1752	0.8625
1761	0.852
1770	0.8465
1779	0.8566
1788	0.8602
1797	0.8578
1806	0.846
1815	0.8141
1824	0.8167
1833	0.8318
1842	0.8469
1851	0.856
1860	0.8555
1869	0.8429
1878	0.8041
1887	0.7901
1896	0.8065
1905	0.8294
1914	0.8426
1923	0.8483
1932	0.8463
1941	0.8309
1950	0.8056
1959	0.7936
1968	0.8124
1977	0.8269
1986	0.8411
1995	0.8494
2004	0.8793
2013	0.8762
2022	0.8742
2031	0.8725
2040	0.8701
2049	0.8675
2058	0.8648
2067	0.862
2076	0.8594
2085	0.8568
2094	0.8544
2103	0.852
2112	0.8497
2121	0.8473
2130	0.8446
2139	0.8416
2148	0.8385
2157	0.8352
2166	0.8315
2175	0.8275
2184	0.8234
2193	0.8201
2202	0.8167
2211	0.813
2220	0.8098
2229	0.8065
2238	0.8044
2247	0.8028
2256	0.8013
2265	0.8001
2274	0.7964
2283	0.7893
2292	0.7864
2301	0.7867
2310	0.7859
2319	0.7841
2328	0.7826
2337	0.7816
2346	0.7805
2355	0.7796
2364	0.7792
2373	0.7797
2382	0.7785
2391	0.7767
2400	0.7749
2409	0.7729
2418	0.7709
2427	0.7689
2436	0.7668
2445	0.7649
2454	0.7637
2463	0.7639
2472	0.7617
2481	0.7545
2490	0.7491
2499	0.7453
2508	0.7423
2517	0.7409
2526	0.7395
2535	0.7374
2544	0.7353
2553	0.7332
2562	0.7304
2571	0.7271
2580	0.725
2589	0.7222
2598	0.7192
2607	0.7165
2616	0.7141
2625	0.7117
2634	0.7092
2643	0.7066
2652	0.7036
2661	0.7003
2670	0.6974
2679	0.6946
2688	0.6911
2697	0.6882
2706	0.6863
2715	0.6832
2724	0.68
2733	0.6759
2742	0.6717
2751	0.6675
2760	0.6636
2769	0.6596
2778	0.6561
2787	0.6538
2796	0.6509
2805	0.6466
2814	0.6418
2823	0.6364
2832	0.6296
2841	0.6214
2850	0.6134
2859	0.6064
2868	0.6006
2877	0.5948
2886	0.5887
2895	0.5817
2904	0.5747
2913	0.568
2922	0.5615
2931	0.5566
2940	0.5518
2949	0.5424
2958	0.5329
2967	0.5221
2976	0.5097
2985	0.4962
2994	0.4751
3003	0.4365
3012	0.395
3021	0.3807
3030	0.3678
3039	0.399
3048	0.3892
3057	0.3191
3066	0.3288
3075	0.2874
3084	0.3154
3093	0.3872
3102	0.387
3111	0.3804
3120	0.3693
3129	0.3464
3138	0.3318
3147	0.3235
3156	0.3177
3165	0.3043
3174	0.2888
3183	0.2759
3192	0.2646
3201	0.2536
3210	0.244
3219	0.2371
3228	0.2302
3237	0.2256
3246	0.223
3255	0.2213
3264	0.2185
3273	0.2221
3282	0.2243
3291	0.2281
3300	0.2324
3309	0.2404
3318	0.2486
3327	0.2526
3336	0.2693
3345	0.281
3354	0.2953
3363	0.3106
3372	0.3251
3381	0.3401
3390	0.3553
3399	0.3712
3408	0.3912
3417	0.4187
3426	0.4377
3435	0.4538
3444	0.4677
3453	0.4807
3462	0.493
3471	0.5051
3480	0.5146
3489	0.523
3498	0.5299
3507	0.5351
3516	0.5386
3525	0.5417
3534	0.5448
3543	0.5455
3552	0.5461
3561	0.5463
3570	0.5462
3579	0.5448
3588	0.542
3597	0.5392
3606	0.5365
3615	0.5341
3624	0.5319
3633	0.53
3642	0.5283
3651	0.5266
3660	0.5249
3669	0.5232
3678	0.5215
3687	0.5198
3696	0.518
3705	0.516
3714	0.5141
3723	0.5122
3732	0.5099
3741	0.5076
3750	0.5054
3759	0.5031
3768	0.5009
3777	0.4986
3786	0.497
3795	0.496
3804	0.4951
3813	0.4937
3822	0.4924
