Infrared Spectrum: Silanol, triphenyl-
Formula: C18 H16 O Si
CAS: 791-31-1
State: SOLUTION (2% CCl4 FOR 3800-1300, 2% CS2 FOR 1300-650, AND 2% CCl4 FOR 650-250)
Melting point: 151 C
Class: COBLENTZ II
Instrument: PERKIN-ELMER 521 (GRATING)
Instrument parameters: FILTERS AT 3150, 2500, 2000, 1150, 700, 410. GRATING CHANGES: 2000, 630
Path length: 0.052 CM, 0.011 CM, AND 0.009 CM
Resolution: 2
Origin: DOW CORNING CORP.
1/CM	TRANSMITTANCE
245	0.6674
254	0.6573
263	0.6419
272	0.6317
281	0.6268
290	0.6465
299	0.6803
308	0.6991
317	0.7007
326	0.7087
335	0.7139
344	0.7162
353	0.7221
362	0.7322
371	0.7323
380	0.7423
389	0.7433
398	0.7333
407	0.7558
416	0.7527
425	0.7403
434	0.7298
443	0.7438
452	0.7651
461	0.7888
470	0.7795
479	0.7306
488	0.7481
497	0.6565
506	0.3446
515	0.4803
524	0.759
533	0.7957
542	0.8016
551	0.8055
560	0.8061
569	0.8093
578	0.8127
587	0.8166
596	0.8236
605	0.8166
614	0.8119
623	0.8495
632	0.8459
641	0.8754
650	0.8874
659	0.8634
668	0.8564
677	0.8389
686	0.8338
695	0.7306
704	0.326
713	0.4067
722	0.7294
731	0.7679
740	0.5914
749	0.7823
758	0.8175
767	0.8153
776	0.8054
785	0.7732
794	0.7133
803	0.6122
812	0.5711
821	0.6258
830	0.7066
839	0.7694
848	0.7949
857	0.7989
866	0.8009
875	0.7989
884	0.7735
893	0.7993
902	0.8484
911	0.8468
920	0.8514
929	0.8548
938	0.8559
947	0.8585
956	0.857
965	0.8546
974	0.8523
983	0.8526
992	0.8477
1001	0.804
1010	0.8609
1019	0.8566
1028	0.8254
1037	0.8669
1046	0.863
1055	0.8614
1064	0.8494
1073	0.8578
1082	0.8512
1091	0.8386
1100	0.8216
1109	0.6976
1118	0.3345
1127	0.732
1136	0.8315
1145	0.8412
1154	0.8384
1163	0.8446
1172	0.8499
1181	0.8281
1190	0.8188
1199	0.8565
1208	0.8598
1217	0.8595
1226	0.8573
1235	0.8538
1244	0.8485
1253	0.8428
1262	0.8394
1271	0.8491
1280	0.85
1289	0.8478
1298	0.8405
1307	0.7685
1316	0.8212
1325	0.7892
1334	0.7598
1343	0.8512
1352	0.8621
1361	0.8445
1370	0.8176
1379	0.8001
1388	0.8475
1397	0.8548
1406	0.8457
1415	0.8259
1424	0.4994
1433	0.2679
1442	0.8321
1451	0.8483
1460	0.8548
1469	0.8537
1478	0.8357
1487	0.6478
1496	0.8697
1505	0.887
1514	0.892
1523	0.8908
1532	0.8765
1541	0.8569
1550	0.8493
1559	0.8462
1568	0.834
1577	0.8296
1586	0.7086
1595	0.8198
1604	0.8726
1613	0.8548
1622	0.8549
1631	0.8753
1640	0.8747
1649	0.8559
1658	0.8194
1667	0.8593
1676	0.8707
1685	0.8771
1694	0.8773
1703	0.8776
1712	0.8816
1721	0.8911
1730	0.8936
1739	0.8963
1748	0.8969
1757	0.8896
1766	0.8544
1775	0.8433
1784	0.8844
1793	0.8895
1802	0.8884
1811	0.8763
1820	0.7802
1829	0.8185
1838	0.8509
1847	0.8886
1856	0.8963
1865	0.8943
1874	0.8827
1883	0.837
1892	0.8105
1901	0.8153
1910	0.862
1919	0.8919
1928	0.8998
1937	0.8953
1946	0.8826
1955	0.8372
1964	0.8364
1973	0.8318
1982	0.8966
1991	0.902
2000	0.895
2009	0.9083
2018	0.9085
2027	0.9085
2036	0.9095
2045	0.9104
2054	0.9113
2063	0.9121
2072	0.9129
2081	0.9136
2090	0.9133
2099	0.9127
2108	0.911
2117	0.9116
2126	0.9127
2135	0.9125
2144	0.9118
2153	0.9116
2162	0.9116
2171	0.9116
2180	0.9116
2189	0.9115
2198	0.9113
2207	0.9102
2216	0.9071
2225	0.8989
2234	0.8999
2243	0.9022
2252	0.9052
2261	0.9077
2270	0.9091
2279	0.9101
2288	0.9097
2297	0.9075
2306	0.9023
2315	0.896
2324	0.9054
2333	0.9076
2342	0.9034
2351	0.9081
2360	0.908
2369	0.9098
2378	0.9079
2387	0.9095
2396	0.9126
2405	0.9105
2414	0.9098
2423	0.9115
2432	0.9165
2441	0.9148
2450	0.9132
2459	0.9119
2468	0.9121
2477	0.9158
2486	0.9131
2495	0.9107
2504	0.9093
2513	0.9082
2522	0.9082
2531	0.9082
2540	0.9091
2549	0.9094
2558	0.9086
2567	0.9081
2576	0.9085
2585	0.9017
2594	0.9041
2603	0.9084
2612	0.9075
2621	0.9061
2630	0.9119
2639	0.9121
2648	0.9125
2657	0.9123
2666	0.912
2675	0.9121
2684	0.9086
2693	0.9015
2702	0.9005
2711	0.9081
2720	0.9142
2729	0.9148
2738	0.9142
2747	0.9127
2756	0.9138
2765	0.9157
2774	0.9148
2783	0.9139
2792	0.9214
2801	0.918
2810	0.9111
2819	0.9048
2828	0.9038
2837	0.9039
2846	0.8879
2855	0.8678
2864	0.8779
2873	0.8974
2882	0.8896
2891	0.8788
2900	0.8794
2909	0.8469
2918	0.8521
2927	0.8683
2936	0.8793
2945	0.8812
2954	0.8623
2963	0.8405
2972	0.8492
2981	0.8479
2990	0.8296
2999	0.7765
3008	0.5608
3017	0.6013
3026	0.5538
3035	0.6406
3044	0.6199
3053	0.419
3062	0.3922
3071	0.4253
3080	0.2495
3089	0.6816
3098	0.7272
3107	0.8849
3116	0.8895
3125	0.8831
3134	0.8381
3143	0.8217
3152	0.8962
3161	0.898
3170	0.8976
3179	0.8949
3188	0.892
3197	0.8932
3206	0.8915
3215	0.8889
3224	0.8862
3233	0.8832
3242	0.8803
3251	0.8772
3260	0.8742
3269	0.8712
3278	0.8682
3287	0.8651
3296	0.8622
3305	0.859
3314	0.8559
3323	0.8527
3332	0.8496
3341	0.8463
3350	0.843
3359	0.8397
3368	0.8364
3377	0.833
3386	0.8297
3395	0.8261
3404	0.8219
3413	0.8177
3422	0.8135
3431	0.8108
3440	0.8083
3449	0.8058
3458	0.8044
3467	0.8092
3476	0.8107
3485	0.8092
3494	0.811
3503	0.8223
3512	0.8313
3521	0.8358
3530	0.8402
3539	0.8444
3548	0.8487
3557	0.8522
3566	0.8539
3575	0.856
3584	0.8616
3593	0.8581
3602	0.8457
3611	0.8424
3620	0.8281
3629	0.8104
3638	0.7931
3647	0.7737
3656	0.7558
3665	0.7157
3674	0.5097
3683	0.3131
3692	0.1934
3701	0.4068
3710	0.7291
3719	0.8637
3728	0.8874
3737	0.8959
3746	0.901
3755	0.904
3764	0.9035
3773	0.9047
3782	0.9079
3791	0.9099
3800	0.9104
3809	0.9105
