Infrared Spectrum: Silane, methyltriphenyl-
Formula: C19 H18 Si
CAS: 791-29-7
State: SOLUTION (10% CCl4 FOR 3800-1330, 10% CS2 FOR 1330-400 CM^-^1)
Class: COBLENTZ III
Instrument: DOW KBr FOREPRISM-GRATING
Instrument parameters: BLAZED AT 3.5, 12.0, 20.0 MICRON AND CHANGED AT 5.0, 7.5, 14.9 MICRON
Sampling: TRANSMISSION
Path length: 0.011 CM, 0.011 CM
Resolution: 2
Origin: DOW CHEMICAL COMPANY
1/CM	TRANSMITTANCE
3800	0.884
3791	0.8834
3782	0.8828
3773	0.8818
3764	0.8805
3755	0.879
3746	0.8778
3737	0.8764
3728	0.8758
3719	0.8802
3710	0.8797
3701	0.8745
3692	0.871
3683	0.8688
3674	0.869
3665	0.8721
3656	0.8758
3647	0.8785
3638	0.8778
3629	0.8694
3620	0.8689
3611	0.8709
3602	0.8742
3593	0.878
3584	0.8778
3575	0.891
3566	0.8837
3557	0.875
3548	0.8739
3539	0.8736
3530	0.8735
3521	0.8736
3512	0.8737
3503	0.8732
3494	0.8723
3485	0.8715
3476	0.8706
3467	0.8696
3458	0.8687
3449	0.8677
3440	0.8667
3431	0.8658
3422	0.8649
3413	0.8643
3404	0.8639
3395	0.8638
3386	0.8637
3377	0.8638
3368	0.864
3359	0.8641
3350	0.8642
3341	0.8634
3332	0.8625
3323	0.8613
3314	0.8596
3305	0.8578
3296	0.8555
3287	0.853
3278	0.8509
3269	0.8489
3260	0.8468
3251	0.8449
3242	0.8428
3233	0.8408
3224	0.8388
3215	0.8368
3206	0.8348
3197	0.8325
3188	0.8302
3179	0.8268
3170	0.823
3161	0.8162
3152	0.8088
3143	0.7965
3134	0.723
3125	0.7634
3116	0.7781
3107	0.7755
3098	0.7487
3089	0.6392
3080	0.6057
3071	0.4052
3062	0.3193
3053	0.3957
3044	0.3512
3035	0.587
3026	0.5399
3017	0.5139
3008	0.4776
2999	0.5357
2990	0.5459
2981	0.713
2972	0.7125
2963	0.6517
2954	0.5831
2945	0.6701
2936	0.7564
2927	0.7636
2918	0.7658
2909	0.7624
2900	0.7471
2891	0.753
2882	0.768
2873	0.7807
2864	0.7901
2855	0.7907
2846	0.7815
2837	0.7794
2828	0.7801
2819	0.7795
2810	0.7768
2801	0.7778
2792	0.7811
2783	0.7861
2774	0.7915
2765	0.7964
2756	0.7988
2747	0.7999
2738	0.8011
2729	0.8025
2720	0.8042
2711	0.806
2702	0.8083
2693	0.8075
2684	0.8025
2675	0.8021
2666	0.8097
2657	0.8153
2648	0.815
2639	0.8146
2630	0.8144
2621	0.8144
2612	0.8133
2603	0.81
2594	0.8148
2585	0.8192
2576	0.8175
2567	0.8194
2558	0.825
2549	0.8254
2540	0.8288
2531	0.8318
2522	0.8331
2513	0.8343
2504	0.8357
2495	0.8368
2486	0.8381
2477	0.839
2468	0.8406
2459	0.847
2450	0.8475
2441	0.848
2432	0.8489
2423	0.8499
2414	0.8513
2405	0.8527
2396	0.8542
2387	0.8553
2378	0.8581
2369	0.863
2360	0.8727
2351	0.8809
2342	0.8836
2333	0.8838
2324	0.8898
2315	0.8883
2306	0.8807
2297	0.8764
2288	0.8758
2279	0.8749
2270	0.8743
2261	0.8742
2252	0.8741
2243	0.8751
2234	0.8766
2225	0.877
2216	0.8735
2207	0.8733
2198	0.8757
2189	0.8782
2180	0.879
2171	0.8797
2162	0.8807
2153	0.8816
2144	0.882
2135	0.8808
2126	0.8789
2117	0.8791
2108	0.88
2099	0.8809
2090	0.8817
2081	0.8821
2072	0.8825
2063	0.8828
2054	0.8828
2045	0.8828
2036	0.8821
2027	0.8818
2018	0.8817
2009	0.881
2000	0.8735
1991	0.8566
1982	0.8397
1973	0.7915
1964	0.81
1955	0.7601
1946	0.8328
1937	0.8565
1928	0.8631
1919	0.8621
1910	0.8489
1901	0.7818
1892	0.8053
1883	0.7646
1874	0.8259
1865	0.8609
1856	0.8651
1847	0.8641
1838	0.844
1829	0.8234
1820	0.7665
1811	0.8118
1802	0.8518
1793	0.8623
1784	0.8663
1775	0.8456
1766	0.8284
1757	0.8407
1748	0.8618
1739	0.8662
1730	0.8666
1721	0.867
1712	0.8671
1703	0.8663
1694	0.8623
1685	0.8625
1676	0.863
1667	0.8542
1658	0.836
1649	0.8162
1640	0.8387
1631	0.8558
1622	0.8528
1613	0.8321
1604	0.8488
1595	0.832
1586	0.7458
1577	0.8176
1568	0.8078
1559	0.8546
1550	0.8568
1541	0.8583
1532	0.8618
1523	0.8635
1514	0.8625
1505	0.8568
1496	0.8425
1487	0.6849
1478	0.8108
1469	0.8235
1460	0.8162
1451	0.8154
1442	0.788
1433	0.0912
1424	0.6356
1415	0.7124
1406	0.7735
1397	0.7968
1388	0.7946
1379	0.7749
1370	0.7862
1361	0.8144
1352	0.8156
1343	0.8072
1334	0.7562
1325	0.7257
1316	0.781
1307	0.793
1298	0.7498
1289	0.8057
1280	0.7819
1271	0.7686
1262	0.6272
1253	0.4014
1244	0.7058
1235	0.8044
1226	0.8268
1217	0.8228
1208	0.809
1199	0.7862
1190	0.6476
1181	0.7546
1172	0.7824
1163	0.7786
1154	0.7495
1145	0.7728
1136	0.7447
1127	0.5792
1118	0.2855
1109	0.0353
1100	0.551
1091	0.7533
1082	0.7908
1073	0.8188
1064	0.7674
1055	0.8236
1046	0.8327
1037	0.8371
1028	0.674
1019	0.8518
1010	0.8512
1001	0.6749
992	0.8292
983	0.8315
974	0.8347
965	0.8295
956	0.8439
947	0.8528
938	0.8592
929	0.8604
920	0.8474
911	0.8268
902	0.8475
893	0.8577
884	0.8621
875	0.8637
866	0.8557
857	0.8393
848	0.826
839	0.8437
830	0.8485
821	0.8434
812	0.7978
803	0.5446
794	0.007
785	0.2845
776	0.7055
767	0.7701
758	0.7761
749	0.5806
740	0.0366
731	0.0484
722	0.11
713	0.4652
704	0.0546
695	0.141
686	0.693
677	0.7546
668	0.8026
659	0.649
650	0.8377
641	0.8856
632	0.8955
623	0.8877
614	0.8751
605	0.9047
596	0.9121
587	0.9154
578	0.9134
569	0.9096
560	0.9105
551	0.9125
542	0.9136
533	0.9113
524	0.8982
515	0.8813
506	0.8105
497	0.2863
488	0.1595
479	0.182
470	0.3105
461	0.6875
452	0.8271
443	0.8452
434	0.7032
425	0.6432
416	0.6406
407	0.6578
398	0.6656
389	0.6698
