Infrared Spectrum: TRIPHENYLSILANOL
Formula: C18 H16 O Si
CAS: 791-31-1
State: SOLID (KBr WAFER)
Class: COBLENTZ
Instrument: BECKMAN IR-4 (HYBRID PRISM-GRATING)
Sampling: TRANSMISSION
Resolution: 4
Origin: PENINSULAR CHEM RESEARCH, INC., GAINESVILLE, FLORIDA
MICROMETERS	TRANSMITTANCE
2.025	0.838
2.06003	0.843
2.09506	0.845
2.13009	0.85
2.16512	0.854
2.20015	0.859
2.23518	0.858
2.27021	0.868
2.30524	0.872
2.34027	0.869
2.3753	0.875
2.41033	0.877
2.44536	0.868
2.48039	0.874
2.51542	0.879
2.55044	0.882
2.58547	0.902
2.6205	0.889
2.65553	0.894
2.69056	0.882
2.72559	0.869
2.76062	0.859
2.79565	0.84
2.83068	0.782
2.86571	0.739
2.90074	0.672
2.93577	0.627
2.9708	0.573
3.00583	0.535
3.04086	0.533
3.07589	0.557
3.11092	0.602
3.14595	0.658
3.18098	0.708
3.21601	0.739
3.25104	0.675
3.28607	0.74
3.3211	0.78
3.35613	0.86
3.39116	0.873
3.42619	0.89
3.46122	0.903
3.49625	0.907
3.53127	0.912
3.5663	0.919
3.60133	0.922
3.63636	0.922
3.67139	0.922
3.70642	0.923
3.74145	0.929
3.77648	0.93
3.81151	0.929
3.84654	0.93
3.88157	0.933
3.9166	0.937
3.95163	0.939
3.98666	0.943
4.02169	0.942
4.05672	0.941
4.09175	0.949
4.12678	0.949
4.16181	0.933
4.19684	0.919
4.23187	0.938
4.2669	0.951
4.30193	0.956
4.33696	0.958
4.37199	0.948
4.40702	0.947
4.44205	0.947
4.47708	0.933
4.51211	0.941
4.54713	0.948
4.58216	0.944
4.61719	0.949
4.65222	0.943
4.68725	0.949
4.72228	0.949
4.75731	0.949
4.79234	0.943
4.82737	0.949
4.8624	0.948
4.89743	0.949
4.93246	0.949
4.96749	0.949
5.00252	0.939
5.03755	0.932
5.07258	0.92
5.10761	0.933
5.14264	0.958
5.17767	0.949
5.2127	0.938
5.24773	0.919
5.28276	0.93
5.31779	0.938
5.35282	0.958
5.38785	0.937
5.42288	0.939
5.45791	0.938
5.49294	0.93
5.52796	0.949
5.56299	0.953
5.59802	0.939
5.63305	0.952
5.66808	0.948
5.70311	0.954
5.73814	0.948
5.77317	0.949
5.8082	0.942
5.84323	0.929
5.87826	0.942
5.91329	0.932
5.94832	0.928
5.98335	0.923
6.01838	0.908
6.05341	0.93
6.08844	0.918
6.12347	0.912
6.1585	0.91
6.19353	0.922
6.22856	0.924
6.26359	0.879
6.29862	0.889
6.33365	0.928
6.36868	0.912
6.40371	0.932
6.43874	0.932
6.47377	0.942
6.5088	0.934
6.54382	0.93
6.57885	0.939
6.61388	0.942
6.64891	0.937
6.68394	0.899
6.71897	0.872
6.754	0.928
6.78903	0.939
6.82406	0.936
6.85909	0.949
6.89412	0.938
6.92915	0.899
6.96418	0.555
6.99921	0.489
7.03424	0.922
7.06927	0.925
7.1043	0.93
7.13933	0.939
7.17436	0.929
7.20939	0.919
7.24442	0.914
7.27945	0.938
7.31448	0.932
7.34951	0.949
7.38454	0.946
7.41957	0.934
7.4546	0.928
7.48963	0.903
7.52465	0.912
7.55968	0.924
7.59471	0.93
7.62974	0.908
7.66477	0.902
7.6998	0.922
7.73483	0.929
7.76986	0.948
7.80489	0.944
7.83992	0.939
7.87495	0.92
7.90998	0.902
7.94501	0.918
7.98004	0.939
8.01507	0.947
8.0501	0.948
8.08513	0.943
8.12016	0.942
8.15519	0.939
8.19022	0.932
8.22525	0.943
8.26028	0.942
8.29531	0.932
8.33034	0.927
8.36537	0.912
8.4004	0.872
8.43543	0.868
8.47046	0.9
8.50549	0.909
8.54051	0.912
8.57554	0.905
8.61057	0.894
8.6456	0.885
8.68063	0.887
8.71566	0.874
8.75069	0.864
8.78572	0.843
8.82075	0.799
8.85578	0.671
8.89081	0.363
8.92584	0.134
8.96087	0.263
8.9959	0.544
9.03093	0.617
9.06596	0.739
9.10099	0.796
9.13602	0.82
9.17105	0.84
9.20608	0.851
9.24111	0.856
9.27614	0.858
9.31117	0.838
9.3462	0.814
9.38123	0.821
9.41626	0.846
9.45129	0.856
9.48632	0.849
9.52135	0.841
9.55637	0.834
9.5914	0.831
9.62643	0.823
9.66146	0.819
9.69649	0.792
9.73152	0.764
9.76655	0.792
9.80158	0.803
9.83661	0.804
9.87164	0.805
9.90667	0.805
9.9417	0.797
9.97673	0.771
10.0118	0.7
10.0468	0.772
10.0818	0.823
10.1168	0.833
10.1519	0.839
10.1869	0.853
10.2219	0.856
10.257	0.855
10.292	0.86
10.327	0.864
10.3621	0.873
10.3971	0.884
10.4321	0.885
10.4671	0.894
10.5022	0.897
10.5372	0.898
10.5722	0.904
10.6073	0.905
10.6423	0.907
10.6773	0.909
10.7124	0.913
10.7474	0.914
10.7824	0.915
10.8174	0.914
10.8525	0.918
10.8875	0.913
10.9225	0.907
10.9576	0.912
10.9926	0.914
11.0276	0.91
11.0626	0.91
11.0977	0.907
11.1327	0.903
11.1677	0.895
11.2028	0.892
11.2378	0.882
11.2728	0.878
11.3079	0.868
11.3429	0.85
11.3779	0.809
11.4129	0.77
11.448	0.701
11.483	0.639
11.518	0.564
11.5531	0.503
11.5881	0.469
11.6231	0.449
11.6582	0.439
11.6932	0.437
11.7282	0.446
11.7632	0.462
11.7983	0.483
11.8333	0.479
11.8683	0.432
11.9034	0.373
11.9384	0.347
11.9734	0.348
12.0085	0.373
12.0435	0.432
12.0785	0.485
12.1135	0.579
12.1486	0.629
12.1836	0.687
12.2186	0.73
12.2537	0.76
12.2887	0.782
12.3237	0.804
12.3587	0.81
12.3938	0.829
12.4288	0.839
12.4638	0.844
12.4989	0.851
12.5339	0.851
12.5689	0.854
12.604	0.856
12.639	0.856
12.674	0.859
12.709	0.861
12.7441	0.86
12.7791	0.861
12.8141	0.861
12.8492	0.859
12.8842	0.863
12.9192	0.861
12.9543	0.861
12.9893	0.859
13.0243	0.855
13.0593	0.851
13.0944	0.848
13.1294	0.844
13.1644	0.839
13.1995	0.831
13.2345	0.818
13.2695	0.795
13.3045	0.749
13.3396	0.702
13.3746	0.677
13.4096	0.659
13.4447	0.628
13.4797	0.573
13.5147	0.509
13.5498	0.49
13.5848	0.562
13.6198	0.661
13.6548	0.722
13.6899	0.727
13.7249	0.712
13.7599	0.693
13.795	0.662
13.83	0.609
13.865	0.506
13.9001	0.361
13.9351	0.234
13.9701	0.13
14.0051	0.074
14.0402	0.084
14.0752	0.153
14.1102	0.257
14.1453	0.353
14.1803	0.365
14.2153	0.336
14.2503	0.267
14.2854	0.196
14.3204	0.163
14.3554	0.196
14.3905	0.297
14.4255	0.411
14.4605	0.562
14.4956	0.646
14.5306	0.702
14.5656	0.726
14.6006	0.736
14.6357	0.74
14.6707	0.739
14.7057	0.741
14.7408	0.734
14.7758	0.728
14.8108	0.726
14.8459	0.73
14.8809	0.734
14.9159	0.728
14.9509	0.702
14.986	0.7
15.021	0.7
