Infrared Spectrum: ACETIC ACID, METHYL ESTER
Formula: C3 H6 O2
CAS: 79-20-9
State: SOLUTION (10% IN CCl4 FOR 3800-1330, 10% IN CS2 FOR 1330-460 CM^-^1)
Class: COBLENTZ III
Instrument: DOW KBr FOREPRISM-GRATING
Instrument parameters: BLAZED AT 3.5, 12.0, 20.0 MICRON, CHANGED AT 5.0, 7.5, 14.9 MICRON
Sampling: TRANSMISSION
Path length: 0.011, 0.011 CM
Resolution: 4
Origin: DOW CHEMICAL COMPANY
1/CM	TRANSMITTANCE
458.191	0.86
466.723	0.868
475.256	0.874
483.788	0.884
492.321	0.893
500.853	0.9
509.386	0.904
517.918	0.905
526.45	0.906
534.983	0.906
543.515	0.91
552.048	0.912
560.58	0.92
569.113	0.918
577.645	0.912
586.178	0.901
594.71	0.852
603.242	0.568
611.775	0.646
620.307	0.837
628.84	0.848
637.372	0.633
645.905	0.726
654.437	0.848
662.969	0.894
671.502	0.932
680.034	0.98
688.567	0.982
697.099	0.981
705.632	0.989
714.164	0.992
722.697	0.998
731.229	1
739.761	0.998
748.294	1.001
756.826	1.001
765.359	1
773.891	0.997
782.424	0.984
790.956	0.972
799.488	0.958
808.021	0.936
816.553	0.906
825.086	0.825
833.618	0.546
842.151	0.086
850.683	0.428
859.215	0.689
867.748	0.794
876.28	0.856
884.813	0.912
893.345	0.953
901.878	0.97
910.41	0.978
918.943	0.986
927.475	0.993
936.007	0.989
944.54	0.988
953.072	0.978
961.605	0.96
970.137	0.898
978.67	0.657
987.202	0.83
995.734	0.858
1004.27	0.836
1012.8	0.757
1021.33	0.586
1029.86	0.337
1038.4	0.082
1046.93	0.01
1055.46	0.129
1063.99	0.38
1072.53	0.534
1081.06	0.637
1089.59	0.708
1098.12	0.765
1106.66	0.813
1115.19	0.841
1123.72	0.852
1132.25	0.849
1140.79	0.804
1149.32	0.818
1157.85	0.81
1166.38	0.814
1174.92	0.782
1183.45	0.705
1191.98	0.637
1200.51	0.549
1209.05	0.354
1217.58	0.157
1226.11	0.018
1234.64	0
1243.18	0.005
1251.71	0.008
1260.24	0.0651
1268.77	0.206
1277.3	0.17
1285.84	0.3381
1294.37	0.553
1302.9	0.673
1311.43	0.708
1319.97	0.741
1328.5	0.764
1337.03	0.766
1345.56	0.746
1354.1	0.644
1362.63	0.3139
1371.16	0.001
1379.69	0.2621
1388.23	0.586
1396.76	0.666
1405.29	0.658
1413.82	0.59
1422.36	0.5
1430.89	0.2319
1439.42	0.021
1447.95	0.213
1456.49	0.316
1465.02	0.405
1473.55	0.552
1482.08	0.558
1490.62	0.62
1499.15	0.665
1507.68	0.66
1516.21	0.644
1524.75	0.624
1533.28	0.586
1541.81	0.516
1550.34	0.465
1558.88	0.5
1567.41	0.573
1575.94	0.624
1584.47	0.644
1593.01	0.693
1601.54	0.757
1610.07	0.784
1618.6	0.746
1627.13	0.796
1635.67	0.82
1644.2	0.797
1652.73	0.756
1661.26	0.746
1669.8	0.706
1678.33	0.629
1686.86	0.618
1695.39	0.621
1703.93	0.514
1712.46	0.438
1720.99	0.354
1729.52	0.124
1738.06	0
1746.59	0
1755.12	0
1763.65	0.074
1772.19	0.3261
1780.72	0.5101
1789.25	0.632
1797.78	0.706
1806.32	0.777
1814.85	0.842
1823.38	0.88
1831.91	0.912
1840.45	0.932
1848.98	0.942
1857.51	0.945
1866.04	0.938
1874.58	0.917
1883.11	0.873
1891.64	0.85
1900.17	0.91
1908.71	0.949
1917.24	0.966
1925.77	0.974
1934.3	0.976
1942.83	0.972
1951.37	0.966
1959.9	0.965
1968.43	0.966
1976.96	0.969
1985.5	0.97
1994.03	0.97
2002.56	0.969
2011.09	0.964
2019.63	0.955
2028.16	0.9565
2036.69	0.9615
2045.22	0.9695
2053.76	0.97
2062.29	0.9609
2070.82	0.9412
2079.35	0.8932
2087.89	0.8223
2096.42	0.841
2104.95	0.9008
2113.48	0.9654
2122.02	0.9832
2130.55	0.988
2139.08	1.0046
2147.61	1.0112
2156.15	1.0206
2164.68	1.0188
2173.21	1.0176
2181.74	1.0174
2190.28	1.014
2198.81	1.016
2207.34	1.0064
2215.87	0.9938
2224.41	0.9992
2232.94	1.0087
2241.47	1.012
2250	1.0147
2258.54	1.012
2267.07	1.003
2275.6	0.9859
2284.13	0.9683
2292.66	0.9768
2301.2	0.9897
2309.73	0.9871
2318.26	1.0057
2326.79	1.0002
2335.33	1.002
2343.86	1.0017
2352.39	1.0072
2360.92	1.013
2369.46	1.014
2377.99	1.013
2386.52	1.0083
2395.05	1.0042
2403.59	1.001
2412.12	0.9972
2420.65	1
2429.18	1.0008
2437.72	1.004
2446.25	1.0042
2454.78	1
2463.31	0.9871
2471.85	0.9762
2480.38	0.9625
2488.91	0.9658
2497.44	0.9778
2505.98	0.9888
2514.51	0.996
2523.04	0.9978
2531.57	1.0009
2540.11	1.0037
2548.64	1.002
2557.17	1.001
2565.7	0.998
2574.24	0.998
2582.77	0.9868
2591.3	0.9695
2599.83	0.9656
2608.36	0.978
2616.9	0.98
2625.43	0.984
2633.96	0.99
2642.49	0.9851
2651.03	0.9839
2659.56	0.9859
2668.09	0.9851
2676.62	0.981
2685.16	0.978
2693.69	0.977
2702.22	0.977
2710.75	0.9721
2719.29	0.956
2727.82	0.95
2736.35	0.961
2744.88	0.973
2753.42	0.976
2761.95	0.976
2770.48	0.973
2779.01	0.969
2787.55	0.966
2796.08	0.957
2804.61	0.946
2813.14	0.946
2821.68	0.9439
2830.21	0.9328
2838.74	0.8966
2847.27	0.7519
2855.81	0.7699
2864.34	0.8781
2872.87	0.8819
2881.4	0.8674
2889.94	0.8272
2898.47	0.7961
2907	0.741
2915.53	0.7885
2924.07	0.7841
2932.6	0.7441
2941.13	0.6053
2949.66	0.3682
2958.19	0.2284
2966.73	0.4959
2975.26	0.6574
2983.79	0.6144
2992.32	0.5081
3000.86	0.4218
3009.39	0.4911
3017.92	0.5485
3026.45	0.5322
3034.99	0.6038
3043.52	0.7049
3052.05	0.7788
3060.58	0.8192
3069.12	0.8425
3077.65	0.8562
3086.18	0.87
3094.71	0.8777
3103.25	0.8857
3111.78	0.892
3120.31	0.8925
3128.84	0.901
3137.38	0.9065
3145.91	0.9105
3154.44	0.913
3162.97	0.914
3171.51	0.9137
3180.04	0.91
3188.57	0.913
3197.1	0.9163
3205.64	0.922
3214.17	0.924
3222.7	0.9247
3231.23	0.925
3239.77	0.925
3248.3	0.926
3256.83	0.9253
3265.36	0.929
3273.89	0.925
3282.43	0.928
3290.96	0.9246
3299.49	0.9244
3308.02	0.924
3316.56	0.9214
3325.09	0.924
3333.62	0.925
3342.15	0.925
3350.69	0.925
3359.22	0.9228
3367.75	0.922
3376.28	0.9192
3384.82	0.918
3393.35	0.92
3401.88	0.9189
3410.41	0.9191
3418.95	0.914
3427.48	0.91
3436.01	0.912
3444.54	0.9095
3453.08	0.8961
3461.61	0.8762
3470.14	0.8352
3478.67	0.8304
3487.21	0.8664
3495.74	0.907
3504.27	0.917
3512.8	0.927
3521.34	0.9295
3529.87	0.932
3538.4	0.933
3546.93	0.934
3555.47	0.9375
3564	0.941
3572.53	0.945
3581.06	0.9496
3589.6	0.956
3598.13	0.9576
3606.66	0.96
3615.19	0.962
3623.72	0.9644
3632.26	0.965
3640.79	0.9672
3649.32	0.969
3657.85	0.97
3666.39	0.9684
3674.92	0.965
3683.45	0.9628
3691.98	0.9686
3700.52	0.9726
3709.05	0.976
3717.58	0.976
3726.11	0.977
3734.65	0.976
3743.18	0.9753
3751.71	0.9767
3760.24	0.974
3768.78	0.9767
3777.31	0.974
3785.84	0.9767
3794.37	0.976
