Infrared Spectrum: Nitroethane
Formula: C 2 H 5 N O 2
CAS: 79-24-3
State: liquid
Instrument: Bruker Tensor 27 FTIR
Resolution: 0.4821395
Origin: Pacific Northwest National Laboratory Under IARPA Contract
1/cm	dispersion index
7797.62	1.37756
7779.06	1.37755
7760.5	1.37755
7741.94	1.37754
7723.38	1.37753
7704.81	1.37752
7686.25	1.37751
7667.69	1.3775
7649.13	1.37749
7630.57	1.37748
7612.01	1.37748
7593.44	1.37747
7574.88	1.37746
7556.32	1.37745
7537.76	1.37745
7519.2	1.37744
7500.64	1.37743
7482.07	1.37742
7463.51	1.37741
7444.95	1.3774
7426.39	1.37739
7407.83	1.37738
7389.26	1.37737
7370.7	1.37736
7352.14	1.37735
7333.58	1.37733
7315.02	1.37732
7296.46	1.37731
7277.89	1.3773
7259.33	1.37728
7240.77	1.37727
7222.21	1.37726
7203.65	1.37725
7185.09	1.37723
7166.52	1.37722
7147.96	1.3772
7129.4	1.37719
7110.84	1.37717
7092.28	1.37716
7073.71	1.37714
7055.15	1.37713
7036.59	1.37711
7018.03	1.37709
6999.47	1.37707
6980.91	1.37705
6962.34	1.37703
6943.78	1.377
6925.22	1.37697
6906.66	1.37694
6888.1	1.37697
6869.54	1.37697
6850.97	1.37694
6832.41	1.37692
6813.85	1.37694
6795.29	1.37695
6776.73	1.37693
6758.16	1.3769
6739.6	1.37688
6721.04	1.37685
6702.48	1.37682
6683.92	1.37679
6665.36	1.37677
6646.79	1.37674
6628.23	1.37672
6609.67	1.37669
6591.11	1.37666
6572.55	1.37663
6553.99	1.3766
6535.42	1.37657
6516.86	1.37654
6498.3	1.37651
6479.74	1.37648
6461.18	1.37644
6442.61	1.37641
6424.05	1.37637
6405.49	1.37634
6386.93	1.37629
6368.37	1.37625
6349.81	1.37621
6331.24	1.37617
6312.68	1.37612
6294.12	1.37606
6275.56	1.376
6257	1.37593
6238.44	1.37586
6219.87	1.37578
6201.31	1.37573
6182.75	1.37564
6164.19	1.37553
6145.63	1.37535
6127.06	1.37515
6108.5	1.3758
6089.94	1.37569
6071.38	1.37586
6052.82	1.37568
6034.26	1.37585
6015.69	1.37576
5997.13	1.37558
5978.57	1.37546
5960.01	1.37544
5941.45	1.37561
5922.89	1.37554
5904.32	1.3754
5885.76	1.37529
5867.2	1.37517
5848.64	1.37503
5830.08	1.37492
5811.51	1.37481
5792.95	1.3747
5774.39	1.37463
5755.83	1.37446
5737.27	1.37432
5718.71	1.37427
5700.14	1.37409
5681.58	1.37399
5663.02	1.37381
5644.46	1.37363
5625.9	1.37344
5607.34	1.37321
5588.77	1.37295
5570.21	1.37266
5551.65	1.37233
5533.09	1.37202
5514.53	1.37164
5495.96	1.37124
5477.4	1.37061
5458.84	1.36981
5440.28	1.36877
5421.72	1.36671
5403.16	1.36247
5384.59	1.37206
5366.03	1.37768
5347.47	1.3794
5328.91	1.37796
5310.35	1.37595
5291.79	1.3746
5273.22	1.37417
5254.66	1.37394
5236.1	1.37313
5217.54	1.37263
5198.98	1.37185
5180.41	1.37142
5161.85	1.3711
5143.29	1.3704
5124.73	1.36978
5106.17	1.3706
5087.61	1.3693
5069.04	1.36867
5050.48	1.36827
5031.92	1.36713
5013.36	1.36674
4994.8	1.36591
4976.24	1.36472
4957.67	1.36361
4939.11	1.3623
4920.55	1.36097
4901.99	1.35935
4883.43	1.35781
4864.86	1.3557
4846.3	1.353
4827.74	1.34996
4809.18	1.34602
4790.62	1.34074
4772.06	1.33362
4753.49	1.3232
4734.93	1.30735
4716.37	1.27735
4697.81	1.19951
4679.25	1.10808
4660.69	1.53583
4642.12	1.4213
4623.56	1.38634
4605	1.36893
4586.44	1.40628
4567.88	1.44254
4549.31	1.43928
4530.75	1.41724
4512.19	1.42498
4493.63	1.40893
4475.07	1.39064
4456.51	1.40423
4437.94	1.42329
4419.38	1.40731
4400.82	1.39218
4382.26	1.40643
4363.7	1.39479
4345.14	1.37351
4326.57	1.41871
4308.01	1.39057
4289.45	1.408
4270.89	1.3972
4252.33	1.38927
4233.76	1.38148
4215.2	1.37127
4196.64	1.43166
4178.08	1.41673
4159.52	1.40193
4140.96	1.42069
4122.39	1.41507
4103.83	1.41497
4085.27	3.93103e-06
4066.71	3.39942e-06
4048.15	3.39942e-06
4029.58	3.1112e-06
4011.02	3.54513e-06
3992.46	4.12318e-06
3973.9	2.45949e-06
3955.34	5.35292e-06
3936.78	9.21189e-06
3918.21	1.65664e-05
3899.65	1.91219e-05
3881.09	1.63006e-05
3862.53	2.19193e-05
3843.97	2.39208e-05
3825.41	2.4113e-05
3806.84	1.95559e-05
3788.28	1.54807e-05
3769.72	1.56008e-05
3751.16	1.28531e-05
3732.6	1.06338e-05
3714.03	8.53617e-06
3695.47	6.87249e-06
3676.91	7.21035e-06
3658.35	5.95659e-06
3639.79	4.12318e-06
3621.23	3.71326e-06
3602.66	4.00308e-06
3584.1	4.05112e-06
3565.54	3.78532e-06
3546.98	4.21925e-06
3528.42	4.36496e-06
3509.86	4.0271e-06
3491.29	3.39942e-06
3472.73	3.95505e-06
3454.17	4.24327e-06
3435.61	3.97906e-06
3417.05	4.29291e-06
3398.48	4.43702e-06
3379.92	4.31692e-06
3361.36	4.36496e-06
3342.8	4.82291e-06
3324.24	6.29445e-06
3305.68	9.30797e-06
3287.11	8.826e-06
3268.55	9.98369e-06
3249.99	1.57946e-05
3231.43	3.66522e-05
3212.87	8.63273e-05
3194.31	0.00022064
3175.74	0.000200868
3157.18	0.000149988
3138.62	0.00017579
3120.06	0.000243549
3101.5	0.000207619
3082.93	0.000124185
3064.37	8.87387e-05
3045.81	7.01708e-05
3027.25	4.29227e-05
3008.69	3.93055e-05
2990.13	4.62981e-05
2971.56	4.82275e-05
2953	4.0753e-05
2934.44	3.88235e-05
2915.88	3.27949e-05
2897.32	3.01416e-05
2878.76	3.15891e-05
2860.19	2.72482e-05
2841.63	3.01416e-05
2823.07	3.7376e-05
2804.51	3.6412e-05
2785.95	3.15891e-05
2767.38	3.35186e-05
2748.82	3.03834e-05
2730.26	3.40006e-05
2711.7	4.38866e-05
2693.14	3.20711e-05
2674.58	3.61703e-05
2656.01	4.79858e-05
2637.45	3.54465e-05
2618.89	2.94195e-05
2600.33	3.13473e-05
2581.77	3.59301e-05
2563.21	4.75038e-05
2544.64	7.61995e-05
2526.08	0.000129974
2507.52	0.000225705
2488.96	0.000265251
2470.4	0.000354473
2451.83	0.000462984
2433.27	0.0012298
2414.71	0.00206173
2396.15	0.00132385
2377.59	0.00161321
2359.03	0.000974195
2340.46	0.00159874
2321.9	0.000783698
2303.34	0.000581142
2284.78	0.000776464
2266.22	0.000848804
2247.66	0.00139136
2229.09	0.000624547
2210.53	0.00036894
2191.97	0.000327947
2173.41	0.000231974
2154.85	0.000188329
2136.28	0.000230528
2117.72	0.000265251
2099.16	0.000265251
2080.6	0.000284542
2062.04	0.000178441
2043.48	0.000327947
2024.91	0.000347239
2006.35	0.000272485
1987.79	0.000371352
1969.23	0.000255606
1950.67	0.000255606
1932.11	0.000258018
1913.54	0.000227634
1894.98	0.000258018
1876.42	0.000318301
1857.86	0.00047263
1839.3	0.000670363
1820.73	0.000959728
1802.17	0.00120569
1783.61	0.00141065
1765.05	0.00206655
1746.49	0.00318302
1727.93	0.00506389
1709.36	0.0138172
1690.8	0.022257
1672.24	0.0299011
1653.68	0.0208102
1635.12	0.00721001
1616.56	0.00311068
1597.99	0.00248372
1579.43	0.00296599
1560.87	0.00209307
1542.31	0.00112611
1523.75	0.00140583
1505.18	0.000839158
1486.62	0.00142995
1468.06	0.00129491
1449.5	0.00128526
1430.94	0.00163732
1412.38	0.00477452
1393.81	0.00103689
1375.25	0.00137207
1356.69	0.00179889
1338.13	0.00075476
1319.57	0.00146853
1301.01	0.0011237
1282.44	0.000303834
1263.88	0.000460572
1245.32	0.000460572
1226.76	0.000503977
1208.2	0.000622135
1189.63	0.00139619
1171.07	0.000892209
1152.51	0.000494333
1133.95	0.0010176
1115.39	0.000554616
1096.83	0.000475041
1078.26	0.000872919
1059.7	0.00170002
1041.14	0.00484687
1022.58	0.0106824
1004.02	0.0378586
985.455	0.499155
966.894	0.267663
948.332	0.0607667
929.77	0.160356
911.208	0.0983841
892.647	0.194839
874.085	0.0660717
855.523	0.0347238
836.961	0.0342415
818.399	0.0282131
799.838	0.0092838
781.276	0.0158669
762.714	0.0745115
744.152	0.0352061
725.591	0.00822279
707.029	0.0125874
688.467	0.00901855
669.905	0.00294188
651.344	0.00938025
632.782	0.0523269
614.22	0.019918
595.658	0.0145165
577.096	0.00426813
558.535	0.01102
539.973	0.0232698
521.411	0.0585964
502.849	0.138654
484.288	0.0296599
465.726	0.0208825
447.164	0.0786109
428.602	0.0199421
410.041	0.0282131
