Infrared Spectrum: ETHANE, 1,1,2,2-TETRACHLORO-
Formula: C2 H2 Cl4
CAS: 79-34-5
State: SOLUTION (10% IN CCl4 FOR 3800-1330, 10% IN CS2 FOR 1330-450 CM^-^1)
Melting point: -42 C
Boiling point: 146 C
Class: COBLENTZ III
Instrument: DOW KBr FOREPRISM-GRATING
Instrument parameters: BLAZED AT 3.5, 12.0, 20.0 MICRON, CHANGED AT 5.0, 7.5, 14.9 MICRON
Sampling: TRANSMISSION
Path length: 0.011, 0.011 CM
Resolution: 4
Origin: DOW CHEMICAL COMPANY
1/CM	TRANSMITTANCE
453.423	0.893
461.879	0.897
470.336	0.899
478.792	0.902
487.249	0.903
495.705	0.905
504.161	0.906
512.618	0.905
521.074	0.902
529.53	0.896
537.987	0.795
546.443	0.3312
554.9	0.864
563.356	0.937
571.812	0.957
580.269	0.96
588.725	0.957
597.181	0.964
605.638	0.96
614.094	0.956
622.551	0.94
631.007	0.915
639.463	0.7792
647.92	0.3533
656.376	0.8519
664.832	0.954
673.289	0.966
681.745	0.969
690.202	0.96
698.658	0.915
707.114	0.7499
715.571	0.37
724.027	0.4481
732.484	0.1402
740.94	0.1049
749.396	0.2721
757.853	0.1309
766.309	0.778
774.765	0.759
783.222	0.534
791.678	0.048
800.135	0.0619
808.591	0.6068
817.047	0.82
825.504	0.905
833.96	0.924
842.416	0.874
850.873	0.816
859.329	0.837
867.786	0.878
876.242	0.913
884.698	0.954
893.155	0.988
901.611	1
910.067	1.007
918.524	1.017
926.98	1.014
935.437	1.02
943.893	1.021
952.349	1.014
960.806	1.002
969.262	0.994
977.719	0.992
986.175	1.002
994.631	0.997
1003.09	0.962
1011.54	0.818
1020	0.814
1028.46	0.89
1036.91	0.976
1045.37	0.992
1053.83	0.994
1062.28	0.988
1070.74	0.985
1079.2	0.985
1087.65	0.986
1096.11	0.998
1104.56	1.004
1113.02	1.001
1121.48	0.998
1129.93	0.998
1138.39	0.992
1146.85	0.991
1155.3	0.997
1163.76	0.983
1172.22	0.97
1180.67	0.858
1189.13	0.818
1197.58	0.643
1206.04	0.595
1214.5	0.683
1222.95	0.8959
1231.41	0.927
1239.87	0.8461
1248.32	0.924
1256.78	0.932
1265.24	0.916
1273.69	0.813
1282.15	0.7001
1290.6	0.932
1299.06	0.944
1307.52	0.959
1315.97	0.981
1324.43	0.983
1332.89	0.992
1341.34	0.989
1349.8	1.001
1358.26	1.014
1366.71	1.013
1375.17	1.014
1383.62	1.021
1392.08	1.013
1400.54	1.005
1408.99	0.992
1417.45	0.989
1425.91	0.989
1434.36	0.983
1442.82	0.972
1451.28	0.972
1459.73	0.967
1468.19	0.966
1476.64	0.954
1485.1	0.925
1493.56	0.884
1502.01	0.835
1510.47	0.778
1518.93	0.743
1527.38	0.699
1535.84	0.588
1544.3	0.513
1552.75	0.524
1561.21	0.601
1569.67	0.687
1578.12	0.706
1586.58	0.743
1595.03	0.823
1603.49	0.91
1611.95	0.96
1620.4	0.989
1628.86	1.004
1637.32	1.023
1645.77	1.03
1654.23	1.01
1662.69	1.004
1671.14	1.002
1679.6	1.005
1688.05	0.991
1696.51	0.995
1704.97	0.991
1713.42	0.991
1721.88	0.97
1730.34	0.978
1738.79	0.976
1747.25	0.989
1755.71	0.994
1764.16	1.002
1772.62	1.001
1781.07	0.998
1789.53	0.998
1797.99	0.998
1806.44	0.998
1814.9	0.991
1823.36	0.997
1831.81	0.997
1840.27	0.997
1848.73	0.992
1857.18	0.992
1865.64	0.998
1874.09	0.998
1882.55	1.001
1891.01	1.002
1899.46	1.001
1907.92	1.001
1916.38	1.002
1924.83	1.001
1933.29	1.001
1941.75	1.002
1950.2	1.001
1958.66	1
1967.11	1
1975.57	0.997
1984.03	0.995
1992.48	0.992
2000.94	0.989
2009.4	0.988
2017.85	0.991
2026.31	0.9938
2034.77	0.997
2043.22	0.997
2051.68	0.998
2060.14	1
2068.59	1.001
2077.05	0.998
2085.5	0.998
2093.96	0.998
2102.42	0.9984
2110.87	1
2119.33	1
2127.79	1.002
2136.24	1.002
2144.7	1.001
2153.16	1.001
2161.61	1
2170.07	1
2178.52	1
2186.98	1
2195.44	1
2203.89	1
2212.35	0.998
2220.81	0.997
2229.26	0.9964
2237.72	0.995
2246.18	0.992
2254.63	0.9895
2263.09	0.986
2271.54	0.983
2280	0.9807
2288.46	0.9767
2296.91	0.9729
2305.37	0.97
2313.83	0.9751
2322.28	0.9801
2330.74	0.983
2339.2	0.9885
2347.65	0.994
2356.11	1.001
2364.56	1.004
2373.02	1.0032
2381.48	0.9983
2389.93	0.9813
2398.39	0.9722
2406.85	0.97
2415.3	0.9758
2423.76	0.979
2432.22	0.9729
2440.67	0.97
2449.13	0.9769
2457.58	0.988
2466.04	0.9868
2474.5	0.983
2482.95	0.9769
2491.41	0.975
2499.87	0.9855
2508.32	0.986
2516.78	0.9821
2525.24	0.979
2533.69	0.9868
2542.15	0.992
2550.61	0.9873
2559.06	0.985
2567.52	0.9889
2575.97	0.992
2584.43	0.991
2592.89	0.992
2601.34	0.992
2609.8	0.989
2618.26	0.9893
2626.71	0.991
2635.17	0.991
2643.63	0.989
2652.08	0.991
2660.54	0.991
2668.99	0.989
2677.45	0.989
2685.91	0.989
2694.36	0.991
2702.82	0.988
2711.28	0.988
2719.73	0.9889
2728.19	0.989
2736.65	0.989
2745.1	0.989
2753.56	0.989
2762.01	0.989
2770.47	0.9904
2778.93	0.991
2787.38	0.989
2795.84	0.988
2804.3	0.989
2812.75	0.988
2821.21	0.989
2829.67	0.986
2838.12	0.983
2846.58	0.983
2855.03	0.979
2863.49	0.9809
2871.95	0.9814
2880.4	0.9848
2888.86	0.985
2897.32	0.9822
2905.77	0.979
2914.23	0.979
2922.69	0.9745
2931.14	0.9675
2939.6	0.969
2948.05	0.9714
2956.51	0.9687
2964.97	0.9634
2973.42	0.954
2981.88	0.9315
2990.34	0.8278
2998.79	0.7567
3007.25	0.82
3015.71	0.8445
3024.16	0.9148
3032.62	0.944
3041.08	0.9594
3049.53	0.9677
3057.99	0.976
3066.44	0.9796
3074.9	0.9828
3083.36	0.986
3091.81	0.9887
3100.27	0.9912
3108.73	0.9964
3117.18	0.998
3125.64	1
3134.1	1.001
3142.55	1.001
3151.01	1.001
3159.46	1.002
3167.92	1.004
3176.38	1.007
3184.83	1.007
3193.29	1.0031
3201.75	1.004
3210.2	1.007
3218.66	1.007
3227.12	1.007
3235.57	1.0105
3244.03	1.011
3252.48	1.01
3260.94	1.0102
3269.4	1.013
3277.85	1.013
3286.31	1.014
3294.77	1.014
3303.22	1.016
3311.68	1.017
3320.14	1.017
3328.59	1.017
3337.05	1.016
3345.5	1.016
3353.96	1.016
3362.42	1.018
3370.87	1.02
3379.33	1.018
3387.79	1.018
3396.24	1.021
3404.7	1.024
3413.16	1.023
3421.61	1.021
3430.07	1.02
3438.52	1.018
3446.98	1.014
3455.44	1.011
3463.89	1.01
3472.35	1.0098
3480.81	1.007
3489.26	1.0049
3497.72	1.0029
3506.18	1.001
3514.63	1.0005
3523.09	1
3531.55	1
3540	0.998
3548.46	0.997
3556.91	0.998
3565.37	1
3573.83	1.001
3582.28	1
3590.74	0.998
3599.2	0.998
3607.65	1
3616.11	1
3624.57	0.998
3633.02	0.998
3641.48	0.997
3649.93	0.995
3658.39	0.995
3666.85	0.997
3675.3	0.997
3683.76	0.997
3692.22	0.998
3700.67	0.9971
3709.13	0.9898
3717.59	0.989
3726.04	0.997
3734.5	0.9997
3742.95	1
3751.41	1
3759.87	0.9977
3768.32	0.995
3776.78	0.9858
3785.24	0.9763
3793.69	0.9722
