Infrared Spectrum: N-ETHYL-P-TOLUENE SULFONAMIDE
Formula: C9 H13 N O2 S
CAS: 80-39-7
State: SOLID (MINERAL OIL MULL)
Melting point: 62-65 C
Class: COBLENTZ
Instrument: Not specified, most likely a prism, grating, or hybrid spectrometer.
Sampling: TRANSMISSION
Resolution: 4
Origin: WYANDOTTE CHEMICALS CORP., WYANDOTTE, MICHIGAN, USA
MICROMETERS	TRANSMITTANCE
2.041	0.429
2.08186	0.429
2.12271	0.432
2.16357	0.434
2.20442	0.427
2.24528	0.429
2.28614	0.432
2.32699	0.438
2.36785	0.441
2.4087	0.456
2.44956	0.473
2.49042	0.475
2.53127	0.48
2.57213	0.517
2.61298	0.5
2.65384	0.526
2.6947	0.529
2.73555	0.529
2.77641	0.524
2.81726	0.529
2.85812	0.533
2.89898	0.524
2.93983	0.521
2.98069	0.522
3.02154	0.38
3.0624	0.101
3.10326	0.118
3.14411	0.215
3.18497	0.298
3.22582	0.348
3.26668	0.29
3.30754	0.256
3.34839	0.052
3.38925	0.032
3.4301	0.035
3.47096	0.037
3.51182	0.057
3.55267	0.388
3.59353	0.526
3.63438	0.558
3.67524	0.544
3.7161	0.584
3.75695	0.604
3.79781	0.626
3.83866	0.626
3.87952	0.624
3.92038	0.665
3.96123	0.691
4.00209	0.701
4.04294	0.697
4.0838	0.679
4.12466	0.685
4.16551	0.702
4.20637	0.696
4.24722	0.68
4.28808	0.711
4.32894	0.733
4.36979	0.769
4.41065	0.76
4.4515	0.769
4.49236	0.772
4.53322	0.775
4.57407	0.787
4.61493	0.801
4.65578	0.816
4.69664	0.825
4.73749	0.843
4.77835	0.85
4.81921	0.855
4.86006	0.862
4.90092	0.869
4.94177	0.874
4.98263	0.876
5.02349	0.882
5.06434	0.889
5.1052	0.889
5.14605	0.889
5.18691	0.887
5.22777	0.745
5.26862	0.85
5.30948	0.898
5.35033	0.906
5.39119	0.938
5.43205	0.92
5.4729	0.938
5.51376	0.933
5.55461	0.799
5.59547	0.918
5.63633	0.915
5.67718	0.891
5.71804	0.886
5.75889	0.933
5.79975	0.906
5.84061	0.906
5.88146	0.94
5.92232	0.908
5.96317	0.913
6.00403	0.825
6.04489	0.838
6.08574	0.879
6.1266	0.867
6.16745	0.806
6.20831	0.315
6.24917	0.567
6.29002	0.66
6.33088	0.718
6.37173	0.752
6.41259	0.758
6.45345	0.77
6.4943	0.748
6.53516	0.728
6.57601	0.696
6.61687	0.614
6.65773	0.283
6.69858	0.373
6.73944	0.202
6.78029	0.106
6.82115	0.064
6.86201	0.044
6.90286	0.081
6.94372	0.11
6.98457	0.089
7.02543	0.089
7.06629	0.142
7.10714	0.237
7.148	0.308
7.18885	0.22
7.22971	0.22
7.27057	0.37
7.31142	0.39
7.35228	0.348
7.39313	0.183
7.43399	0.112
7.47485	0.105
7.5157	0.056
7.55656	0.037
7.59741	0.05
7.63827	0.062
7.67913	0.106
7.71998	0.089
7.76084	0.118
7.80169	0.173
7.84255	0.222
7.88341	0.331
7.92426	0.398
7.96512	0.439
8.00597	0.461
8.04683	0.482
8.08769	0.49
8.12854	0.494
8.1694	0.485
8.21025	0.477
8.25111	0.466
8.29197	0.432
8.33282	0.392
8.37368	0.258
8.41453	0.191
8.45539	0.181
8.49625	0.12
8.5371	0.052
8.57796	0.039
8.61881	0.039
8.65967	0.04
8.70053	0.044
8.74138	0.062
8.78224	0.105
8.82309	0.14
8.86395	0.1
8.90481	0.064
8.94566	0.11
8.98652	0.12
9.02737	0.096
9.06823	0.066
9.10909	0.042
9.14994	0.105
9.1908	0.283
9.23165	0.436
9.27251	0.488
9.31337	0.441
9.35422	0.336
9.39508	0.198
9.43593	0.152
9.47679	0.281
9.51765	0.385
9.5585	0.431
9.59936	0.5
9.64021	0.597
9.68107	0.682
9.72193	0.733
9.76278	0.58
9.80364	0.711
9.84449	0.801
9.88535	0.837
9.9262	0.848
9.96706	0.862
10.0079	0.893
10.0488	0.908
10.0896	0.896
10.1305	0.862
10.1713	0.845
10.2122	0.823
10.2531	0.786
10.2939	0.699
10.3348	0.663
10.3756	0.578
10.4165	0.451
10.4573	0.258
10.4982	0.127
10.539	0.079
10.5799	0.156
10.6208	0.305
10.6616	0.488
10.7025	0.663
10.7433	0.787
10.7842	0.872
10.825	0.928
10.8659	0.957
10.9067	0.984
10.9476	1.003
10.9885	1.011
11.0293	1.011
11.0702	1.01
11.111	1.005
11.1519	0.986
11.1927	0.943
11.2336	0.881
11.2745	0.801
11.3153	0.706
11.3562	0.587
11.397	0.465
11.4379	0.368
11.4787	0.312
11.5196	0.322
11.5604	0.356
11.6013	0.4
11.6422	0.451
11.683	0.504
11.7239	0.556
11.7647	0.599
11.8056	0.638
11.8464	0.655
11.8873	0.628
11.9281	0.471
11.969	0.59
12.0099	0.691
12.0507	0.702
12.0916	0.684
12.1324	0.64
12.1733	0.56
12.2141	0.407
12.255	0.237
12.2959	0.081
12.3367	0.04
12.3776	0.074
12.4184	0.219
12.4593	0.37
12.5001	0.458
12.541	0.448
12.5818	0.507
12.6227	0.657
12.6636	0.736
12.7044	0.765
12.7453	0.769
12.7861	0.769
12.827	0.757
12.8678	0.747
12.9087	0.738
12.9495	0.724
12.9904	0.716
13.0313	0.702
13.0721	0.691
13.113	0.682
13.1538	0.66
13.1947	0.645
13.2355	0.633
13.2764	0.612
13.3173	0.589
13.3581	0.57
13.399	0.548
13.4398	0.522
13.4807	0.502
13.5215	0.48
13.5624	0.456
13.6032	0.436
13.6441	0.417
13.685	0.393
13.7258	0.368
13.7667	0.346
13.8075	0.32
13.8484	0.295
13.8892	0.281
13.9301	0.263
13.9709	0.252
14.0118	0.235
14.0527	0.205
14.0935	0.178
14.1344	0.144
14.1752	0.127
14.2161	0.161
14.2569	0.22
14.2978	0.252
14.3387	0.251
14.3795	0.23
14.4204	0.21
14.4612	0.203
14.5021	0.193
14.5429	0.185
14.5838	0.176
14.6246	0.171
14.6655	0.168
14.7064	0.166
14.7472	0.161
14.7881	0.161
14.8289	0.164
14.8698	0.162
14.9106	0.162
14.9515	0.169
14.9923	0.195
15.0332	0.217
15.0741	0.224
15.1149	0.21
15.1558	0.207
15.1966	0.227
15.2375	0.249
15.2783	0.268
15.3192	0.292
15.3601	0.317
15.4009	0.344
15.4418	0.378
15.4826	0.405
15.5235	0.429
15.5643	0.438
15.6052	0.444
15.646	0.446
15.6869	0.443
15.7278	0.446
15.7686	0.443
15.8095	0.439
15.8503	0.436
15.8912	0.429
15.932	0.431
15.9729	0.434
