Infrared Spectrum: Dicumyl peroxide
Formula: C 18 H 22 O 2
CAS: 80-43-3
State: solid
Instrument: Bruker Tensor 37 FTIR
Resolution: 0.96450084
Origin: Pacific Northwest National Laboratory Under IARPA Contract
1/cm	Reflectance
7498.03	0.539264
7480.67	0.519078
7463.31	0.442893
7445.95	0.399432
7428.59	0.330283
7411.23	0.348148
7393.87	0.339267
7376.51	0.305555
7359.15	0.332
7341.79	0.314662
7324.43	0.357326
7307.07	0.390659
7289.71	0.408179
7272.35	0.412762
7254.99	0.418756
7237.63	0.401439
7220.27	0.412534
7202.91	0.438392
7185.55	0.432324
7168.19	0.470512
7150.83	0.470595
7133.47	0.450161
7116.11	0.471233
7098.75	0.46846
7081.39	0.494559
7064.03	0.520834
7046.67	0.538726
7029.31	0.546708
7011.96	0.545216
6994.6	0.542418
6977.24	0.54599
6959.88	0.543715
6942.52	0.531943
6925.16	0.516567
6907.8	0.501878
6890.44	0.474136
6873.08	0.437863
6855.72	0.410775
6838.36	0.352733
6821	0.275774
6803.64	0.19688
6786.28	0.195406
6768.92	0.133873
6751.56	0.0812597
6734.2	0.0567282
6716.84	0.0501323
6699.48	0.0590353
6682.12	0.106728
6664.76	0.145881
6647.4	0.128144
6630.04	0.12323
6612.68	0.175618
6595.32	0.202923
6577.96	0.140309
6560.6	0.223953
6543.24	0.240736
6525.88	0.245698
6508.52	0.25887
6491.16	0.276655
6473.8	0.279834
6456.44	0.291551
6439.08	0.28266
6421.72	0.255588
6404.36	0.268836
6387	0.285061
6369.64	0.289581
6352.28	0.289946
6334.92	0.29637
6317.56	0.297368
6300.2	0.317128
6282.84	0.285922
6265.48	0.296468
6248.12	0.284065
6230.76	0.28001
6213.4	0.27249
6196.04	0.257188
6178.68	0.265756
6161.32	0.237847
6143.97	0.235827
6126.61	0.203811
6109.25	0.161125
6091.89	0.0793528
6074.53	0.0653126
6057.17	0.0435551
6039.81	0.0764729
6022.45	0.0739695
6005.09	0.0739234
5987.73	0.0815878
5970.37	0.046179
5953.01	0.0439428
5935.65	0.0447734
5918.29	0.0468715
5900.93	0.0538141
5883.57	0.0493292
5866.21	0.0449061
5848.85	0.0424215
5831.49	0.0395356
5814.13	0.0398848
5796.77	0.0407582
5779.41	0.0377006
5762.05	0.0425879
5744.69	0.0456882
5727.33	0.0566634
5709.97	0.0496918
5692.61	0.059642
5675.25	0.0579399
5657.89	0.0680272
5640.53	0.0516143
5623.17	0.0632795
5605.81	0.0593573
5588.45	0.0710728
5571.09	0.0510836
5553.73	0.078457
5536.37	0.0959344
5519.01	0.0828193
5501.65	0.0815016
5484.29	0.0683519
5466.93	0.0678542
5449.57	0.0691017
5432.21	0.0657195
5414.85	0.0564456
5397.49	0.0479631
5380.13	0.0446122
5362.77	0.0387891
5345.41	0.037412
5328.05	0.03749
5310.69	0.0362575
5293.33	0.0336749
5275.97	0.0333949
5258.62	0.0331822
5241.26	0.0327454
5223.9	0.0332046
5206.54	0.0335325
5189.18	0.0335531
5171.82	0.0350025
5154.46	0.0396942
5137.1	0.0461965
5119.74	0.0517828
5102.38	0.0534215
5085.02	0.0599097
5067.66	0.0471698
5050.3	0.0402903
5032.94	0.0483336
5015.58	0.0511335
4998.22	0.0611682
4980.86	0.0712656
4963.5	0.0578073
4946.14	0.0753957
4928.78	0.0526146
4911.42	0.0694829
4894.06	0.0424826
4876.7	0.0440893
4859.34	0.071886
4841.98	0.0619306
4824.62	0.0703541
4807.26	0.0758211
4789.9	0.0440859
4772.54	0.0551343
4755.18	0.0566911
4737.82	0.0342711
4720.46	0.0436531
4703.1	0.03433
4685.74	0.0390705
4668.38	0.034817
4651.02	0.041861
4633.66	0.0339955
4616.3	0.0403661
4598.94	0.0332884
4581.58	0.0429442
4564.22	0.0350893
4546.86	0.0351519
4529.5	0.0341289
4512.14	0.0335916
4494.78	0.0310925
4477.42	0.0284941
4460.06	0.0313161
4442.7	0.029184
4425.34	0.0319604
4407.98	0.0302385
4390.63	0.0290382
4373.27	0.0318316
4355.91	0.0295868
4338.55	0.0281598
4321.19	0.0318432
4303.83	0.0293947
4286.47	0.0299208
4269.11	0.0313395
4251.75	0.0319719
4234.39	0.0317275
4217.03	0.0276041
4199.67	0.030914
4182.31	0.0261798
4164.95	0.0323272
4147.59	0.0298409
4130.23	0.0369131
4112.87	0.0284618
4095.51	0.0365405
4078.15	0.0357243
4060.79	0.0400269
4043.43	0.53585
4026.07	0.487304
4008.71	0.421874
3991.35	0.40663
3973.99	0.345416
3956.63	0.331424
3939.27	0.344318
3921.91	0.286837
3904.55	0.345199
3887.19	0.330621
3869.83	0.374679
3852.47	0.406493
3835.11	0.401249
3817.75	0.41669
3800.39	0.421971
3783.03	0.403404
3765.67	0.414023
3748.31	0.439645
3730.95	0.445945
3713.59	0.477345
3696.23	0.470615
3678.87	0.457202
3661.51	0.479216
3644.15	0.482311
3626.79	0.502522
3609.43	0.53346
3592.07	0.541412
3574.71	0.544836
3557.35	0.548217
3539.99	0.547563
3522.64	0.546199
3505.28	0.541765
3487.92	0.529362
3470.56	0.516549
3453.2	0.491952
3435.84	0.463871
3418.48	0.439622
3401.12	0.4024
3383.76	0.288473
3366.4	0.259762
3349.04	0.196466
3331.68	0.200819
3314.32	0.103669
3296.96	0.0724818
3279.6	0.0706374
3262.24	0.0653727
3244.88	0.0779347
3227.52	0.130894
3210.16	0.145666
3192.8	0.105418
3175.44	0.136152
3158.08	0.190947
3140.72	0.207202
3123.36	0.180293
3106	0.246746
3088.64	0.239535
3071.28	0.258156
3053.92	0.27057
3036.56	0.287418
3019.2	0.288484
3001.84	0.290237
2984.48	0.287051
2967.12	0.270207
2949.76	0.285584
2932.4	0.295027
2915.04	0.293369
2897.68	0.297075
2880.32	0.301937
2862.96	0.302893
2845.6	0.311037
2828.24	0.289778
2810.88	0.295774
2793.52	0.28977
2776.16	0.287595
2758.8	0.266557
2741.44	0.280339
2724.08	0.269434
2706.72	0.250474
2689.36	0.22906
2672	0.205899
2654.64	0.137312
2637.29	0.0441957
2619.93	0.0785103
2602.57	0.0615364
2585.21	0.0615847
2567.85	0.0901948
2550.49	0.0855796
2533.13	0.0648927
2515.77	0.0463283
2498.41	0.040463
2481.05	0.0417749
2463.69	0.04007
2446.33	0.0549581
2428.97	0.0494357
2411.61	0.0475729
2394.25	0.0450348
2376.89	0.0408872
2359.53	0.0434727
2342.17	0.0394521
2324.81	0.0389569
2307.45	0.0484445
2290.09	0.0465831
2272.73	0.0593121
2255.37	0.046482
2238.01	0.0634176
2220.65	0.0669556
2203.29	0.0609262
2185.93	0.0515551
2168.57	0.0637115
2151.21	0.0661786
2133.85	0.0790504
2116.49	0.0770309
2099.13	0.0977904
2081.77	0.0792436
2064.41	0.0777377
2047.05	0.0818096
2029.69	0.069694
2012.33	0.0659538
1994.97	0.0765584
1977.61	0.0602346
1960.25	0.06102
1942.89	0.0452937
1925.53	0.0423758
1908.17	0.0388189
1890.81	0.0377525
1873.45	0.0377704
1856.09	0.035408
1838.73	0.0343657
1821.37	0.0336386
1804.01	0.0330281
1786.65	0.0353368
1769.3	0.0337215
1751.94	0.034044
1734.58	0.0341809
1717.22	0.0368647
1699.86	0.0405842
1682.5	0.0485154
1665.14	0.0537085
1647.78	0.0617884
1630.42	0.0620255
1613.06	0.0432649
1595.7	0.0467452
1578.34	0.0487294
1560.98	0.0477575
1543.62	0.0848361
1526.26	0.0663842
1508.9	0.0609499
1491.54	0.068126
1474.18	0.0477768
1456.82	0.0413628
1439.46	0.0472678
1422.1	0.0723659
1404.74	0.0771942
1387.38	0.0867735
1370.02	0.0871852
1352.66	0.0662921
1335.3	0.0528837
1317.94	0.0571847
1300.58	0.0608972
1283.22	0.0345761
1265.86	0.0463362
1248.5	0.0332716
1231.14	0.0458983
1213.78	0.0338673
1196.42	0.0371532
1179.06	0.03322
1161.7	0.0407158
1144.34	0.0335038
1126.98	0.0416713
1109.62	0.031266
1092.26	0.0325102
1074.9	0.0319388
1057.54	0.0314011
1040.18	0.029915
1022.82	0.0319981
1005.46	0.0306917
988.104	0.0309355
970.744	0.0320139
953.384	0.0300855
936.025	0.0273847
918.665	0.0299919
901.305	0.0279933
883.945	0.0265072
866.585	0.0304493
849.226	0.0305119
831.866	0.0314437
814.506	0.0297701
797.146	0.0307855
779.786	0.0315283
762.427	0.0278097
745.067	0.0288397
727.707	0.0296119
710.347	0.029995
692.987	0.0259995
675.628	0.0309123
658.268	0.0230547
640.908	0.0329503
623.548	0.0411575
606.188	0.0342037
