Infrared Spectrum: Alpha PINENE
Formula: C10 H16
CAS: 80-56-8
Class: COBLENTZ
Instrument: Not specified, most likely a prism, grating, or hybrid spectrometer.
Sampling: TRANSMISSION
Resolution: 4
Origin: INTERNATIONAL FLAVORS & FRAGRANCES, INC.
MICROMETERS	TRANSMITTANCE
2.021	0.901
2.05725	0.901
2.0935	0.901
2.12976	0.9001
2.16601	0.9
2.20226	0.898
2.23851	0.8859
2.27476	0.8543
2.31102	0.8359
2.34727	0.854
2.38352	0.8649
2.41977	0.8708
2.45602	0.868
2.49228	0.875
2.52853	0.875
2.56478	0.878
2.60103	0.8859
2.63729	0.8921
2.67354	0.901
2.70979	0.901
2.74604	0.903
2.78229	0.907
2.81855	0.904
2.8548	0.9003
2.89105	0.897
2.9273	0.8969
2.96355	0.8939
2.99981	0.891
3.03606	0.889
3.07231	0.889
3.10856	0.8831
3.14481	0.8563
3.18107	0.833
3.21732	0.8241
3.25357	0.6939
3.28982	0.4232
3.32607	0.1745
3.36233	0.0459
3.39858	0.033
3.43483	0.0329
3.47108	0.0773
3.50733	0.226
3.54359	0.7019
3.57984	0.8201
3.61609	0.8408
3.65234	0.8072
3.6886	0.8635
3.72485	0.8811
3.7611	0.8747
3.79735	0.886
3.8336	0.897
3.86986	0.898
3.90611	0.901
3.94236	0.9
3.97861	0.903
4.01486	0.903
4.05112	0.904
4.08737	0.907
4.12362	0.9117
4.15987	0.913
4.19612	0.912
4.23238	0.91
4.26863	0.9132
4.30488	0.9189
4.34113	0.924
4.37738	0.919
4.41364	0.9219
4.44989	0.924
4.48614	0.9162
4.52239	0.916
4.55865	0.9239
4.5949	0.922
4.63115	0.918
4.6674	0.922
4.70365	0.9268
4.73991	0.924
4.77616	0.925
4.81241	0.9211
4.84866	0.925
4.88491	0.922
4.92117	0.927
4.95742	0.928
4.99367	0.9191
5.02992	0.931
5.06617	0.93
5.10243	0.928
5.13868	0.93
5.17493	0.933
5.21118	0.933
5.24743	0.933
5.28369	0.928
5.31994	0.928
5.35619	0.9276
5.39244	0.921
5.42869	0.9204
5.46495	0.9224
5.5012	0.928
5.53745	0.9279
5.5737	0.924
5.60996	0.922
5.64621	0.921
5.68246	0.9214
5.71871	0.9097
5.75496	0.9128
5.79122	0.9114
5.82747	0.9167
5.86372	0.913
5.89997	0.9079
5.93622	0.8956
5.97248	0.8707
6.00873	0.7951
6.04498	0.8698
6.08123	0.881
6.11748	0.881
6.15374	0.8815
6.18999	0.8828
6.22624	0.878
6.26249	0.88
6.29874	0.8708
6.335	0.847
6.37125	0.863
6.4075	0.8846
6.44375	0.894
6.48	0.9004
6.51626	0.8978
6.55251	0.894
6.58876	0.8862
6.62501	0.8774
6.66127	0.852
6.69752	0.7908
6.73377	0.6796
6.77002	0.4182
6.80627	0.4131
6.84253	0.4163
6.87878	0.2648
6.91503	0.2369
6.95128	0.3001
6.98753	0.4647
7.02379	0.6611
7.06004	0.7485
7.09629	0.7846
7.13254	0.794
7.16879	0.7832
7.20505	0.4999
7.2413	0.4298
7.27755	0.509
7.3138	0.2808
7.35005	0.6894
7.38631	0.7935
7.42256	0.821
7.45881	0.7541
7.49506	0.6798
7.53132	0.6553
7.56757	0.8295
7.60382	0.854
7.64007	0.8501
7.67632	0.8536
7.71258	0.8677
7.74883	0.874
7.78508	0.8713
7.82133	0.861
7.85758	0.8121
7.89384	0.6511
7.93009	0.6886
7.96634	0.8045
8.00259	0.8324
8.03884	0.859
8.0751	0.8683
8.11135	0.8643
8.1476	0.8125
8.18385	0.6298
8.2201	0.6116
8.25636	0.6789
8.29261	0.6411
8.32886	0.6263
8.36511	0.8125
8.40136	0.8448
8.43762	0.8177
8.47387	0.7669
8.51012	0.8275
8.54637	0.8282
8.58263	0.68
8.61888	0.8244
8.65513	0.8712
8.69138	0.8854
8.72763	0.894
8.76389	0.895
8.80014	0.8878
8.83639	0.8364
8.87264	0.646
8.90889	0.6827
8.94515	0.8417
8.9814	0.863
9.01765	0.8422
9.0539	0.7815
9.09015	0.7202
9.12641	0.7848
9.16266	0.803
9.19891	0.7309
9.23516	0.6846
9.27141	0.8175
9.30767	0.8625
9.34392	0.863
9.38017	0.8194
9.41642	0.7203
9.45267	0.8322
9.48893	0.8636
9.52518	0.8647
9.56143	0.8354
9.59768	0.7921
9.63394	0.8259
9.67019	0.835
9.70644	0.8434
9.74269	0.8544
9.77894	0.8327
9.8152	0.744
9.85145	0.5575
9.8877	0.7096
9.92395	0.8388
9.9602	0.8704
9.99646	0.88
10.0327	0.8624
10.069	0.8845
10.1052	0.8987
10.1415	0.906
10.1777	0.907
10.214	0.907
10.2502	0.903
10.2865	0.901
10.3227	0.8895
10.359	0.8715
10.3952	0.813
10.4315	0.7388
10.4677	0.7116
10.504	0.6413
10.5402	0.777
10.5765	0.8425
10.6127	0.866
10.649	0.868
10.6852	0.877
10.7215	0.8742
10.7577	0.8128
10.794	0.7614
10.8303	0.8461
10.8665	0.8831
10.9028	0.901
10.939	0.9069
10.9753	0.907
11.0115	0.8972
11.0478	0.8644
11.084	0.8731
11.1203	0.8873
11.1565	0.8838
11.1928	0.8632
11.229	0.7903
11.2653	0.5939
11.3015	0.5577
11.3378	0.695
11.374	0.7518
11.4103	0.7841
11.4465	0.8428
11.4828	0.8842
11.519	0.9014
11.5553	0.9103
11.5915	0.9162
11.6278	0.921
11.6641	0.921
11.7003	0.918
11.7366	0.9152
11.7728	0.915
11.8091	0.9003
11.8453	0.869
11.8816	0.8308
11.9178	0.8569
11.9541	0.8905
11.9903	0.9094
12.0266	0.912
12.0628	0.913
12.0991	0.912
12.1353	0.912
12.1716	0.9087
12.2078	0.9009
12.2441	0.897
12.2803	0.897
12.3166	0.894
12.3528	0.889
12.3891	0.8786
12.4253	0.8665
12.4616	0.8429
12.4978	0.8145
12.5341	0.7646
12.5704	0.6961
12.6066	0.5435
12.6429	0.3018
12.6791	0.1482
12.7154	0.1546
12.7516	0.3496
12.7879	0.5281
12.8241	0.6312
12.8604	0.6924
12.8966	0.698
12.9329	0.6387
12.9691	0.5961
13.0054	0.6346
13.0416	0.714
13.0779	0.7896
13.1141	0.8287
13.1504	0.8511
13.1866	0.8641
13.2229	0.8735
13.2591	0.8804
13.2954	0.8818
13.3316	0.886
13.3679	0.891
13.4042	0.888
13.4404	0.8852
13.4767	0.886
13.5129	0.886
13.5492	0.886
13.5854	0.886
13.6217	0.8859
13.6579	0.885
13.6942	0.881
13.7304	0.88
13.7667	0.878
13.8029	0.872
13.8392	0.869
13.8754	0.869
13.9117	0.868
13.9479	0.868
13.9842	0.865
14.0204	0.862
14.0567	0.86
14.0929	0.857
14.1292	0.853
14.1654	0.854
14.2017	0.8498
14.2379	0.8449
14.2742	0.841
14.3105	0.836
14.3467	0.8302
14.383	0.8262
14.4192	0.8212
14.4555	0.8165
14.4917	0.8123
14.528	0.8078
14.5642	0.8034
14.6005	0.801
14.6367	0.7991
14.673	0.797
14.7092	0.795
14.7455	0.794
14.7817	0.794
14.818	0.794
14.8542	0.794
14.8905	0.794
14.9267	0.794
14.963	0.794
