Infrared Spectrum: Warfarin
Formula: C 19 H 16 O 4
CAS: 81-81-2
State: solid
Instrument: Bruker Tensor 37 FTIR
Resolution: 0.96450084
Origin: Pacific Northwest National Laboratory Under IARPA Contract
1/cm	Reflectance
7498.03	0.80551
7480.67	0.797665
7463.31	0.799047
7445.95	0.78954
7428.59	0.790801
7411.23	0.790307
7393.87	0.775607
7376.51	0.784055
7359.15	0.773337
7341.79	0.773661
7324.43	0.775646
7307.07	0.776174
7289.71	0.780992
7272.35	0.78505
7254.99	0.780741
7237.63	0.781911
7220.27	0.788285
7202.91	0.784104
7185.55	0.782857
7168.19	0.785683
7150.83	0.782953
7133.47	0.785523
7116.11	0.780891
7098.75	0.774791
7081.39	0.772364
7064.03	0.766862
7046.67	0.762803
7029.31	0.757628
7011.96	0.752956
6994.6	0.749507
6977.24	0.741436
6959.88	0.732842
6942.52	0.729812
6925.16	0.721716
6907.8	0.717864
6890.44	0.71246
6873.08	0.714563
6855.72	0.715922
6838.36	0.716426
6821	0.703859
6803.64	0.697859
6786.28	0.675943
6768.92	0.650991
6751.56	0.622187
6734.2	0.590836
6716.84	0.622915
6699.48	0.641826
6682.12	0.683805
6664.76	0.705672
6647.4	0.689891
6630.04	0.699598
6612.68	0.702669
6595.32	0.689771
6577.96	0.709569
6560.6	0.732521
6543.24	0.732841
6525.88	0.743204
6508.52	0.74047
6491.16	0.741929
6473.8	0.741576
6456.44	0.741093
6439.08	0.738132
6421.72	0.741037
6404.36	0.745697
6387	0.745581
6369.64	0.74239
6352.28	0.74569
6334.92	0.742749
6317.56	0.740744
6300.2	0.73647
6282.84	0.72579
6265.48	0.707226
6248.12	0.70305
6230.76	0.689162
6213.4	0.703466
6196.04	0.70338
6178.68	0.69969
6161.32	0.685337
6143.97	0.651294
6126.61	0.603966
6109.25	0.58598
6091.89	0.541254
6074.53	0.548631
6057.17	0.559271
6039.81	0.581402
6022.45	0.61547
6005.09	0.617129
5987.73	0.623779
5970.37	0.606271
5953.01	0.575523
5935.65	0.513821
5918.29	0.549996
5900.93	0.593367
5883.57	0.576627
5866.21	0.530276
5848.85	0.555089
5831.49	0.543712
5814.13	0.563483
5796.77	0.537648
5779.41	0.459334
5762.05	0.473596
5744.69	0.52591
5727.33	0.531613
5709.97	0.549131
5692.61	0.57381
5675.25	0.567368
5657.89	0.577876
5640.53	0.607485
5623.17	0.587214
5605.81	0.575728
5588.45	0.576116
5571.09	0.574881
5553.73	0.581772
5536.37	0.557373
5519.01	0.330059
5501.65	0.442526
5484.29	0.33635
5466.93	0.243947
5449.57	0.159996
5432.21	0.103432
5414.85	0.0820946
5397.49	0.05144
5380.13	0.0526455
5362.77	0.0836661
5345.41	0.119383
5328.05	0.157429
5310.69	0.207851
5293.33	0.148501
5275.97	0.180737
5258.62	0.13726
5241.26	0.204691
5223.9	0.218687
5206.54	0.190794
5189.18	0.244245
5171.82	0.222259
5154.46	0.288071
5137.1	0.314839
5119.74	0.356083
5102.38	0.366904
5085.02	0.371712
5067.66	0.354597
5050.3	0.314165
5032.94	0.30522
5015.58	0.350296
4998.22	0.317199
4980.86	0.356385
4963.5	0.401999
4946.14	0.3908
4928.78	0.386448
4911.42	0.351225
4894.06	0.419588
4876.7	0.444135
4859.34	0.479015
4841.98	0.453631
4824.62	0.431305
4807.26	0.43379
4789.9	0.409709
4772.54	0.435248
4755.18	0.433514
4737.82	0.336163
4720.46	0.258987
4703.1	0.35944
4685.74	0.32039
4668.38	0.335357
4651.02	0.284521
4633.66	0.301272
4616.3	0.138345
4598.94	0.0287092
4581.58	0.0748976
4564.22	0.0313526
4546.86	0.089258
4529.5	0.0890789
4512.14	0.194608
4494.78	0.0544454
4477.42	0.0596667
4460.06	0.145528
4442.7	0.0471154
4425.34	0.147813
4407.98	0.128073
4390.63	0.0471681
4373.27	0.0368627
4355.91	0.0713176
4338.55	0.0601413
4321.19	0.119463
4303.83	0.0462053
4286.47	0.0462768
4269.11	0.13373
4251.75	0.0579039
4234.39	0.251121
4217.03	0.247182
4199.67	0.0707734
4182.31	0.236377
4164.95	0.289153
4147.59	0.141219
4130.23	0.0465801
4112.87	0.165693
4095.51	0.0932851
4078.15	0.0810928
4060.79	0.122905
4043.43	0.806238
4026.07	0.802005
4008.71	0.799556
3991.35	0.79033
3973.99	0.788277
3956.63	0.788784
3939.27	0.779434
3921.91	0.784061
3904.55	0.776575
3887.19	0.78027
3869.83	0.782628
3852.47	0.781296
3835.11	0.786848
3817.75	0.787481
3800.39	0.783181
3783.03	0.789298
3765.67	0.789158
3748.31	0.788667
3730.95	0.789539
3713.59	0.792123
3696.23	0.789083
3678.87	0.787627
3661.51	0.783938
3644.15	0.781043
3626.79	0.77552
3609.43	0.771333
3592.07	0.768176
3574.71	0.762128
3557.35	0.757784
3539.99	0.750997
3522.64	0.746891
3505.28	0.739975
3487.92	0.734927
3470.56	0.729595
3453.2	0.724544
3435.84	0.723896
3418.48	0.725626
3401.12	0.72574
3383.76	0.722642
3366.4	0.710877
3349.04	0.701732
3331.68	0.676027
3314.32	0.65955
3296.96	0.618324
3279.6	0.609443
3262.24	0.640099
3244.88	0.645348
3227.52	0.70039
3210.16	0.714143
3192.8	0.701831
3175.44	0.69923
3158.08	0.70541
3140.72	0.701681
3123.36	0.733509
3106	0.741596
3088.64	0.74361
3071.28	0.748454
3053.92	0.747027
3036.56	0.749811
3019.2	0.750638
3001.84	0.750595
2984.48	0.748373
2967.12	0.750979
2949.76	0.753825
2932.4	0.751953
2915.04	0.752987
2897.68	0.754217
2880.32	0.750603
2862.96	0.747535
2845.6	0.741114
2828.24	0.730918
2810.88	0.704248
2793.52	0.709449
2776.16	0.702014
2758.8	0.713405
2741.44	0.71217
2724.08	0.705084
2706.72	0.685892
2689.36	0.647036
2672	0.602224
2654.64	0.594017
2637.29	0.538835
2619.93	0.564271
2602.57	0.573642
2585.21	0.595241
2567.85	0.630416
2550.49	0.643488
2533.13	0.634347
2515.77	0.598626
2498.41	0.587624
2481.05	0.511675
2463.69	0.568973
2446.33	0.599307
2428.97	0.575895
2411.61	0.556069
2394.25	0.544333
2376.89	0.565269
2359.53	0.561016
2342.17	0.523044
2324.81	0.467003
2307.45	0.509755
2290.09	0.530193
2272.73	0.534474
2255.37	0.56823
2238.01	0.581154
2220.65	0.579352
2203.29	0.596967
2185.93	0.60832
2168.57	0.597911
2151.21	0.586944
2133.85	0.590714
2116.49	0.588957
2099.13	0.588781
2081.77	0.551723
2064.41	0.466871
2047.05	0.42756
2029.69	0.31473
2012.33	0.222417
1994.97	0.148091
1977.61	0.0987836
1960.25	0.0747726
1942.89	0.045242
1925.53	0.0646915
1908.17	0.100153
1890.81	0.136209
1873.45	0.177782
1856.09	0.210032
1838.73	0.180662
1821.37	0.195576
1804.01	0.219388
1786.65	0.15294
1769.3	0.175854
1751.94	0.214198
1734.58	0.266262
1717.22	0.287567
1699.86	0.303802
1682.5	0.350177
1665.14	0.36415
1647.78	0.383301
1630.42	0.370744
1613.06	0.345773
1595.7	0.327749
1578.34	0.314713
1560.98	0.353475
1543.62	0.336998
1526.26	0.391704
1508.9	0.418999
1491.54	0.407275
1474.18	0.38083
1456.82	0.396732
1439.46	0.432443
1422.1	0.46647
1404.74	0.488271
1387.38	0.457041
1370.02	0.442662
1352.66	0.462089
1335.3	0.400974
1317.94	0.457387
1300.58	0.39721
1283.22	0.325276
1265.86	0.353955
1248.5	0.344497
1231.14	0.371238
1213.78	0.28437
1196.42	0.294478
1179.06	0.270472
1161.7	0.0774944
1144.34	0.0520582
1126.98	0.0782291
1109.62	0.0480148
1092.26	0.0969017
1074.9	0.167324
1057.54	0.173692
1040.18	0.170043
1022.82	0.0929681
1005.46	0.0859775
988.104	0.0693466
970.744	0.09037
953.384	0.105003
936.025	0.0630477
918.665	0.0920607
901.305	0.0826443
883.945	0.0458757
866.585	0.170483
849.226	0.058499
831.866	0.102963
814.506	0.090605
797.146	0.0623726
779.786	0.176006
762.427	0.125601
745.067	0.105929
727.707	0.289271
710.347	0.101789
692.987	0.115671
675.628	0.050541
658.268	0.122917
640.908	0.112118
623.548	0.0706605
606.188	0.150646
