Infrared Spectrum: 5-DECANONE
Formula: C10 H20 O
CAS: 820-29-1
State: LIQUID (NEAT, KBr PLATE VS. KBr PLATE)
Class: COBLENTZ II
Instrument: PERKIN-ELMER 521 (GRATING)
Instrument parameters: FILTERS AT 3150, 2500, 2000, 1150, 700, 410. GRATING CHANGES: 2000, 630 CM^-^1
Sampling: TRANSMISSION
Path length: CAPILLARY
Resolution: 2
Origin: STANDARD OIL OF OHIO
1/CM	TRANSMITTANCE
311.24	0.503
320.48	0.56
329.72	0.584
338.96	0.604
348.2	0.614
357.44	0.746
366.68	0.787
375.92	0.82
385.16	0.845
394.4	0.853
403.64	0.853
412.88	0.861
422.12	0.868
431.36	0.883
440.6	0.883
449.84	0.869
459.08	0.85
468.32	0.856
477.56	0.874
486.8	0.911
496.04	0.93
505.28	0.932
514.52	0.93
523.76	0.919
533	0.911
542.24	0.91
551.48	0.919
560.72	0.944
569.96	0.96
579.2	0.965
588.44	0.965
597.68	0.96
606.92	0.941
616.16	0.912
625.4	0.885
634.64	0.868
643.88	0.893
653.12	0.915
662.36	0.912
671.6	0.926
680.84	0.932
690.08	0.918
699.32	0.906
708.56	0.778
717.8	0.671
727.04	0.501
736.28	0.54
745.52	0.662
754.76	0.741
764	0.8
773.24	0.828
782.48	0.836
791.72	0.885
800.96	0.912
810.2	0.912
819.44	0.899
828.68	0.889
837.92	0.874
847.16	0.877
856.4	0.906
865.64	0.903
874.88	0.878
884.12	0.844
893.36	0.802
902.6	0.751
911.84	0.759
921.08	0.761
930.32	0.79
939.56	0.794
948.8	0.782
958.04	0.716
967.28	0.695
976.52	0.682
985.76	0.699
995	0.692
1004.24	0.7
1013.48	0.693
1022.72	0.551
1031.96	0.42
1041.2	0.358
1050.44	0.288
1059.68	0.398
1068.92	0.5
1078.16	0.596
1087.4	0.686
1096.64	0.711
1105.88	0.663
1115.12	0.44
1124.36	0.265
1133.6	0.183
1142.84	0.395
1152.08	0.451
1161.32	0.432
1170.56	0.51
1179.8	0.627
1189.04	0.631
1198.28	0.577
1207.52	0.546
1216.76	0.559
1226	0.565
1235.24	0.531
1244.48	0.482
1253.72	0.478
1262.96	0.519
1272.2	0.56
1281.44	0.527
1290.68	0.476
1299.92	0.469
1309.16	0.465
1318.4	0.463
1327.64	0.452
1336.88	0.372
1346.12	0.275
1355.36	0.193
1364.6	0.114
1373.84	0.088
1383.08	0.122
1392.32	0.349
1401.56	0.221
1410.8	0.121
1420.04	0.241
1429.28	0.313
1438.52	0.255
1447.76	0.166
1457	0.054
1466.24	0.055
1475.48	0.364
1484.72	0.621
1493.96	0.728
1503.2	0.798
1512.44	0.832
1521.68	0.852
1530.92	0.869
1540.16	0.883
1549.4	0.89
1558.64	0.894
1567.88	0.898
1577.12	0.898
1586.36	0.897
1595.6	0.895
1604.84	0.893
1614.08	0.885
1623.32	0.87
1632.56	0.862
1641.8	0.848
1651.04	0.831
1660.28	0.765
1669.52	0.653
1678.76	0.546
1688	0.44
1697.24	0.143
1706.48	0.014
1715.72	0.015
1724.96	0.038
1734.2	0.294
1743.44	0.509
1752.68	0.646
1761.92	0.753
1771.16	0.827
1780.4	0.852
1789.64	0.878
1798.88	0.897
1808.12	0.911
1817.36	0.92
1826.6	0.93
1835.84	0.935
1845.08	0.939
1854.32	0.941
1863.56	0.941
1872.8	0.944
1882.04	0.947
1891.28	0.947
1900.52	0.948
1909.76	0.948
1919	0.948
1928.24	0.948
1937.48	0.948
1946.72	0.949
1955.96	0.949
1965.2	0.949
1974.44	0.949
1983.68	0.949
1992.92	0.948
2002.16	0.945
2011.4	0.941
2020.64	0.94
2029.88	0.94
2039.12	0.94
2048.36	0.941
2057.6	0.94
2066.84	0.941
2076.08	0.94
2085.32	0.939
2094.56	0.937
2103.8	0.936
2113.04	0.935
2122.28	0.934
2131.52	0.932
2140.76	0.932
2150	0.931
2159.24	0.931
2168.48	0.931
2177.72	0.931
2186.96	0.931
2196.2	0.931
2205.44	0.931
2214.68	0.931
2223.92	0.931
2233.16	0.931
2242.4	0.931
2251.64	0.931
2260.88	0.931
2270.12	0.931
2279.36	0.932
2288.6	0.931
2297.84	0.93
2307.08	0.93
2316.32	0.928
2325.56	0.927
2334.8	0.927
2344.04	0.928
2353.28	0.927
2362.52	0.928
2371.76	0.93
2381	0.928
2390.24	0.928
2399.48	0.928
2408.72	0.928
2417.96	0.928
2427.2	0.93
2436.44	0.935
2445.68	0.937
2454.92	0.939
2464.16	0.939
2473.4	0.937
2482.64	0.939
2491.88	0.937
2501.12	0.936
2510.36	0.935
2519.6	0.932
2528.84	0.931
2538.08	0.93
2547.32	0.928
2556.56	0.923
2565.8	0.916
2575.04	0.907
2584.28	0.903
2593.52	0.902
2602.76	0.903
2612	0.899
2621.24	0.895
2630.48	0.885
2639.72	0.874
2648.96	0.865
2658.2	0.853
2667.44	0.836
2676.68	0.839
2685.92	0.852
2695.16	0.857
2704.4	0.852
2713.64	0.836
2722.88	0.81
2732.12	0.759
2741.36	0.775
2750.6	0.802
2759.84	0.798
2769.08	0.777
2778.32	0.741
2787.56	0.691
2796.8	0.629
2806.04	0.563
2815.28	0.514
2824.52	0.443
2833.76	0.337
2843	0.186
2852.24	0.034
2861.48	0.01
2870.72	0.01
2879.96	0.014
2889.2	0.014
2898.44	0.01
2907.68	0.01
2916.92	0.01
2926.16	0.01
2935.4	0.009
2944.64	0.009
2953.88	0.009
2963.12	0.01
2972.36	0.023
2981.6	0.117
2990.84	0.286
3000.08	0.432
3009.32	0.539
3018.56	0.616
3027.8	0.672
3037.04	0.713
3046.28	0.753
3055.52	0.79
3064.76	0.816
3074	0.833
3083.24	0.848
3092.48	0.862
3101.72	0.874
3110.96	0.882
3120.2	0.89
3129.44	0.894
3138.68	0.897
3147.92	0.897
3157.16	0.895
3166.4	0.895
3175.64	0.895
3184.88	0.895
3194.12	0.898
3203.36	0.902
3212.6	0.911
3221.84	0.919
3231.08	0.927
3240.32	0.932
3249.56	0.936
3258.8	0.941
3268.04	0.941
3277.28	0.941
3286.52	0.941
3295.76	0.94
3305	0.94
3314.24	0.937
3323.48	0.935
3332.72	0.934
3341.96	0.932
3351.2	0.928
3360.44	0.924
3369.68	0.92
3378.92	0.911
3388.16	0.894
3397.4	0.864
3406.64	0.84
3415.88	0.833
3425.12	0.858
3434.36	0.906
3443.6	0.93
3452.84	0.94
3462.08	0.943
3471.32	0.941
3480.56	0.94
3489.8	0.937
3499.04	0.935
3508.28	0.934
3517.52	0.93
3526.76	0.928
3536	0.928
3545.24	0.928
3554.48	0.931
3563.72	0.935
3572.96	0.941
3582.2	0.947
3591.44	0.945
3600.68	0.945
3609.92	0.941
3619.16	0.94
3628.4	0.94
3637.64	0.943
3646.88	0.944
3656.12	0.947
3665.36	0.945
3674.6	0.945
3683.84	0.947
3693.08	0.947
3702.32	0.955
3711.56	0.955
3720.8	0.955
3730.04	0.955
3739.28	0.955
3748.52	0.955
3757.76	0.955
3767	0.955
3776.24	0.955
3785.48	0.955
3794.72	0.955
3803.96	0.956
3813.2	0.952
3822.44	0.952
3831.68	0.952
3840.92	0.952
3850.16	0.952
3859.4	0.952
3868.64	0.955
3877.88	0.955
3887.12	0.953
3896.36	0.953
