Infrared Spectrum: 3-METHYL-PHENANTHRENE
Formula: C15 H12
CAS: 832-71-3
State: SOLID (1% IN KI)
Class: COBLENTZ
Instrument: Not specified, most likely a prism, grating, or hybrid spectrometer.
Sampling: TRANSMISSION
Resolution: 4
Origin: CENTRE D'ETUDES NUCLEAIRES DE GRENOBLE
MICROMETERS	TRANSMITTANCE
1.99	0.149
2.03012	0.156
2.07025	0.161
2.11037	0.166
2.1505	0.174
2.19062	0.179
2.23075	0.187
2.27088	0.194
2.311	0.2
2.35113	0.209
2.39125	0.217
2.43138	0.224
2.4715	0.234
2.51162	0.242
2.55175	0.252
2.59187	0.262
2.632	0.272
2.67212	0.279
2.71225	0.287
2.75237	0.295
2.7925	0.302
2.83263	0.302
2.87275	0.303
2.91288	0.308
2.953	0.317
2.99313	0.33
3.03325	0.347
3.07337	0.353
3.1135	0.362
3.15362	0.372
3.19375	0.382
3.23388	0.393
3.274	0.378
3.31412	0.265
3.35425	0.295
3.39438	0.347
3.4345	0.337
3.47462	0.337
3.51475	0.378
3.55488	0.393
3.595	0.435
3.63512	0.456
3.67525	0.465
3.71537	0.471
3.7555	0.483
3.79563	0.49
3.83575	0.496
3.87587	0.501
3.916	0.508
3.95613	0.514
3.99625	0.524
4.03637	0.533
4.0765	0.538
4.11662	0.541
4.15675	0.548
4.19688	0.554
4.237	0.563
4.27712	0.576
4.31725	0.574
4.35738	0.561
4.3975	0.569
4.43762	0.591
4.47775	0.598
4.51788	0.601
4.558	0.607
4.59812	0.612
4.63825	0.621
4.67837	0.627
4.7185	0.634
4.75863	0.641
4.79875	0.646
4.83887	0.649
4.879	0.651
4.91913	0.657
4.95925	0.667
4.99937	0.671
5.0395	0.674
5.07963	0.679
5.11975	0.686
5.15987	0.666
5.2	0.662
5.24012	0.651
5.28025	0.656
5.32038	0.676
5.3605	0.699
5.40062	0.715
5.44075	0.715
5.48088	0.687
5.521	0.704
5.56112	0.709
5.60125	0.714
5.64138	0.717
5.6815	0.72
5.72162	0.712
5.76175	0.712
5.80187	0.719
5.842	0.73
5.88213	0.735
5.92225	0.739
5.96237	0.737
6.0025	0.732
6.04263	0.73
6.08275	0.74
6.12288	0.742
6.163	0.722
6.20312	0.609
6.24325	0.609
6.28338	0.529
6.3235	0.689
6.36362	0.749
6.40375	0.76
6.44388	0.767
6.484	0.759
6.52412	0.749
6.56425	0.759
6.60438	0.747
6.6445	0.682
6.68463	0.637
6.72475	0.739
6.76487	0.772
6.805	0.787
6.84513	0.759
6.88525	0.71
6.92537	0.36
6.9655	0.533
7.00563	0.601
7.04575	0.626
7.08587	0.679
7.126	0.785
7.16613	0.78
7.20625	0.787
7.24638	0.794
7.2865	0.799
7.32662	0.803
7.36675	0.812
7.40688	0.795
7.447	0.785
7.48712	0.8
7.52725	0.799
7.56738	0.83
7.6075	0.855
7.64762	0.855
7.68775	0.843
7.72788	0.744
7.768	0.737
7.80813	0.817
7.84825	0.845
7.88837	0.865
7.9285	0.868
7.96863	0.858
8.00875	0.837
8.04887	0.7
8.089	0.745
8.12913	0.84
8.16925	0.852
8.20937	0.84
8.2495	0.86
8.28962	0.882
8.32975	0.882
8.36988	0.842
8.41	0.664
8.45012	0.823
8.49025	0.877
8.53037	0.892
8.5705	0.873
8.61062	0.843
8.65075	0.857
8.69088	0.868
8.731	0.619
8.77112	0.629
8.81125	0.818
8.85137	0.87
8.8915	0.893
8.93163	0.898
8.97175	0.901
9.01187	0.901
9.052	0.897
9.09212	0.887
9.13225	0.832
9.17237	0.878
9.2125	0.905
9.25263	0.915
9.29275	0.921
9.33287	0.921
9.373	0.921
9.41312	0.925
9.45325	0.925
9.49338	0.921
9.5335	0.911
9.57362	0.867
9.61375	0.689
9.65387	0.722
9.694	0.795
9.73412	0.87
9.77425	0.9
9.81438	0.91
9.8545	0.915
9.89462	0.913
9.93475	0.91
9.97487	0.916
10.015	0.928
10.0551	0.923
10.0953	0.916
10.1354	0.928
10.1755	0.938
10.2156	0.946
10.2558	0.936
10.2959	0.948
10.336	0.946
10.3761	0.94
10.4162	0.95
10.4564	0.95
10.4965	0.868
10.5366	0.795
10.5768	0.818
10.6169	0.931
10.657	0.955
10.6971	0.966
10.7372	0.971
10.7774	0.973
10.8175	0.973
10.8576	0.966
10.8978	0.968
10.9379	0.975
10.978	0.978
11.0181	0.973
11.0582	0.973
11.0984	0.968
11.1385	0.963
11.1786	0.955
11.2188	0.94
11.2589	0.911
11.299	0.812
11.3391	0.755
11.3793	0.779
11.4194	0.792
11.4595	0.679
11.4996	0.44
11.5397	0.681
11.5799	0.852
11.62	0.931
11.6601	0.94
11.7003	0.931
11.7404	0.905
11.7805	0.86
11.8206	0.79
11.8607	0.584
11.9009	0.33
11.941	0.046
11.9811	0.013
12.0213	0.187
12.0614	0.471
12.1015	0.714
12.1416	0.803
12.1817	0.863
12.2219	0.885
12.262	0.9
12.3021	0.925
12.3422	0.9
12.3824	0.89
12.4225	0.906
12.4626	0.915
12.5028	0.828
12.5429	0.662
12.583	0.725
12.6231	0.882
12.6632	0.943
12.7034	0.956
12.7435	0.961
12.7836	0.968
12.8238	0.976
12.8639	0.983
12.904	0.978
12.9441	0.958
12.9842	0.955
13.0244	0.938
13.0645	0.92
13.1046	0.921
13.1448	0.901
13.1849	0.865
13.225	0.769
13.2651	0.523
13.3052	0.196
13.3454	0.049
13.3855	0.151
13.4256	0.388
13.4657	0.498
13.5059	0.662
13.546	0.799
13.5861	0.855
13.6263	0.9
13.6664	0.93
13.7065	0.945
13.7466	0.955
13.7867	0.963
13.8269	0.97
13.867	0.971
13.9071	0.973
13.9473	0.966
13.9874	0.913
14.0275	0.76
14.0676	0.589
14.1077	0.787
14.1479	0.908
14.188	0.946
14.2281	0.97
14.2683	0.985
14.3084	0.988
14.3485	0.988
14.3886	0.991
14.4288	0.996
14.4689	0.991
14.509	0.971
14.5491	0.908
14.5892	0.852
14.6294	0.87
14.6695	0.931
14.7096	0.956
14.7498	0.968
14.7899	0.971
14.83	0.976
14.8701	0.981
14.9102	0.986
14.9504	0.983
14.9905	0.951
15.0306	0.955
15.0708	0.973
15.1109	0.98
15.151	0.976
15.1911	0.98
15.2312	0.976
15.2714	0.971
15.3115	0.973
15.3516	0.975
15.3918	0.978
15.4319	0.98
15.472	0.978
15.5121	0.968
15.5523	0.97
15.5924	0.976
15.6325	0.973
15.6726	0.963
15.7127	0.956
15.7529	0.961
15.793	0.96
15.8331	0.955
15.8733	0.953
