Infrared Spectrum: 3-METHYL-PHENANTHRENE
Formula: C15 H12
CAS: 832-71-3
State: SOLUTION (SATURATED IN BENZENE)
Class: COBLENTZ
Instrument: Not specified, most likely a prism, grating, or hybrid spectrometer.
Sampling: TRANSMISSION
Path length: 0.05 CM
Resolution: 4
Origin: CENTRE D'ETUDES NUCLEAIRES DE GRENOBLE
MICROMETERS	TRANSMITTANCE
15.443	0.419
15.4987	0.437
15.5544	0.498
15.6102	0.543
15.6659	0.651
15.7216	0.676
15.7773	0.684
15.833	0.687
15.8887	0.59
15.9445	0.426
16.0002	0.395
16.0559	0.432
16.1116	0.558
16.1673	0.667
16.223	0.718
16.2788	0.731
16.3345	0.729
16.3902	0.708
16.4459	0.652
16.5016	0.562
16.5573	0.454
16.6131	0.312
16.6688	0.206
16.7245	0.145
16.7802	0.134
16.8359	0.184
16.8916	0.298
16.9474	0.414
17.0031	0.51
17.0588	0.588
17.1145	0.651
17.1702	0.696
17.2259	0.726
17.2817	0.755
17.3374	0.771
17.3931	0.783
17.4488	0.81
17.5045	0.812
17.5603	0.807
17.616	0.802
17.6717	0.781
17.7274	0.755
17.7831	0.696
17.8388	0.619
17.8946	0.516
17.9503	0.37
18.006	0.244
18.0617	0.139
18.1174	0.1
18.1731	0.125
18.2289	0.208
18.2846	0.313
18.3403	0.422
18.396	0.518
18.4517	0.602
18.5074	0.652
18.5632	0.687
18.6189	0.697
18.6746	0.699
18.7303	0.697
18.786	0.669
18.8417	0.647
18.8975	0.614
18.9532	0.605
19.0089	0.6
19.0646	0.595
19.1203	0.588
19.176	0.578
19.2318	0.558
19.2875	0.535
19.3432	0.494
19.3989	0.429
19.4546	0.328
19.5104	0.253
19.5661	0.174
19.6218	0.102
19.6775	0.082
19.7332	0.057
19.7889	0.062
19.8447	0.085
19.9004	0.125
19.9561	0.226
20.0118	0.308
20.0675	0.375
20.1232	0.431
20.179	0.471
20.2347	0.513
20.2904	0.55
20.3461	0.593
20.4018	0.627
20.4575	0.667
20.5133	0.689
20.569	0.706
20.6247	0.719
20.6804	0.731
20.7361	0.744
20.7918	0.753
20.8476	0.751
20.9033	0.741
20.959	0.729
21.0147	0.696
21.0704	0.62
21.1261	0.543
21.1819	0.444
21.2376	0.37
21.2933	0.335
21.349	0.367
21.4047	0.416
21.4605	0.484
21.5162	0.562
21.5719	0.615
21.6276	0.659
21.6833	0.672
21.739	0.686
21.7948	0.689
21.8505	0.669
21.9062	0.635
21.9619	0.592
22.0176	0.565
22.0733	0.54
22.1291	0.553
22.1848	0.573
22.2405	0.593
22.2962	0.615
22.3519	0.634
22.4076	0.632
22.4634	0.622
22.5191	0.609
22.5748	0.585
22.6305	0.54
22.6862	0.506
22.7419	0.449
22.7977	0.389
22.8534	0.33
22.9091	0.253
22.9648	0.206
23.0205	0.142
23.0762	0.1
23.132	0.078
23.1877	0.065
23.2434	0.055
23.2991	0.046
23.3548	0.041
23.4105	0.043
23.4663	0.053
23.522	0.078
23.5777	0.105
23.6334	0.154
23.6891	0.206
23.7449	0.273
23.8006	0.345
23.8563	0.397
23.912	0.442
23.9677	0.498
24.0234	0.541
24.0792	0.567
24.1349	0.592
24.1906	0.612
24.2463	0.625
24.302	0.634
24.3577	0.644
24.4135	0.652
24.4692	0.662
24.5249	0.681
24.5806	0.692
24.6363	0.711
24.692	0.711
24.7478	0.697
24.8035	0.681
24.8592	0.62
24.9149	0.595
24.9706	0.56
25.0263	0.535
25.0821	0.535
25.1378	0.563
25.1935	0.598
25.2492	0.654
25.3049	0.703
25.3606	0.755
25.4164	0.798
25.4721	0.818
25.5278	0.833
25.5835	0.848
25.6392	0.857
25.695	0.862
25.7507	0.872
25.8064	0.884
25.8621	0.887
25.9178	0.889
25.9735	0.895
26.0293	0.899
26.085	0.902
26.1407	0.906
26.1964	0.907
26.2521	0.909
26.3078	0.911
26.3636	0.914
26.4193	0.917
26.475	0.921
26.5307	0.922
26.5864	0.922
26.6421	0.922
26.6979	0.924
26.7536	0.924
26.8093	0.926
26.865	0.924
26.9207	0.924
26.9764	0.924
27.0322	0.924
27.0879	0.924
27.1436	0.922
27.1993	0.922
27.255	0.921
27.3107	0.919
27.3665	0.921
27.4222	0.924
27.4779	0.924
27.5336	0.921
27.5893	0.921
27.6451	0.924
27.7008	0.927
27.7565	0.927
27.8122	0.924
27.8679	0.924
27.9236	0.924
27.9794	0.921
28.0351	0.916
28.0908	0.914
28.1465	0.912
28.2022	0.912
28.2579	0.911
28.3137	0.906
28.3694	0.902
28.4251	0.899
28.4808	0.89
28.5365	0.887
28.5922	0.879
28.648	0.865
28.7037	0.855
28.7594	0.845
28.8151	0.832
28.8708	0.81
28.9265	0.802
28.9823	0.781
29.038	0.751
29.0937	0.728
29.1494	0.689
29.2051	0.661
29.2608	0.62
29.3166	0.593
29.3723	0.56
29.428	0.548
29.4837	0.533
29.5394	0.531
29.5952	0.54
29.6509	0.541
29.7066	0.575
29.7623	0.598
29.818	0.634
29.8737	0.652
29.9295	0.697
29.9852	0.723
30.0409	0.748
30.0966	0.76
30.1523	0.795
30.208	0.808
30.2638	0.82
30.3195	0.83
30.3752	0.842
30.4309	0.845
30.4866	0.85
30.5423	0.857
30.5981	0.864
30.6538	0.869
30.7095	0.877
30.7652	0.88
30.8209	0.885
30.8766	0.889
30.9324	0.89
30.9881	0.894
31.0438	0.895
31.0995	0.897
31.1552	0.899
31.2109	0.901
31.2667	0.902
31.3224	0.904
31.3781	0.904
31.4338	0.906
31.4895	0.906
31.5453	0.904
31.601	0.902
31.6567	0.904
31.7124	0.906
31.7681	0.909
31.8238	0.909
31.8796	0.901
31.9353	0.902
31.991	0.912
32.0467	0.909
32.1024	0.909
32.1581	0.909
32.2139	0.909
32.2696	0.907
32.3253	0.902
32.381	0.907
32.4367	0.904
32.4924	0.911
32.5482	0.909
32.6039	0.894
32.6596	0.892
32.7153	0.892
32.771	0.897
32.8267	0.899
32.8825	0.892
32.9382	0.887
32.9939	0.885
33.0496	0.882
33.1053	0.875
33.161	0.869
33.2168	0.855
33.2725	0.847
33.3282	0.84
33.3839	0.815
33.4396	0.808
33.4954	0.803
33.5511	0.785
33.6068	0.771
33.6625	0.763
33.7182	0.748
33.7739	0.741
33.8297	0.729
33.8854	0.728
33.9411	0.726
33.9968	0.726
34.0525	0.726
34.1082	0.728
34.164	0.729
34.2197	0.734
34.2754	0.76
34.3311	0.766
34.3868	0.775
34.4425	0.781
34.4983	0.798
34.554	0.807
34.6097	0.812
34.6654	0.813
34.7211	0.82
34.7768	0.825
34.8326	0.827
34.8883	0.832
34.944	0.833
34.9997	0.837
