Infrared Spectrum: 1-METHYL-PHENANTHRENE
Formula: C15 H12
CAS: 832-69-9
State: SOLID (1% IN KI)
Class: COBLENTZ
Instrument: Not specified, most likely a prism, grating, or hybrid spectrometer.
Sampling: TRANSMISSION
Resolution: 4
Origin: CENTRE D'ETUDES NUCLEAIRES DE GRENOBLE
MICROMETERS	TRANSMITTANCE
1.99	0.421
2.03012	0.431
2.07025	0.44
2.11037	0.448
2.1505	0.455
2.19062	0.463
2.23075	0.471
2.27087	0.481
2.311	0.49
2.35112	0.495
2.39125	0.505
2.43137	0.511
2.4715	0.521
2.51162	0.53
2.55174	0.533
2.59187	0.541
2.63199	0.546
2.67212	0.538
2.71224	0.561
2.75237	0.571
2.79249	0.575
2.83262	0.573
2.87274	0.57
2.91287	0.568
2.95299	0.575
2.99312	0.593
3.03324	0.606
3.07336	0.62
3.11349	0.631
3.15361	0.641
3.19374	0.651
3.23386	0.653
3.27399	0.611
3.31411	0.47
3.35424	0.505
3.39436	0.563
3.43449	0.533
3.47461	0.546
3.51473	0.596
3.55486	0.621
3.59498	0.68
3.63511	0.7
3.67523	0.711
3.71536	0.715
3.75548	0.725
3.79561	0.735
3.83573	0.74
3.87586	0.748
3.91598	0.751
3.95611	0.755
3.99623	0.76
4.03635	0.76
4.07648	0.763
4.1166	0.766
4.15673	0.773
4.19685	0.78
4.23698	0.786
4.2771	0.781
4.31723	0.765
4.35735	0.768
4.39748	0.79
4.4376	0.803
4.47773	0.808
4.51785	0.813
4.55797	0.818
4.5981	0.82
4.63822	0.823
4.67835	0.826
4.71847	0.83
4.7586	0.836
4.79872	0.838
4.83885	0.841
4.87897	0.845
4.9191	0.848
4.95922	0.851
4.99935	0.855
5.03947	0.858
5.07959	0.86
5.11972	0.858
5.15984	0.826
5.19997	0.805
5.24009	0.77
5.28022	0.808
5.32034	0.831
5.36047	0.855
5.40059	0.868
5.44072	0.855
5.48084	0.846
5.52097	0.828
5.56109	0.85
5.60121	0.843
5.64134	0.831
5.68146	0.843
5.72159	0.838
5.76171	0.858
5.80184	0.84
5.84196	0.845
5.88209	0.848
5.92221	0.83
5.96234	0.818
6.00246	0.841
6.04258	0.85
6.08271	0.851
6.12283	0.826
6.16296	0.821
6.20308	0.76
6.24321	0.741
6.28333	0.581
6.32346	0.665
6.36358	0.805
6.40371	0.833
6.44383	0.856
6.48396	0.838
6.52408	0.863
6.5642	0.85
6.60433	0.846
6.64445	0.825
6.68458	0.851
6.7247	0.73
6.76483	0.683
6.80495	0.831
6.84508	0.74
6.8852	0.611
6.92533	0.593
6.96545	0.49
7.00558	0.5
7.0457	0.53
7.08582	0.666
7.12595	0.803
7.16607	0.843
7.2062	0.855
7.24632	0.768
7.28645	0.701
7.32657	0.79
7.3667	0.866
7.40682	0.881
7.44695	0.886
7.48707	0.891
7.5272	0.895
7.56732	0.901
7.60744	0.913
7.64757	0.911
7.68769	0.84
7.72782	0.753
7.76794	0.808
7.80807	0.873
7.84819	0.888
7.88832	0.898
7.92844	0.896
7.96857	0.885
8.00869	0.913
8.04882	0.736
8.08894	0.666
8.12906	0.851
8.16919	0.888
8.20931	0.851
8.24944	0.761
8.28956	0.828
8.32969	0.838
8.36981	0.87
8.40994	0.888
8.45006	0.916
8.49019	0.908
8.53031	0.868
8.57043	0.895
8.61056	0.835
8.65068	0.833
8.69081	0.836
8.73093	0.771
8.77106	0.848
8.81118	0.893
8.85131	0.803
8.89143	0.865
8.93156	0.916
8.97168	0.923
9.01181	0.928
9.05193	0.928
9.09205	0.925
9.13218	0.935
9.1723	0.94
9.21243	0.933
9.25255	0.923
9.29268	0.89
9.3328	0.935
9.37293	0.945
9.41305	0.936
9.45318	0.943
9.4933	0.955
9.53343	0.956
9.57355	0.923
9.61367	0.835
9.6538	0.793
9.69392	0.768
9.73405	0.728
9.77417	0.885
9.8143	0.93
9.85442	0.94
9.89455	0.95
9.93467	0.953
9.9748	0.913
10.0149	0.826
10.055	0.85
10.0952	0.893
10.1353	0.935
10.1754	0.945
10.2155	0.953
10.2557	0.953
10.2958	0.94
10.3359	0.946
10.376	0.93
10.4162	0.926
10.4563	0.946
10.4964	0.921
10.5365	0.738
10.5767	0.835
10.6168	0.903
10.6569	0.968
10.697	0.985
10.7372	1.001
10.7773	0.998
10.8174	1.003
10.8575	1.003
10.8977	0.998
10.9378	0.976
10.9779	0.968
11.018	0.985
11.0582	0.996
11.0983	1
11.1384	0.983
11.1785	0.97
11.2187	0.9
11.2588	0.673
11.2989	0.518
11.339	0.448
11.3792	0.818
11.4193	0.86
11.4594	0.923
11.4995	0.895
11.5397	0.775
11.5798	0.773
11.6199	0.893
11.66	0.948
11.7002	0.865
11.7403	0.835
11.7804	0.88
11.8205	0.936
11.8607	0.978
11.9008	0.993
11.9409	1.005
11.981	1
12.0212	0.991
12.0613	0.963
12.1014	0.911
12.1415	0.705
12.1816	0.42
12.2218	0.268
12.2619	0.418
12.302	0.696
12.3421	0.863
12.3823	0.791
12.4224	0.383
12.4625	0.275
12.5026	0.316
12.5428	0.696
12.5829	0.878
12.623	0.926
12.6631	0.921
12.7033	0.928
12.7434	0.936
12.7835	0.951
12.8236	0.955
12.8638	0.925
12.9039	0.95
12.944	0.958
12.9841	0.916
13.0243	0.771
13.0644	0.525
13.1045	0.413
13.1446	0.391
13.1848	0.386
13.2249	0.496
13.265	0.481
13.3051	0.333
13.3453	0.173
13.3854	0.075
13.4255	0.033
13.4656	0.02
13.5058	0.1
13.5459	0.358
13.586	0.545
13.6261	0.636
13.6663	0.711
13.7064	0.788
13.7465	0.816
13.7866	0.711
13.8268	0.42
13.8669	0.186
13.907	0.333
13.9471	0.628
13.9873	0.785
14.0274	0.798
14.0675	0.735
14.1076	0.7
14.1478	0.76
14.1879	0.833
14.228	0.883
14.2681	0.911
14.3083	0.93
14.3484	0.928
14.3885	0.933
14.4286	0.948
14.4688	0.951
14.5089	0.941
14.549	0.943
14.5891	0.955
14.6292	0.956
14.6694	0.953
14.7095	0.955
14.7496	0.961
14.7897	0.953
14.8299	0.951
14.87	0.958
14.9101	0.971
14.9502	0.968
14.9904	0.951
15.0305	0.933
15.0706	0.955
15.1107	0.96
15.1509	0.955
15.191	0.956
15.2311	0.966
15.2712	0.963
15.3114	0.951
15.3515	0.948
15.3916	0.965
15.4317	0.956
15.4719	0.93
15.512	0.916
15.5521	0.923
15.5922	0.928
15.6324	0.938
15.6725	0.943
15.7126	0.953
15.7527	0.961
15.7929	0.963
15.833	0.955
15.8731	0.95
