Infrared Spectrum: 4-METHYL-PHENANTHRENE
Formula: C15 H12
CAS: 832-64-4
State: SOLID (1% IN KI)
Class: COBLENTZ
Instrument: Not specified, most likely a prism, grating, or hybrid spectrometer.
Sampling: TRANSMISSION
Resolution: 4
Origin: CENTRE D'ETUDES NUCLEAIRES DE GRENOBLE
MICROMETERS	TRANSMITTANCE
1.972	0.252
2.01204	0.26
2.05208	0.265
2.09212	0.278
2.13216	0.285
2.17221	0.293
2.21225	0.303
2.25229	0.313
2.29233	0.331
2.33237	0.334
2.37241	0.339
2.41245	0.354
2.45249	0.364
2.49254	0.371
2.53258	0.378
2.57262	0.388
2.61266	0.398
2.6527	0.409
2.69274	0.417
2.73278	0.426
2.77282	0.429
2.81287	0.431
2.85291	0.427
2.89295	0.426
2.93299	0.434
2.97303	0.444
3.01307	0.456
3.05311	0.472
3.09315	0.485
3.1332	0.499
3.17324	0.507
3.21328	0.515
3.25332	0.522
3.29336	0.502
3.3334	0.364
3.37344	0.437
3.41348	0.407
3.45352	0.447
3.49357	0.47
3.53361	0.48
3.57365	0.533
3.61369	0.572
3.65373	0.585
3.69377	0.59
3.73381	0.598
3.77385	0.605
3.8139	0.613
3.85394	0.621
3.89398	0.63
3.93402	0.636
3.97406	0.643
4.0141	0.651
4.05414	0.658
4.09418	0.666
4.13423	0.669
4.17427	0.673
4.21431	0.676
4.25435	0.688
4.29439	0.699
4.33443	0.701
4.37447	0.698
4.41451	0.704
4.45456	0.714
4.4946	0.719
4.53464	0.728
4.57468	0.733
4.61472	0.737
4.65476	0.742
4.6948	0.746
4.73484	0.751
4.77488	0.754
4.81493	0.757
4.85497	0.762
4.89501	0.766
4.93505	0.771
4.97509	0.776
5.01513	0.781
5.05517	0.786
5.09521	0.789
5.13526	0.791
5.1753	0.769
5.21534	0.736
5.25538	0.709
5.29542	0.742
5.33546	0.777
5.3755	0.792
5.41554	0.787
5.45559	0.787
5.49563	0.797
5.53567	0.804
5.57571	0.796
5.61575	0.782
5.65579	0.766
5.69583	0.764
5.73587	0.777
5.77591	0.8
5.81596	0.797
5.856	0.791
5.89604	0.794
5.93608	0.804
5.97612	0.804
6.01616	0.807
6.0562	0.787
6.09624	0.804
6.13629	0.81
6.17633	0.797
6.21637	0.782
6.25641	0.761
6.29645	0.739
6.33649	0.742
6.37653	0.822
6.41657	0.799
6.45662	0.819
6.49666	0.84
6.5367	0.859
6.57674	0.834
6.61678	0.825
6.65682	0.829
6.69686	0.822
6.7369	0.726
6.77695	0.815
6.81699	0.837
6.85703	0.684
6.89707	0.688
6.93711	0.469
6.97715	0.494
7.01719	0.469
7.05723	0.754
7.09727	0.777
7.13732	0.842
7.17736	0.857
7.2174	0.855
7.25744	0.849
7.29748	0.655
7.33752	0.729
7.37756	0.844
7.4176	0.875
7.45765	0.887
7.49769	0.895
7.53773	0.895
7.57777	0.893
7.61781	0.849
7.65785	0.736
7.69789	0.852
7.73793	0.85
7.77798	0.744
7.81802	0.877
7.85806	0.89
7.8981	0.849
7.93814	0.864
7.97818	0.877
8.01822	0.867
8.05826	0.85
8.09831	0.81
8.13835	0.779
8.17839	0.787
8.21843	0.847
8.25847	0.742
8.29851	0.756
8.33855	0.835
8.37859	0.854
8.41863	0.854
8.45868	0.885
8.49872	0.905
8.53876	0.893
8.5788	0.827
8.61884	0.693
8.65888	0.844
8.69892	0.907
8.73896	0.85
8.77901	0.888
8.81905	0.902
8.85909	0.792
8.89913	0.89
8.93917	0.92
8.97921	0.925
9.01925	0.913
9.05929	0.82
9.09934	0.855
9.13938	0.922
9.17942	0.93
9.21946	0.933
9.2595	0.935
9.29954	0.943
9.33958	0.95
9.37962	0.953
9.41967	0.955
9.45971	0.956
9.49975	0.948
9.53979	0.859
9.57983	0.888
9.61987	0.93
9.65991	0.927
9.69995	0.908
9.73999	0.842
9.78004	0.839
9.82008	0.908
9.86012	0.918
9.90016	0.93
9.9402	0.953
9.98024	0.96
10.0203	0.956
10.0603	0.946
10.1004	0.852
10.1404	0.936
10.1804	0.958
10.2205	0.97
10.2605	0.97
10.3006	0.963
10.3406	0.95
10.3807	0.928
10.4207	0.913
10.4607	0.88
10.5008	0.888
10.5408	0.933
10.5809	0.898
10.6209	0.81
10.6609	0.883
10.701	0.951
10.741	0.981
10.7811	0.996
10.8211	1
10.8611	1
10.9012	0.995
10.9412	1
10.9813	1.001
11.0213	1.003
11.0614	0.998
11.1014	0.971
11.1414	0.928
11.1815	0.918
11.2215	0.9
11.2616	0.933
11.3016	0.973
11.3416	0.991
11.3817	0.995
11.4217	0.993
11.4618	0.986
11.5018	0.963
11.5418	0.882
11.5819	0.693
11.6219	0.568
11.662	0.726
11.702	0.888
11.7421	0.938
11.7821	0.96
11.8221	0.961
11.8622	0.953
11.9022	0.923
11.9423	0.893
11.9823	0.878
12.0223	0.839
12.0624	0.65
12.1024	0.286
12.1425	0.071
12.1825	0.059
12.2225	0.225
12.2626	0.469
12.3026	0.601
12.3427	0.721
12.3827	0.819
12.4228	0.883
12.4628	0.9
12.5028	0.92
12.5429	0.927
12.5829	0.809
12.623	0.694
12.663	0.726
12.703	0.83
12.7431	0.928
12.7831	0.96
12.8232	0.966
12.8632	0.951
12.9033	0.862
12.9433	0.796
12.9833	0.845
13.0234	0.888
13.0634	0.915
13.1035	0.93
13.1435	0.936
13.1835	0.935
13.2236	0.922
13.2636	0.9
13.3037	0.857
13.3437	0.797
13.3837	0.625
13.4238	0.346
13.4638	0.144
13.5039	0.087
13.5439	0.072
13.584	0.079
13.624	0.184
13.664	0.358
13.7041	0.519
13.7441	0.643
13.7842	0.714
13.8242	0.764
13.8642	0.797
13.9043	0.796
13.9443	0.733
13.9844	0.699
14.0244	0.625
14.0644	0.318
14.1045	0.237
14.1445	0.417
14.1846	0.608
14.2246	0.734
14.2647	0.814
14.3047	0.862
14.3447	0.89
14.3848	0.905
14.4248	0.918
14.4649	0.928
14.5049	0.933
14.5449	0.94
14.585	0.946
14.625	0.953
14.6651	0.955
14.7051	0.958
14.7451	0.961
14.7852	0.963
14.8252	0.961
14.8653	0.96
14.9053	0.956
14.9454	0.946
14.9854	0.925
15.0254	0.868
15.0655	0.799
15.1055	0.82
15.1456	0.873
15.1856	0.913
15.2256	0.93
15.2657	0.94
15.3057	0.945
15.3458	0.948
15.3858	0.951
15.4258	0.953
15.4659	0.953
15.5059	0.956
15.546	0.96
15.586	0.963
15.6261	0.961
15.6661	0.96
15.7061	0.963
15.7462	0.96
15.7862	0.953
15.8263	0.951
15.8663	0.956
