Infrared Spectrum: 1-METHYL-PHENANTHRENE
Formula: C15 H12
CAS: 832-69-9
State: SOLUTION (50 g/L IN HEPTANE)
Class: COBLENTZ
Instrument: Not specified, most likely a prism, grating, or hybrid spectrometer.
Sampling: TRANSMISSION
Path length: 0.1 CM
Resolution: 4
Origin: CENTRE D'ETUDES NUCLEAIRES DE GRENOBLE
MICROMETERS	TRANSMITTANCE
14.399	0.919
14.4546	0.949
14.5102	0.966
14.5658	0.969
14.6214	0.976
14.6769	0.981
14.7325	0.981
14.7881	0.984
14.8437	0.986
14.8993	0.983
14.9549	0.981
15.0105	0.978
15.0661	0.974
15.1217	0.953
15.1772	0.939
15.2328	0.931
15.2884	0.932
15.344	0.939
15.3996	0.931
15.4552	0.897
15.5108	0.86
15.5664	0.847
15.622	0.879
15.6776	0.904
15.7331	0.964
15.7887	0.974
15.8443	0.984
15.8999	0.989
15.9555	0.988
16.0111	0.979
16.0667	0.958
16.1223	0.899
16.1779	0.81
16.2334	0.723
16.289	0.705
16.3446	0.757
16.4002	0.834
16.4558	0.927
16.5114	0.941
16.567	0.964
16.6226	0.968
16.6782	0.979
16.7337	0.981
16.7893	0.976
16.8449	0.969
16.9005	0.948
16.9561	0.907
17.0117	0.85
17.0673	0.798
17.1229	0.775
17.1785	0.778
17.2341	0.85
17.2896	0.914
17.3452	0.934
17.4008	0.963
17.4564	0.966
17.512	0.971
17.5676	0.968
17.6232	0.941
17.6788	0.901
17.7344	0.881
17.7899	0.867
17.8455	0.881
17.9011	0.907
17.9567	0.941
18.0123	0.956
18.0679	0.964
18.1235	0.961
18.1791	0.954
18.2347	0.948
18.2902	0.943
18.3458	0.938
18.4014	0.943
18.457	0.949
18.5126	0.956
18.5682	0.966
18.6238	0.971
18.6794	0.974
18.735	0.973
18.7906	0.974
18.8461	0.976
18.9017	0.974
18.9573	0.973
19.0129	0.973
19.0685	0.969
19.1241	0.963
19.1797	0.951
19.2353	0.944
19.2909	0.924
19.3464	0.909
19.402	0.891
19.4576	0.847
19.5132	0.773
19.5688	0.671
19.6244	0.562
19.68	0.48
19.7356	0.432
19.7912	0.408
19.8467	0.417
19.9023	0.469
19.9579	0.532
20.0135	0.574
20.0691	0.608
20.1247	0.603
20.1803	0.566
20.2359	0.52
20.2915	0.512
20.3471	0.532
20.4026	0.613
20.4582	0.688
20.5138	0.767
20.5694	0.815
20.625	0.869
20.6806	0.899
20.7362	0.916
20.7918	0.931
20.8474	0.934
20.9029	0.944
20.9585	0.949
21.0141	0.949
21.0697	0.948
21.1253	0.946
21.1809	0.946
21.2365	0.943
21.2921	0.939
21.3477	0.929
21.4032	0.922
21.4588	0.917
21.5144	0.917
21.57	0.919
21.6256	0.922
21.6812	0.927
21.7368	0.934
21.7924	0.939
21.848	0.944
21.9036	0.948
21.9591	0.951
22.0147	0.949
22.0703	0.948
22.1259	0.951
22.1815	0.953
22.2371	0.954
22.2927	0.953
22.3483	0.951
22.4039	0.948
22.4594	0.943
22.515	0.931
22.5706	0.922
22.6262	0.914
22.6818	0.902
22.7374	0.886
22.793	0.847
22.8486	0.82
22.9042	0.778
22.9597	0.706
23.0153	0.648
23.0709	0.597
23.1265	0.564
23.1821	0.562
23.2377	0.571
23.2933	0.604
23.3489	0.651
23.4045	0.703
23.4601	0.752
23.5156	0.788
23.5712	0.812
23.6268	0.822
23.6824	0.834
23.738	0.835
23.7936	0.832
23.8492	0.835
23.9048	0.834
23.9604	0.83
24.0159	0.83
24.0715	0.81
24.1271	0.77
24.1827	0.73
24.2383	0.676
24.2939	0.621
24.3495	0.581
24.4051	0.566
24.4607	0.557
24.5162	0.557
24.5718	0.559
24.6274	0.556
24.683	0.549
24.7386	0.541
24.7942	0.537
24.8498	0.546
24.9054	0.566
24.961	0.606
25.0165	0.683
25.0721	0.723
25.1277	0.782
25.1833	0.812
25.2389	0.85
25.2945	0.871
25.3501	0.899
25.4057	0.909
25.4613	0.922
25.5169	0.931
25.5724	0.932
25.628	0.938
25.6836	0.938
25.7392	0.944
25.7948	0.951
25.8504	0.954
25.906	0.964
25.9616	0.964
26.0172	0.963
26.0727	0.964
26.1283	0.964
26.1839	0.964
26.2395	0.964
26.2951	0.966
26.3507	0.966
26.4063	0.966
26.4619	0.964
26.5175	0.966
26.573	0.966
26.6286	0.968
26.6842	0.971
26.7398	0.969
26.7954	0.969
26.851	0.969
26.9066	0.971
26.9622	0.974
27.0178	0.974
27.0734	0.973
27.1289	0.969
27.1845	0.971
27.2401	0.973
27.2957	0.969
27.3513	0.971
27.4069	0.973
27.4625	0.971
27.5181	0.969
27.5737	0.973
27.6292	0.971
27.6848	0.969
27.7404	0.974
27.796	0.969
27.8516	0.971
27.9072	0.969
27.9628	0.974
28.0184	0.971
28.074	0.974
28.1295	0.969
28.1851	0.969
28.2407	0.969
28.2963	0.964
28.3519	0.968
28.4075	0.971
28.4631	0.968
28.5187	0.964
28.5743	0.964
28.6299	0.964
28.6854	0.961
28.741	0.963
28.7966	0.963
28.8522	0.961
28.9078	0.963
28.9634	0.961
29.019	0.963
29.0746	0.961
29.1302	0.959
29.1857	0.963
29.2413	0.963
29.2969	0.963
29.3525	0.959
29.4081	0.958
29.4637	0.958
29.5193	0.958
29.5749	0.961
29.6305	0.959
29.686	0.954
29.7416	0.956
29.7972	0.954
29.8528	0.954
29.9084	0.953
29.964	0.953
30.0196	0.954
30.0752	0.953
30.1308	0.953
30.1864	0.954
30.2419	0.956
30.2975	0.949
30.3531	0.951
30.4087	0.951
30.4643	0.951
30.5199	0.951
30.5755	0.943
30.6311	0.948
30.6867	0.948
30.7422	0.949
30.7978	0.943
30.8534	0.948
30.909	0.953
30.9646	0.956
31.0202	0.951
31.0758	0.948
31.1314	0.948
31.187	0.949
31.2425	0.949
31.2981	0.943
31.3537	0.948
31.4093	0.944
31.4649	0.949
31.5205	0.948
31.5761	0.951
31.6317	0.949
31.6873	0.951
31.7429	0.951
31.7984	0.946
31.854	0.943
31.9096	0.941
31.9652	0.939
32.0208	0.938
32.0764	0.944
32.132	0.936
32.1876	0.931
32.2432	0.932
32.2987	0.938
32.3543	0.939
32.4099	0.943
32.4655	0.939
32.5211	0.938
32.5767	0.932
32.6323	0.932
32.6879	0.931
32.7435	0.929
32.799	0.932
32.8546	0.931
32.9102	0.932
32.9658	0.929
33.0214	0.927
33.077	0.931
33.1326	0.934
33.1882	0.936
33.2438	0.936
33.2994	0.934
33.3549	0.922
33.4105	0.919
33.4661	0.919
33.5217	0.921
33.5773	0.924
33.6329	0.921
33.6885	0.917
33.7441	0.922
33.7997	0.914
33.8552	0.916
33.9108	0.912
33.9664	0.911
34.022	0.914
34.0776	0.911
34.1332	0.912
34.1888	0.914
34.2444	0.904
34.3	0.902
34.3555	0.902
34.4111	0.897
34.4667	0.901
34.5223	0.899
34.5779	0.899
34.6335	0.901
34.6891	0.902
34.7447	0.914
34.8003	0.902
34.8559	0.887
34.9114	0.897
34.967	0.901
