Infrared Spectrum: Cyclopropyl 4-ethylphenyl carbinol
Formula: C 12 H 16 O
CAS: 84100-47-0
State: gas
Origin: EPA-IR VAPOR PHASE LIBRARY
1/CM	ABSORBANCE
549.8	0.00802
559.445	0.00815
569.09	0.00799
578.734	0.00663
588.379	0.00582
598.024	0.00492
607.669	0.00423
617.313	0.00354
626.958	0.00241
636.603	0.00188
646.248	0.00194
655.893	0.00206
665.537	0.00146
675.182	0.00197
684.827	0.00217
694.472	0.00183
704.116	0.00235
713.761	0.00279
723.406	0.00369
733.051	0.00427
742.695	0.00529
752.34	0.00448
761.985	0.00525
771.63	0.00501
781.275	0.00575
790.919	0.00744
800.564	0.01017
810.209	0.01705
819.854	0.02529
829.498	0.03079
839.143	0.02688
848.788	0.01818
858.433	0.01275
868.078	0.00843
877.722	0.00572
887.367	0.00415
897.012	0.00455
906.657	0.00722
916.301	0.01128
925.946	0.01081
935.591	0.01233
945.236	0.01726
954.88	0.01579
964.525	0.01603
974.17	0.01642
983.815	0.01667
993.46	0.0196
1003.1	0.02814
1012.75	0.04326
1022.39	0.04975
1032.04	0.04862
1041.68	0.03853
1051.33	0.02687
1060.97	0.01858
1070.62	0.01225
1080.26	0.00775
1089.91	0.00691
1099.55	0.00756
1109.2	0.00918
1118.84	0.01223
1128.49	0.01316
1138.13	0.01136
1147.78	0.00935
1157.42	0.01003
1167.07	0.01169
1176.71	0.01552
1186.36	0.01702
1196	0.01561
1205.64	0.01204
1215.29	0.0114
1224.93	0.01188
1234.58	0.01325
1244.22	0.01273
1253.87	0.01135
1263.51	0.01221
1273.16	0.0157
1282.8	0.01715
1292.45	0.01689
1302.09	0.01707
1311.74	0.01756
1321.38	0.01681
1331.03	0.01532
1340.67	0.01332
1350.32	0.01177
1359.96	0.01129
1369.61	0.01223
1379.25	0.01414
1388.9	0.01481
1398.54	0.01348
1408.18	0.01346
1417.83	0.01401
1427.47	0.01338
1437.12	0.01182
1446.76	0.01002
1456.41	0.01023
1466.05	0.01092
1475.7	0.0082
1485.34	0.00645
1494.99	0.00779
1504.63	0.01279
1514.28	0.01648
1523.92	0.00787
1533.57	0.00319
1543.21	0.00272
1552.86	0.00219
1562.5	0.00187
1572.15	0.00182
1581.79	0.00171
1591.44	0.00159
1601.08	0.00225
1610.73	0.0032
1620.37	0.00287
1630.01	0.00187
1639.66	0.00183
1649.3	0.0022
1658.95	0.00236
1668.59	0.00201
1678.24	0.00155
1687.88	0.00147
1697.53	0.00113
1707.17	0.0009511
1716.82	0.0007737
1726.46	0.0008733
1736.11	0.000962
1745.75	0.00112
1755.4	0.00152
1765.04	0.00158
1774.69	0.00217
1784.33	0.00284
1793.98	0.00242
1803.62	0.00151
1813.27	0.00133
1822.91	0.00102
1832.55	0.00119
1842.2	0.00102
1851.84	0.00123
1861.49	0.00143
1871.13	0.00166
1880.78	0.00225
1890.42	0.00277
1900.07	0.00317
1909.71	0.00278
1919.36	0.00208
1929	0.00166
1938.65	0.00137
1948.29	0.00111
1957.94	0.00106
1967.58	0.00106
1977.23	0.0006923
1986.87	0.0009262
1996.52	0.0007748
2006.16	0.0007947
2015.81	0.0008765
2025.45	0.00113
2035.1	0.00129
2044.74	0.00128
2054.38	0.00157
2064.03	0.00158
2073.67	0.00126
2083.32	0.00118
2092.96	0.0012
2102.61	0.000989
2112.25	0.0009621
2121.9	0.0008399
2131.54	0.0007308
2141.19	0.0008965
2150.83	0.0005993
2160.48	0.0006916
2170.12	0.0005645
2179.77	0.0006386
2189.41	0.0004557
2199.06	0.0007012
2208.7	0.0007514
2218.35	0.0008808
2227.99	0.0007251
2237.64	0.0005736
2247.28	0.0008135
2256.92	0.0006505
2266.57	0.0008115
2276.21	0.0007433
2285.86	0.0008008
2295.5	0.0008042
2305.15	0.0007981
2314.79	0.0009794
2324.44	0.0008287
2334.08	0.0006493
2343.73	0.0008979
2353.37	0.0007867
2363.02	0.0006216
2372.66	0.000781
2382.31	0.0008209
2391.95	0.0006838
2401.6	0.000639
2411.24	0.0006262
2420.89	0.000916
2430.53	0.0009975
2440.18	0.0008208
2449.82	0.0007469
2459.47	0.0006198
2469.11	0.0008738
2478.75	0.00101
2488.4	0.00106
2498.04	0.0008662
2507.69	0.0006843
2517.33	0.0009432
2526.98	0.0008208
2536.62	0.0008885
2546.27	0.0009057
2555.91	0.00106
2565.56	0.0009387
2575.2	0.0009628
2584.85	0.0012
2594.49	0.00101
2604.14	0.00103
2613.78	0.00128
2623.43	0.0013
2633.07	0.00118
2642.72	0.00139
2652.36	0.00111
2662.01	0.00111
2671.65	0.00116
2681.29	0.0009961
2690.94	0.00125
2700.58	0.00131
2710.23	0.00103
2719.87	0.00147
2729.52	0.00133
2739.16	0.00157
2748.81	0.00171
2758.45	0.00181
2768.1	0.00225
2777.74	0.00235
2787.39	0.00225
2797.03	0.00294
2806.68	0.00306
2816.32	0.0039
2825.97	0.00487
2835.61	0.00644
2845.26	0.00919
2854.9	0.0138
2864.55	0.02226
2874.19	0.02943
2883.84	0.03258
2893.48	0.02894
2903.12	0.02314
2912.77	0.02092
2922.41	0.02061
2932.06	0.02619
2941.7	0.03457
2951.35	0.03068
2960.99	0.03132
2970.64	0.05854
2980.28	0.0461
2989.93	0.02536
2999.57	0.02669
3009.22	0.04042
3018.86	0.05019
3028.51	0.03965
3038.15	0.02311
3047.8	0.01669
3057.44	0.0149
3067.09	0.01455
3076.73	0.01884
3086.38	0.02538
3096.02	0.01937
3105.67	0.00857
3115.31	0.00423
3124.95	0.00357
3134.6	0.00279
3144.24	0.00233
3153.89	0.0016
3163.53	0.00133
3173.18	0.00161
3182.82	0.00136
3192.47	0.00106
3202.11	0.0008906
3211.76	0.0007947
3221.4	0.0007191
3231.05	0.0009027
3240.69	0.0007921
3250.34	0.0007131
3259.98	0.000752
3269.63	0.0008185
3279.27	0.0006123
3288.92	0.0005543
3298.56	0.0009026
3308.21	0.0006392
3317.85	0.0007925
3327.49	0.000521
3337.14	0.0008862
3346.78	0.00116
3356.43	0.0008169
3366.07	0.00109
3375.72	0.00105
3385.36	0.00114
3395.01	0.0008714
3404.65	0.00103
3414.3	0.0008885
3423.94	0.0009753
3433.59	0.0008098
3443.23	0.00108
3452.88	0.00102
3462.52	0.00131
3472.17	0.0009389
3481.81	0.0008794
3491.46	0.0008597
3501.1	0.0006153
3510.75	0.0007109
3520.39	0.00108
3530.04	0.0006386
3539.68	0.0009106
3549.32	0.0006921
3558.97	0.00109
3568.61	0.00105
3578.26	0.0008263
3587.9	0.0009788
3597.55	0.00116
3607.19	0.00118
3616.84	0.00183
3626.48	0.00454
3636.13	0.00974
3645.77	0.01181
3655.42	0.00793
3665.06	0.00437
3674.71	0.00262
3684.35	0.00116
3694	0.00131
3703.64	0.00124
3713.29	0.00106
3722.93	0.0009061
3732.58	0.00111
3742.22	0.0008362
3751.86	0.0007483
3761.51	0.0009805
3771.15	0.000928
3780.8	0.0008589
3790.44	0.0009916
3800.09	0.00116
3809.73	0.0006666
3819.38	0.00133
3829.02	0.0006764
3838.67	0.0012
3848.31	0.00111
3857.96	0.00121
3867.6	0.00128
3877.25	0.00151
3886.89	0.0009085
3896.54	0.00124
3906.18	0.0009184
3915.83	0.00111
3925.47	0.00143
3935.12	0.0011
3944.76	0.0015
3954.41	0.00133
3964.05	0.00116
3973.69	0.00148
3983.34	0.0009347
3992.98	0.0008793
