Infrared Spectrum: 9,10-PHENANTHRENEDIONE
Formula: C14 H8 O2
CAS: 84-11-7
State: SOLID (1.0% IN KBr PELLET)
Class: COBLENTZ
Instrument: Not specified, most likely a prism, grating, or hybrid spectrometer.
Sampling: TRANSMISSION
Path length: 0.0355 CM THICK
Resolution: 4
Origin: ANDERSON PHYSICAL LABORATORY
1/CM	TRANSMITTANCE
665.73	0.497
674.157	0.758
682.584	0.589
691.011	0.844
699.438	0.817
707.865	0.7251
716.292	0.686
724.719	0.244
733.146	0.8319
741.573	0.631
750	0.255
758.427	0.5587
766.854	0.87
775.281	0.6883
783.708	0.474
792.135	0.6851
800.562	0.943
808.989	0.897
817.416	0.843
825.843	0.75
834.27	0.705
842.697	0.7409
851.124	0.829
859.551	0.8221
867.978	0.7709
876.405	0.794
884.832	0.891
893.259	0.944
901.686	0.894
910.113	0.937
918.54	0.947
926.967	0.947
935.394	0.931
943.821	0.814
952.248	0.95
960.675	0.938
969.102	0.922
977.529	0.919
985.956	0.904
994.383	0.923
1002.81	0.908
1011.24	0.914
1019.66	0.913
1028.09	0.894
1036.52	0.8201
1044.94	0.843
1053.37	0.925
1061.8	0.919
1070.23	0.914
1078.65	0.904
1087.08	0.894
1095.51	0.885
1103.93	0.876
1112.36	0.867
1120.79	0.843
1129.21	0.807
1137.64	0.847
1146.07	0.811
1154.5	0.64
1162.92	0.744
1171.35	0.882
1179.78	0.876
1188.2	0.858
1196.63	0.85
1205.06	0.847
1213.48	0.835
1221.91	0.823
1230.34	0.791
1238.77	0.774
1247.19	0.764
1255.62	0.729
1264.05	0.804
1272.47	0.7191
1280.9	0.6319
1289.33	0.789
1297.75	0.723
1306.18	0.756
1314.61	0.747
1323.04	0.731
1331.46	0.692
1339.89	0.626
1348.32	0.613
1356.74	0.4501
1365.17	0.277
1373.6	0.252
1382.02	0.6859
1390.45	0.802
1398.88	0.78
1407.31	0.713
1415.73	0.616
1424.16	0.4559
1432.59	0.5099
1441.01	0.811
1449.44	0.771
1457.87	0.759
1466.29	0.652
1474.72	0.446
1483.15	0.749
1491.58	0.71
1500	0.644
1508.43	0.556
1516.86	0.505
1525.28	0.71
1533.71	0.662
1542.14	0.586
1550.56	0.532
1558.99	0.495
1567.42	0.591
1575.85	0.529
1584.27	0.434
1592.7	0.371
1601.13	0.2321
1609.55	0.144
1617.98	0.3
1626.41	0.244
1634.83	0.231
1643.26	0.261
1651.69	0.174
1660.12	0.119
1668.54	0.165
1676.97	0.3621
1685.4	0.6109
1693.82	0.7249
1702.25	0.868
1710.68	0.908
1719.1	0.952
1727.53	0.953
1735.96	0.955
1744.39	0.952
1752.81	0.958
1761.24	0.959
1769.67	0.955
1778.09	0.946
1786.52	0.955
1794.95	0.938
1803.37	0.938
1811.8	0.961
1820.23	0.958
1828.66	0.943
1837.08	0.947
1845.51	0.959
1853.94	0.949
1862.36	0.952
1870.79	0.967
1879.22	0.961
1887.64	0.968
1896.07	0.968
1904.5	0.961
1912.93	0.946
1921.35	0.953
1929.78	0.965
1938.21	0.955
1946.63	0.926
1955.06	0.947
1963.49	0.956
1971.91	0.953
1980.34	0.944
1988.77	0.953
1997.2	0.953
2005.62	0.953
2014.05	0.952
2022.48	0.946
2030.9	0.941
2039.33	0.941
2047.76	0.9402
2056.18	0.9399
2064.61	0.938
2073.04	0.937
2081.47	0.937
2089.89	0.934
2098.32	0.932
2106.75	0.931
2115.17	0.931
2123.6	0.931
2132.03	0.929
2140.45	0.9261
2148.88	0.922
2157.31	0.922
2165.73	0.92
2174.16	0.9177
2182.59	0.917
2191.02	0.9168
2199.44	0.9127
2207.87	0.91
2216.3	0.908
2224.72	0.9059
2233.15	0.9005
2241.58	0.8973
2250	0.897
2258.43	0.895
2266.86	0.894
2275.29	0.8925
2283.71	0.889
2292.14	0.8857
2300.57	0.8825
2308.99	0.8712
2317.42	0.8588
2325.85	0.852
2334.27	0.852
2342.7	0.8555
2351.13	0.859
2359.56	0.859
2367.98	0.8584
2376.41	0.8562
2384.84	0.8559
2393.26	0.853
2401.69	0.852
2410.12	0.8473
2418.54	0.8438
2426.97	0.8406
2435.4	0.8373
2443.83	0.8342
2452.25	0.8284
2460.68	0.8241
2469.11	0.8223
2477.53	0.822
2485.96	0.8153
2494.39	0.812
2502.81	0.8085
2511.24	0.804
2519.67	0.8002
2528.1	0.797
2536.52	0.7942
2544.95	0.792
2553.38	0.7904
2561.8	0.7869
2570.23	0.7804
2578.66	0.7789
2587.08	0.775
2595.51	0.7671
2603.94	0.7594
2612.37	0.7547
2620.79	0.7496
2629.22	0.7464
2637.65	0.7377
2646.07	0.7306
2654.5	0.7272
2662.93	0.725
2671.35	0.7221
2679.78	0.7186
2688.21	0.7127
2696.64	0.7043
2705.06	0.702
2713.49	0.7008
2721.92	0.6991
2730.34	0.6973
2738.77	0.695
2747.2	0.692
2755.62	0.6885
2764.05	0.6837
2772.48	0.6799
2780.91	0.6661
2789.33	0.6472
2797.76	0.6253
2806.19	0.6035
2814.61	0.5812
2823.04	0.5734
2831.47	0.573
2839.89	0.566
2848.32	0.549
2856.75	0.5386
2865.18	0.535
2873.6	0.5352
2882.03	0.5374
2890.46	0.538
2898.88	0.5371
2907.31	0.534
2915.74	0.5316
2924.16	0.5283
2932.59	0.5135
2941.02	0.5031
2949.45	0.4872
2957.87	0.4799
2966.3	0.4673
2974.73	0.4537
2983.15	0.4436
2991.58	0.4306
3000.01	0.4221
3008.43	0.4185
3016.86	0.417
3025.29	0.4213
3033.72	0.4371
3042.14	0.4515
3050.57	0.4673
3059	0.4726
3067.42	0.4708
3075.85	0.4641
3084.28	0.4614
3092.7	0.458
3101.13	0.456
3109.56	0.456
3117.99	0.456
3126.41	0.456
3134.84	0.4584
3143.27	0.4704
3151.69	0.496
3160.12	0.5262
3168.55	0.5683
3176.97	0.6091
3185.4	0.6427
3193.83	0.6673
3202.26	0.6918
3210.68	0.6975
3219.11	0.698
3227.54	0.698
3235.96	0.698
3244.39	0.699
3252.82	0.7
3261.24	0.701
3269.67	0.7111
3278.1	0.7206
3286.53	0.725
3294.95	0.726
3303.38	0.7244
3311.81	0.7203
3320.23	0.7144
3328.66	0.7017
3337.09	0.691
3345.51	0.6842
3353.94	0.6747
3362.37	0.6638
3370.8	0.6562
3379.22	0.6475
3387.65	0.6294
3396.08	0.6229
3404.5	0.622
3412.93	0.6226
3421.36	0.6221
3429.78	0.619
3438.21	0.617
3446.64	0.6184
3455.07	0.6219
3463.49	0.6264
3471.92	0.6304
3480.35	0.6362
3488.77	0.638
3497.2	0.6402
3505.63	0.644
3514.05	0.6468
3522.48	0.65
3530.91	0.6553
3539.33	0.6596
3547.76	0.6636
3556.19	0.667
3564.62	0.6689
3573.04	0.6751
3581.47	0.6787
3589.9	0.682
3598.32	0.6823
3606.75	0.683
3615.18	0.683
3623.6	0.683
3632.03	0.6826
3640.46	0.682
3648.89	0.682
3657.31	0.68
3665.74	0.68
3674.17	0.679
3682.59	0.679
3691.02	0.6768
3699.45	0.676
3707.87	0.676
3716.3	0.676
3724.73	0.676
3733.16	0.675
3741.58	0.674
3750.01	0.671
3758.44	0.6707
3766.86	0.6675
3775.29	0.6617
3783.72	0.659
3792.14	0.6574
3800.57	0.656
3809	0.656
3817.43	0.658
3825.85	0.658
3834.28	0.658
3842.71	0.6563
3851.13	0.655
3859.56	0.653
3867.99	0.6524
3876.41	0.65
3884.84	0.646
3893.27	0.6436
3901.7	0.6417
3910.12	0.6373
3918.55	0.6348
3926.98	0.634
3935.4	0.632
3943.83	0.6311
3952.26	0.629
3960.68	0.6301
3969.11	0.629
3977.54	0.628
3985.97	0.628
