Infrared Spectrum: DICYCLOHEXYL PHTHALATE
Formula: C20 H26 O4
CAS: 84-61-7
State: SOLID (MINERAL OIL MULL)
Melting point: 63-65 C
Class: COBLENTZ
Instrument: Not specified, most likely a prism, grating, or hybrid spectrometer.
Sampling: TRANSMISSION
Resolution: 4
Origin: WYANDOTTE CHEMICALS CORP., WYANDOTTE, MICHIGAN, USA
MICROMETERS	TRANSMITTANCE
2.04	0.712
2.07975	0.719
2.11951	0.725
2.15926	0.717
2.19902	0.707
2.23877	0.71
2.27853	0.722
2.31828	0.729
2.35803	0.74
2.39779	0.749
2.43754	0.754
2.4773	0.765
2.51705	0.774
2.55681	0.779
2.59656	0.784
2.63631	0.787
2.67607	0.794
2.71582	0.799
2.75558	0.8
2.79533	0.803
2.83509	0.803
2.87484	0.8
2.91459	0.772
2.95435	0.795
2.9941	0.803
3.03386	0.799
3.07361	0.803
3.11337	0.795
3.15312	0.787
3.19287	0.787
3.23263	0.735
3.27238	0.72
3.31214	0.397
3.35189	0.031
3.39165	0.046
3.4314	0.132
3.47115	0.088
3.51091	0.471
3.55066	0.759
3.59042	0.813
3.63017	0.84
3.66993	0.823
3.70968	0.828
3.74943	0.828
3.78919	0.852
3.82894	0.858
3.8687	0.87
3.90845	0.883
3.94821	0.898
3.98796	0.903
4.02771	0.906
4.06747	0.91
4.10722	0.908
4.14698	0.906
4.18673	0.901
4.22649	0.901
4.26624	0.903
4.30599	0.905
4.34575	0.911
4.3855	0.923
4.42526	0.925
4.46501	0.931
4.50477	0.928
4.54452	0.938
4.58427	0.938
4.62403	0.935
4.66378	0.933
4.70354	0.94
4.74329	0.943
4.78305	0.95
4.8228	0.961
4.86255	0.965
4.90231	0.963
4.94206	0.966
4.98182	0.97
5.02157	0.97
5.06133	0.958
5.10108	0.936
5.14083	0.95
5.18059	0.938
5.22034	0.96
5.2601	0.965
5.29985	0.971
5.33961	0.961
5.37936	0.96
5.41911	0.946
5.45887	0.931
5.49862	0.943
5.53838	0.943
5.57813	0.923
5.61789	0.878
5.65764	0.862
5.69739	0.815
5.73715	0.43
5.7769	0.054
5.81666	0.089
5.85641	0.285
5.89617	0.551
5.93592	0.642
5.97567	0.744
6.01543	0.805
6.05518	0.827
6.09494	0.828
6.13469	0.86
6.17445	0.724
6.2142	0.73
6.25395	0.671
6.29371	0.782
6.33346	0.873
6.37322	0.888
6.41297	0.877
6.45273	0.862
6.49248	0.847
6.53223	0.852
6.57199	0.848
6.61174	0.807
6.6515	0.679
6.69125	0.561
6.73101	0.629
6.77076	0.302
6.81051	0.267
6.85027	0.196
6.89002	0.292
6.92978	0.601
6.96953	0.749
7.00929	0.805
7.04904	0.822
7.08879	0.82
7.12855	0.813
7.1683	0.735
7.20806	0.533
7.24781	0.362
7.28757	0.486
7.32732	0.461
7.36707	0.624
7.40683	0.549
7.44658	0.491
7.48634	0.47
7.52609	0.392
7.56585	0.289
7.6056	0.249
7.64535	0.081
7.68511	0.041
7.72486	0.039
7.76462	0.086
7.80437	0.196
7.84413	0.259
7.88388	0.154
7.92363	0.117
7.96339	0.222
8.00314	0.242
8.0429	0.255
8.08265	0.421
8.12241	0.589
8.16216	0.664
8.20191	0.694
8.24167	0.709
8.28142	0.719
8.32118	0.712
8.36093	0.714
8.40069	0.777
8.44044	0.805
8.48019	0.805
8.51995	0.775
8.5597	0.607
8.59946	0.533
8.63921	0.578
8.67897	0.649
8.71872	0.37
8.75847	0.318
8.79823	0.31
8.83798	0.078
8.87774	0.096
8.91749	0.197
8.95725	0.395
8.997	0.564
9.03675	0.661
9.07651	0.681
9.11626	0.641
9.15602	0.684
9.19577	0.646
9.23553	0.345
9.27528	0.174
9.31503	0.438
9.35479	0.612
9.39454	0.697
9.4343	0.672
9.47405	0.715
9.51381	0.671
9.55356	0.513
9.59331	0.385
9.63307	0.463
9.67282	0.495
9.71258	0.519
9.75233	0.641
9.79209	0.674
9.83184	0.48
9.87159	0.196
9.91135	0.408
9.9511	0.609
9.99086	0.717
10.0306	0.765
10.0704	0.785
10.1101	0.72
10.1499	0.777
10.1896	0.815
10.2294	0.823
10.2691	0.825
10.3089	0.83
10.3486	0.837
10.3884	0.82
10.4282	0.692
10.4679	0.76
10.5077	0.795
10.5474	0.75
10.5872	0.598
10.6269	0.397
10.6667	0.534
10.7064	0.679
10.7462	0.686
10.7859	0.691
10.8257	0.704
10.8655	0.606
10.9052	0.357
10.945	0.282
10.9847	0.446
11.0245	0.458
11.0642	0.588
11.104	0.727
11.1437	0.734
11.1835	0.669
11.2232	0.641
11.263	0.681
11.3027	0.744
11.3425	0.823
11.3823	0.843
11.422	0.857
11.4618	0.863
11.5015	0.862
11.5413	0.847
11.581	0.757
11.6208	0.702
11.6605	0.73
11.7003	0.737
11.74	0.825
11.7798	0.845
11.8196	0.825
11.8593	0.737
11.8991	0.74
11.9388	0.661
11.9786	0.631
12.0183	0.774
12.0581	0.8
12.0978	0.739
12.1376	0.765
12.1773	0.828
12.2171	0.858
12.2569	0.872
12.2966	0.883
12.3364	0.885
12.3761	0.865
12.4159	0.745
12.4556	0.632
12.4954	0.75
12.5351	0.769
12.5749	0.646
12.6146	0.511
12.6544	0.591
12.6941	0.574
12.7339	0.578
12.7737	0.762
12.8134	0.818
12.8532	0.835
12.8929	0.848
12.9327	0.852
12.9724	0.853
13.0122	0.855
13.0519	0.852
13.0917	0.848
13.1314	0.838
13.1712	0.823
13.211	0.802
13.2507	0.769
13.2905	0.73
13.3302	0.671
13.37	0.556
13.4097	0.355
13.4495	0.161
13.4892	0.116
13.529	0.164
13.5687	0.26
13.6085	0.456
13.6483	0.591
13.688	0.686
13.7278	0.739
13.7675	0.769
13.8073	0.785
13.847	0.8
13.8868	0.807
13.9265	0.82
13.9663	0.84
14.006	0.847
14.0458	0.842
14.0855	0.823
14.1253	0.825
14.1651	0.85
14.2048	0.865
14.2446	0.875
14.2843	0.882
14.3241	0.888
14.3638	0.89
14.4036	0.872
14.4433	0.833
14.4831	0.774
14.5228	0.769
14.5626	0.803
14.6024	0.843
14.6421	0.872
14.6819	0.878
14.7216	0.888
14.7614	0.89
14.8011	0.888
14.8409	0.89
14.8806	0.89
14.9204	0.888
14.9601	0.885
14.9999	0.873
15.0397	0.85
15.0794	0.838
15.1192	0.853
15.1589	0.87
15.1987	0.875
15.2384	0.865
15.2782	0.857
15.3179	0.845
15.3577	0.823
15.3974	0.797
15.4372	0.764
15.4769	0.74
15.5167	0.722
15.5565	0.72
15.5962	0.745
15.636	0.769
15.6757	0.784
15.7155	0.784
15.7552	0.78
15.795	0.777
15.8347	0.772
15.8745	0.77
15.9142	0.765
15.954	0.757
