Infrared Spectrum: PHENANTHRENE
Formula: C14 H10
CAS: 85-01-8
State: SOLUTION (10% IN CCl4 FOR 4000-1340, 10% IN CS2 FOR 1340-430, AND 10% IN CCl4 FOR 440-200 CM^-^1)
Class: COBLENTZ III
Instrument: BECKMAN IR-12 (GRATING)
Instrument parameters: FILTERS AT 303, 473, 790, 1036, 1880, 2930 CM^-^1. GRATING CHANGE: 300.5, 650.0, 2000.4 CM^-^1
Sampling: TRANSMISSION
Path length: 0.01 CM (CsBr CELL), 0.01 CM (KBr CELL), AND 0.01 CM (CsBr CELL)
Resolution: 2
Origin: BECKMAN INSTRUMENTS, KENNETH STINE
1/CM	TRANSMITTANCE
204.975	0
214.925	0.083
224.875	0.169
234.826	0.235
244.776	0.405
254.726	0.531
264.676	0.627
274.627	0.714
284.577	0.771
294.527	0.796
304.477	0.804
314.428	0.817
324.378	0.858
334.328	0.875
344.278	0.902
354.229	0.917
364.179	0.926
374.129	0.926
384.079	0.928
394.03	0.921
403.98	0.885
413.93	0.893
423.88	0.511
433.831	0.788
443.781	0.796
453.731	0.845
463.681	0.862
473.632	0.864
483.582	0.879
493.532	0.575
503.482	0.894
513.433	0.923
523.383	0.932
533.333	0.929
543.283	0.926
553.234	0.934
563.184	0.939
573.134	0.937
583.084	0.934
593.035	0.933
602.985	0.925
612.935	0.898
622.885	0.895
632.836	0.913
642.786	0.898
652.736	0.861
662.686	0.89
672.637	0.911
682.587	0.913
692.537	0.91
702.487	0.887
712.438	0.703
722.388	0.828
732.338	0.056
742.288	0.432
752.239	0.791
762.189	0.867
772.139	0.891
782.089	0.879
792.04	0.866
801.99	0.765
811.94	0.011
821.89	0.757
831.841	0.854
841.791	0.859
851.741	0.758
861.691	0.242
871.642	0.744
881.592	0.804
891.542	0.882
901.492	0.908
911.443	0.913
921.393	0.913
931.343	0.911
941.293	0.846
951.244	0.79
961.194	0.872
971.144	0.876
981.094	0.873
991.045	0.902
1000.99	0.736
1010.95	0.911
1020.9	0.909
1030.85	0.894
1040.8	0.5161
1050.75	0.917
1060.7	0.923
1070.65	0.919
1080.6	0.923
1090.55	0.882
1100.5	0.914
1110.45	0.922
1120.4	0.916
1130.35	0.905
1140.3	0.7649
1150.25	0.858
1160.2	0.853
1170.15	0.869
1180.1	0.888
1190.05	0.906
1200	0.8379
1209.95	0.883
1219.9	0.861
1229.85	0.854
1239.8	0.779
1249.75	0.861
1259.7	0.909
1269.65	0.915
1279.6	0.918
1289.55	0.9
1299.5	0.7659
1309.45	0.899
1319.4	0.9
1329.35	0.914
1339.3	0.911
1349.25	0.895
1359.2	0.886
1369.15	0.887
1379.1	0.906
1389.05	0.9
1399	0.882
1408.96	0.894
1418.91	0.845
1428.86	0.7799
1438.81	0.88
1448.76	0.719
1458.71	0.292
1468.66	0.863
1478.61	0.891
1488.56	0.864
1498.51	0.7767
1508.46	0.767
1518.41	0.732
1528.36	0.58
1538.31	0.617
1548.26	0.534
1558.21	0.55
1568.16	0.632
1578.11	0.68
1588.06	0.689
1598.01	0.721
1607.96	0.731
1617.91	0.842
1627.86	0.849
1637.81	0.902
1647.76	0.898
1657.71	0.889
1667.66	0.902
1677.61	0.863
1687.56	0.891
1697.51	0.894
1707.46	0.878
1717.41	0.918
1727.36	0.911
1737.31	0.893
1747.26	0.918
1757.21	0.861
1767.16	0.88
1777.11	0.884
1787.06	0.916
1797.01	0.908
1806.97	0.883
1816.92	0.861
1826.87	0.884
1836.82	0.892
1846.77	0.878
1856.72	0.924
1866.67	0.925
1876.62	0.921
1886.57	0.912
1896.52	0.887
1906.47	0.881
1916.42	0.869
1926.37	0.835
1936.32	0.886
1946.27	0.872
1956.22	0.834
1966.17	0.917
1976.12	0.927
1986.07	0.927
1996.02	0.923
2005.97	0.928
2015.92	0.928
2025.87	0.926
2035.82	0.929
2045.77	0.9289
2055.72	0.9281
2065.67	0.925
2075.62	0.9279
2085.57	0.9319
2095.52	0.927
2105.47	0.925
2115.42	0.929
2125.37	0.9291
2135.32	0.926
2145.27	0.926
2155.22	0.929
2165.17	0.932
2175.12	0.9281
2185.07	0.9298
2195.02	0.93
2204.98	0.9258
2214.93	0.9259
2224.88	0.926
2234.83	0.9235
2244.78	0.9212
2254.73	0.9182
2264.68	0.919
2274.63	0.9152
2284.58	0.9064
2294.53	0.9002
2304.48	0.897
2314.43	0.8988
2324.38	0.904
2334.33	0.909
2344.28	0.911
2354.23	0.915
2364.18	0.917
2374.13	0.9158
2384.08	0.9222
2394.03	0.9163
2403.98	0.915
2413.93	0.9207
2423.88	0.9183
2433.83	0.9153
2443.78	0.9157
2453.73	0.9204
2463.68	0.918
2473.63	0.916
2483.58	0.918
2493.53	0.92
2503.48	0.9163
2513.43	0.914
2523.38	0.916
2533.33	0.917
2543.28	0.9147
2553.23	0.915
2563.18	0.917
2573.13	0.9147
2583.08	0.912
2593.03	0.913
2602.99	0.912
2612.94	0.911
2622.89	0.91
2632.84	0.911
2642.79	0.911
2652.74	0.912
2662.69	0.9084
2672.64	0.9116
2682.59	0.912
2692.54	0.911
2702.49	0.912
2712.44	0.911
2722.39	0.911
2732.34	0.9095
2742.29	0.9095
2752.24	0.912
2762.19	0.91
2772.14	0.91
2782.09	0.909
2792.04	0.91
2801.99	0.907
2811.94	0.9065
2821.89	0.908
2831.84	0.906
2841.79	0.9045
2851.74	0.9015
2861.69	0.9015
2871.64	0.8961
2881.59	0.8931
2891.54	0.9004
2901.49	0.8991
2911.44	0.891
2921.39	0.8866
2931.34	0.8756
2941.29	0.8652
2951.24	0.8616
2961.19	0.8638
2971.14	0.8684
2981.09	0.8648
2991.04	0.8636
3001	0.8306
3010.95	0.7555
3020.9	0.6804
3030.85	0.5714
3040.8	0.6062
3050.75	0.5522
3060.7	0.4233
3070.65	0.4782
3080.6	0.543
3090.55	0.6671
3100.5	0.776
3110.45	0.797
3120.4	0.8332
3130.35	0.861
3140.3	0.8734
3150.25	0.8813
3160.2	0.8843
3170.15	0.885
3180.1	0.885
3190.05	0.885
3200	0.885
3209.95	0.884
3219.9	0.886
3229.85	0.887
3239.8	0.887
3249.75	0.887
3259.7	0.887
3269.65	0.886
3279.6	0.886
3289.55	0.886
3299.5	0.885
3309.45	0.884
3319.4	0.882
3329.35	0.882
3339.3	0.8808
3349.25	0.8747
3359.2	0.873
3369.15	0.873
3379.1	0.8709
3389.05	0.8657
3399	0.8619
3408.96	0.86
3418.91	0.86
3428.86	0.861
3438.81	0.864
3448.76	0.8651
3458.71	0.869
3468.66	0.8702
3478.61	0.874
3488.56	0.875
3498.51	0.8761
3508.46	0.8781
3518.41	0.879
3528.36	0.881
3538.31	0.883
3548.26	0.881
3558.21	0.879
3568.16	0.882
3578.11	0.881
3588.06	0.878
3598.01	0.88
3607.96	0.879
3617.91	0.878
3627.86	0.878
3637.81	0.88
3647.76	0.881
3657.71	0.8761
3667.66	0.875
3677.61	0.877
3687.56	0.8771
3697.51	0.8739
3707.46	0.876
3717.41	0.8721
3727.36	0.869
3737.31	0.872
3747.26	0.873
3757.21	0.869
3767.16	0.8681
3777.11	0.8672
3787.06	0.868
3797.01	0.8691
3806.97	0.8671
3816.92	0.868
3826.87	0.868
3836.82	0.8681
3846.77	0.8652
3856.72	0.865
3866.67	0.866
3876.62	0.8642
3886.57	0.8582
3896.52	0.8568
3906.47	0.8592
3916.42	0.8618
3926.37	0.865
3936.32	0.864
3946.27	0.862
3956.22	0.86
3966.17	0.8628
3976.12	0.867
3986.07	0.8662
3996.02	0.865
