Infrared Spectrum: PHENANTHRENE
Formula: C14 H10
CAS: 85-01-8
State: SOLUTION 4.5% (CS2 FOR 2-15 microns, AND C2Cl4 FOR 6.2-7.3 microns)
Melting point: 99.5 C
Class: COBLENTZ III
Instrument: PERKIN-ELMER 21 (GRATING)
Instrument parameters: FILTER AT ABOUT 10 MICRONS
Sampling: TRANSMISSION
Resolution: 2
1/CM	TRANSMITTANCE
4000	0.9685
3991	0.9683
3982	0.9684
3973	0.9688
3964	0.9693
3955	0.9697
3946	0.9701
3937	0.9707
3928	0.9712
3919	0.9717
3910	0.9723
3901	0.9728
3892	0.9732
3883	0.9735
3874	0.9738
3865	0.9742
3856	0.9742
3847	0.9739
3838	0.9735
3829	0.9732
3820	0.9727
3811	0.9723
3802	0.9718
3793	0.9717
3784	0.9716
3775	0.972
3766	0.9745
3757	0.9768
3748	0.9788
3739	0.9807
3730	0.9821
3721	0.9831
3712	0.9823
3703	0.9814
3694	0.9801
3685	0.979
3676	0.9781
3667	0.9775
3658	0.977
3649	0.9767
3640	0.9768
3631	0.9768
3622	0.9768
3613	0.977
3604	0.9771
3595	0.9774
3586	0.9775
3577	0.9777
3568	0.9778
3559	0.9778
3550	0.9778
3541	0.9775
3532	0.9775
3523	0.9775
3514	0.9777
3505	0.9777
3496	0.9778
3487	0.9778
3478	0.9778
3469	0.9778
3460	0.9778
3451	0.9773
3442	0.9764
3433	0.9753
3424	0.9749
3415	0.9764
3406	0.9778
3397	0.9796
3388	0.9813
3379	0.9825
3370	0.9838
3361	0.9845
3352	0.9844
3343	0.9844
3334	0.9838
3325	0.9832
3316	0.9827
3307	0.9823
3298	0.9825
3289	0.983
3280	0.984
3271	0.985
3262	0.9857
3253	0.9861
3244	0.9863
3235	0.9859
3226	0.9853
3217	0.9842
3208	0.9828
3199	0.9817
3190	0.9811
3181	0.9814
3172	0.9823
3163	0.9835
3154	0.9844
3145	0.985
3136	0.9851
3127	0.9851
3118	0.9835
3109	0.9805
3100	0.9763
3091	0.9694
3082	0.9583
3073	0.933
3064	0.8882
3055	0.8325
3046	0.7764
3037	0.7378
3028	0.7361
3019	0.7385
3010	0.7505
3001	0.7811
2992	0.8175
2983	0.8539
2974	0.8907
2965	0.9244
2956	0.9381
2947	0.9461
2938	0.9502
2929	0.9516
2920	0.9518
2911	0.9532
2902	0.9584
2893	0.965
2884	0.9723
2875	0.9789
2866	0.9837
2857	0.9837
2848	0.9835
2839	0.9835
2830	0.9837
2821	0.9839
2812	0.9844
2803	0.9849
2794	0.9859
2785	0.9878
2776	0.991
2767	0.9955
2758	0.9965
2749	0.9935
2740	0.9914
2731	0.9901
2722	0.9897
2713	0.9894
2704	0.9891
2695	0.9888
2686	0.9885
2677	0.9882
2668	0.9877
2659	0.9874
2650	0.9884
2641	0.9908
2632	0.9939
2623	0.9951
2614	0.9942
2605	0.9924
2596	0.989
2587	0.9863
2578	0.9855
2569	0.9853
2560	0.9864
2551	0.988
2542	0.9877
2533	0.987
2524	0.9871
2515	0.9887
2506	0.9928
2497	0.9942
2488	0.9935
2479	0.9924
2470	0.9909
2461	0.9897
2452	0.9904
2443	0.9936
2434	0.9963
2425	0.9967
2416	0.9949
2407	0.9913
2398	0.991
2389	0.9918
2380	0.9937
2371	0.9963
2362	0.9983
2353	1
2344	1.0015
2335	1.0025
2326	1.0028
2317	1.0028
2308	1.0025
2299	1.0028
2290	1.0033
2281	1.0038
2272	1.004
2263	1.0042
2254	1.0042
2245	1.0043
2236	1.0046
2227	1.0071
2218	1.012
2209	1.0151
2200	1.0166
2191	1.0168
2182	1.0159
2173	1.0121
2164	1.0078
2155	1.0046
2146	1.0036
2137	1.0031
2128	1.0056
2119	1.0075
2110	1.0035
2101	1.001
2092	1.0021
2083	1.0038
2074	1.0048
2065	1.0049
2056	1.0018
2047	0.9934
2038	0.9899
2029	0.9882
2020	0.9875
2011	0.9868
2002	0.986
1993	0.9849
1984	0.9834
1975	0.9816
1966	0.9809
1957	0.9837
1948	0.9791
1939	0.9421
1930	0.9363
1921	0.9588
1912	0.9366
1903	0.9287
1894	0.9445
1885	0.9543
1876	0.954
1867	0.9643
1858	0.9717
1849	0.9728
1840	0.9736
1831	0.9644
1822	0.9488
1813	0.9423
1804	0.9491
1795	0.9324
1786	0.9615
1777	0.9587
1768	0.9563
1759	0.9453
1750	0.9359
1741	0.9421
1732	0.9586
1723	0.945
1714	0.9549
1705	0.9582
1696	0.9507
1687	0.9514
1678	0.9465
1669	0.933
1660	0.9483
1651	0.9627
1642	0.9708
1633	0.9789
1624	0.989
1615	0.982
1606	0.9777
1597	0.9825
1588	0.9401
1579	0.9647
1570	0.9666
1561	0.9664
1552	0.9686
1543	0.9551
1534	0.9537
1525	0.9336
1516	0.9321
1507	0.9478
1498	0.7597
1489	0.9311
1480	0.9482
1471	0.9517
1462	0.9461
1453	0.8228
1444	0.8539
1435	0.9035
1426	0.916
1417	0.9215
1408	0.9323
1399	0.9495
1390	0.9517
1381	0.9534
1372	0.9536
1363	0.9445
1354	0.9352
1345	0.9339
1336	0.9358
1327	0.9354
1318	0.9296
1309	0.9345
1300	0.8936
1291	0.9047
1282	0.918
1273	0.9267
1264	0.9225
1255	0.9218
1246	0.9089
1237	0.7425
1228	0.8533
1219	0.8899
1210	0.8878
1201	0.8864
1192	0.8644
1183	0.8878
1174	0.8781
1165	0.8601
1156	0.8389
1147	0.8403
1138	0.765
1129	0.8437
1120	0.8511
1111	0.8542
1102	0.8612
1093	0.8694
1084	0.8746
1075	0.8939
1066	0.9017
1057	0.9012
1048	0.9034
1039	0.8055
1030	0.8721
1021	0.8947
1012	0.9088
1003	0.8968
994	0.8866
985	0.9059
976	0.8948
967	0.9
958	0.9016
949	0.8763
940	0.8554
931	0.9168
922	0.919
913	0.9189
904	0.9262
895	0.9275
886	0.9295
877	0.9242
868	0.8991
859	0.7369
850	0.846
841	0.931
832	0.9095
823	0.8721
814	0.6487
805	0.4896
796	0.8628
787	0.8964
778	0.8959
769	0.9028
760	0.8909
751	0.8618
742	0.7847
733	0.0367
724	0.7787
715	0.8643
706	0.743
697	0.8903
688	0.8917
679	0.8981
