Infrared Spectrum: PHENANTHRENE
Formula: C14 H10
CAS: 85-01-8
State: SOLUTION (SATURATED IN HEPTANE)
Class: COBLENTZ
Instrument: Not specified, most likely a prism, grating, or hybrid spectrometer.
Sampling: TRANSMISSION
Path length: 0.05 CM
Resolution: 4
Origin: CENTRE D'ETUDES NUCLEAIRES DE GRENOBLE
MICROMETERS	TRANSMITTANCE
14.665	0.843
14.7206	0.848
14.7762	0.853
14.8319	0.857
14.8875	0.863
14.9431	0.867
14.9987	0.872
15.0543	0.875
15.11	0.88
15.1656	0.883
15.2212	0.883
15.2768	0.885
15.3324	0.888
15.3881	0.89
15.4437	0.892
15.4993	0.893
15.5549	0.895
15.6105	0.897
15.6662	0.895
15.7218	0.893
15.7774	0.893
15.833	0.897
15.8886	0.893
15.9443	0.882
15.9999	0.827
16.0555	0.754
16.1111	0.672
16.1667	0.642
16.2224	0.661
16.278	0.732
16.3336	0.822
16.3892	0.873
16.4448	0.895
16.5005	0.901
16.5561	0.905
16.6117	0.905
16.6673	0.905
16.7229	0.906
16.7786	0.911
16.8342	0.913
16.8898	0.913
16.9454	0.915
17.001	0.915
17.0567	0.916
17.1123	0.916
17.1679	0.918
17.2235	0.918
17.2791	0.918
17.3348	0.916
17.3904	0.916
17.446	0.915
17.5016	0.915
17.5572	0.915
17.6129	0.915
17.6685	0.916
17.7241	0.916
17.7797	0.911
17.8353	0.908
17.891	0.908
17.9466	0.91
18.0022	0.911
18.0578	0.908
18.1135	0.901
18.1691	0.9
18.2247	0.89
18.2803	0.883
18.3359	0.883
18.3916	0.893
18.4472	0.898
18.5028	0.901
18.5584	0.903
18.614	0.903
18.6697	0.905
18.7253	0.903
18.7809	0.903
18.8365	0.903
18.8921	0.906
18.9478	0.903
19.0034	0.9
19.059	0.898
19.1146	0.898
19.1702	0.9
19.2259	0.901
19.2815	0.9
19.3371	0.898
19.3927	0.897
19.4483	0.893
19.504	0.89
19.5596	0.885
19.6152	0.882
19.6708	0.872
19.7264	0.858
19.7821	0.845
19.8377	0.827
19.8933	0.803
19.9489	0.739
20.0045	0.672
20.0602	0.563
20.1158	0.475
20.1714	0.451
20.227	0.486
20.2826	0.553
20.3383	0.616
20.3939	0.692
20.4495	0.752
20.5051	0.785
20.5607	0.812
20.6164	0.822
20.672	0.842
20.7276	0.845
20.7832	0.85
20.8388	0.862
20.8945	0.865
20.9501	0.867
21.0057	0.87
21.0613	0.87
21.1169	0.87
21.1726	0.872
21.2282	0.875
21.2838	0.88
21.3394	0.883
21.395	0.887
21.4507	0.888
21.5063	0.89
21.5619	0.892
21.6175	0.892
21.6731	0.892
21.7288	0.892
21.7844	0.892
21.84	0.892
21.8956	0.892
21.9512	0.89
22.0069	0.888
22.0625	0.888
22.1181	0.887
22.1737	0.885
22.2293	0.882
22.285	0.878
22.3406	0.867
22.3962	0.853
22.4518	0.828
22.5074	0.802
22.5631	0.745
22.6187	0.714
22.6743	0.702
22.7299	0.71
22.7855	0.722
22.8412	0.739
22.8968	0.752
22.9524	0.76
23.008	0.752
23.0636	0.727
23.1193	0.674
23.1749	0.601
23.2305	0.524
23.2861	0.431
23.3417	0.383
23.3974	0.36
23.453	0.368
23.5086	0.4
23.5642	0.456
23.6198	0.511
23.6755	0.586
23.7311	0.659
23.7867	0.709
23.8423	0.752
23.8979	0.78
23.9536	0.8
24.0092	0.823
24.0648	0.842
24.1204	0.852
24.176	0.858
24.2317	0.865
24.2873	0.87
24.3429	0.873
24.3985	0.872
24.4542	0.863
24.5098	0.842
24.5654	0.842
24.621	0.848
24.6766	0.857
24.7323	0.863
24.7879	0.875
24.8435	0.883
24.8991	0.888
24.9547	0.895
25.0104	0.893
25.066	0.892
25.1216	0.892
25.1772	0.892
25.2328	0.897
25.2885	0.9
25.3441	0.9
25.3997	0.903
25.4553	0.91
25.5109	0.913
25.5666	0.915
25.6222	0.913
25.6778	0.908
25.7334	0.906
25.789	0.905
25.8447	0.905
25.9003	0.905
25.9559	0.906
26.0115	0.906
26.0671	0.91
26.1228	0.913
26.1784	0.92
26.234	0.918
26.2896	0.916
26.3452	0.915
26.4009	0.915
26.4565	0.913
26.5121	0.911
26.5677	0.91
26.6233	0.911
26.679	0.913
26.7346	0.915
26.7902	0.916
26.8458	0.916
26.9014	0.918
26.9571	0.923
27.0127	0.925
27.0683	0.925
27.1239	0.925
27.1795	0.923
27.2352	0.92
27.2908	0.918
27.3464	0.915
27.402	0.913
27.4576	0.913
27.5133	0.915
27.5689	0.916
27.6245	0.92
27.6801	0.921
27.7357	0.926
27.7914	0.93
27.847	0.93
27.9026	0.93
27.9582	0.926
28.0138	0.921
28.0695	0.916
28.1251	0.915
28.1807	0.913
28.2363	0.913
28.2919	0.915
28.3476	0.915
28.4032	0.918
28.4588	0.92
28.5144	0.92
28.57	0.921
28.6257	0.923
28.6813	0.925
28.7369	0.925
28.7925	0.925
28.8481	0.925
28.9038	0.925
28.9594	0.921
29.015	0.915
29.0706	0.916
29.1262	0.911
29.1819	0.91
29.2375	0.916
29.2931	0.918
29.3487	0.92
29.4043	0.923
29.46	0.925
29.5156	0.926
29.5712	0.926
29.6268	0.925
29.6824	0.923
29.7381	0.92
29.7937	0.916
29.8493	0.915
29.9049	0.911
29.9605	0.908
30.0162	0.908
30.0718	0.91
30.1274	0.911
30.183	0.913
30.2386	0.915
30.2943	0.915
30.3499	0.92
30.4055	0.923
30.4611	0.926
30.5167	0.928
30.5724	0.928
30.628	0.928
30.6836	0.928
30.7392	0.926
30.7949	0.921
30.8505	0.918
30.9061	0.916
30.9617	0.915
31.0173	0.913
31.073	0.913
31.1286	0.911
31.1842	0.91
31.2398	0.908
31.2954	0.906
31.3511	0.91
31.4067	0.913
31.4623	0.916
31.5179	0.92
31.5735	0.923
31.6292	0.925
31.6848	0.926
31.7404	0.926
31.796	0.923
31.8516	0.916
31.9073	0.913
31.9629	0.908
32.0185	0.9
32.0741	0.897
32.1297	0.9
32.1854	0.895
32.241	0.89
32.2966	0.893
32.3522	0.898
32.4078	0.9
32.4635	0.9
32.5191	0.9
32.5747	0.903
32.6303	0.905
32.6859	0.908
32.7416	0.911
32.7972	0.913
32.8528	0.918
32.9084	0.918
32.964	0.92
33.0197	0.908
33.0753	0.903
33.1309	0.895
33.1865	0.892
33.2421	0.888
33.2978	0.887
33.3534	0.885
33.409	0.887
33.4646	0.888
33.5202	0.89
33.5759	0.892
33.6315	0.893
33.6871	0.897
33.7427	0.897
33.7983	0.895
33.854	0.892
33.9096	0.893
33.9652	0.895
34.0208	0.897
34.0764	0.895
34.1321	0.892
34.1877	0.888
34.2433	0.883
34.2989	0.87
34.3545	0.858
34.4102	0.857
34.4658	0.843
34.5214	0.842
34.577	0.832
34.6326	0.83
34.6883	0.825
34.7439	0.817
34.7995	0.813
34.8551	0.812
34.9107	0.812
34.9664	0.81
35.022	0.808
35.0776	0.807
