Infrared Spectrum: ANTHRANILIC ACID, N-METHYL-, METHYL ESTER
Formula: C9 H11 N O2
CAS: 85-91-6
State: LIQUID (NEAT)
Class: COBLENTZ III
Instrument: BECKMAN IR-7 (GRATING)
Instrument parameters: GRATING CHANGES AT 3000, 2200, 1150 CM^-^1
Sampling: TRANSMISSION
Path length: CAPILLARY
Resolution: 4
Origin: WESTERN REGIONAL RES. USDA
1/CM	TRANSMITTANCE
598.679	0.591
607.268	0.59
615.857	0.63
624.446	0.66
633.035	0.678
641.624	0.696
650.213	0.698
658.802	0.659
667.391	0.412
675.98	0.703
684.568	0.727
693.157	0.678
701.746	0.1382
710.335	0.4318
718.924	0.664
727.513	0.676
736.102	0.591
744.691	0.108
753.28	0.021
761.869	0.2199
770.458	0.621
779.047	0.707
787.636	0.707
796.225	0.511
804.814	0.71
813.403	0.746
821.992	0.73
830.581	0.525
839.17	0.479
847.758	0.569
856.347	0.715
864.936	0.799
873.525	0.815
882.114	0.817
890.703	0.818
899.292	0.817
907.881	0.814
916.47	0.812
925.059	0.812
933.648	0.81
942.237	0.798
950.826	0.718
959.415	0.704
968.004	0.647
976.593	0.692
985.182	0.75
993.771	0.764
1002.36	0.768
1010.95	0.758
1019.54	0.745
1028.13	0.709
1036.72	0.62
1045.3	0.42
1053.89	0.629
1062.48	0.31
1071.07	0.4309
1079.66	0.4281
1088.25	0.058
1096.84	0.1979
1105.43	0.342
1114.02	0.3
1122.6	0.079
1131.19	0.031
1139.78	0.2209
1148.37	0.326
1156.96	0.1
1165.55	0.073
1174.14	0.006
1182.73	0.166
1191.32	0.086
1199.91	0.228
1208.49	0.377
1217.08	0.256
1225.67	0.049
1234.26	0.001
1242.85	0
1251.44	0
1260.03	0
1268.62	0.006
1277.21	0.145
1285.79	0.276
1294.38	0.233
1302.97	0.361
1311.56	0.347
1320.15	0.139
1328.74	0.109
1337.33	0.193
1345.92	0.5
1354.51	0.658
1363.1	0.685
1371.68	0.682
1380.27	0.691
1388.86	0.707
1397.45	0.698
1406.04	0.632
1414.63	0.549
1423.22	0.2051
1431.81	0.046
1440.4	0.063
1448.98	0.149
1457.57	0.213
1466.16	0.188
1474.75	0.2321
1483.34	0.3289
1491.93	0.346
1500.52	0.2441
1509.11	0.1121
1517.7	0.012
1526.29	0.019
1534.87	0.4139
1543.46	0.536
1552.05	0.527
1560.64	0.4011
1569.23	0.1292
1577.82	0.009
1586.41	0.027
1595	0.12
1603.59	0.053
1612.17	0.094
1620.76	0.1899
1629.35	0.352
1637.94	0.42
1646.53	0.416
1655.12	0.358
1663.71	0.224
1672.3	0.019
1680.89	0.001
1689.48	0
1698.06	0.005
1706.65	0.11
1715.24	0.364
1723.83	0.532
1732.42	0.635
1741.01	0.67
1749.6	0.684
1758.19	0.692
1766.78	0.72
1775.36	0.752
1783.95	0.767
1792.54	0.753
1801.13	0.764
1809.72	0.787
1818.31	0.798
1826.9	0.809
1835.49	0.824
1844.08	0.831
1852.67	0.833
1861.25	0.83
1869.84	0.831
1878.43	0.831
1887.02	0.823
1895.61	0.805
1904.2	0.796
1912.79	0.782
1921.38	0.752
1929.97	0.749
1938.55	0.775
1947.14	0.789
1955.73	0.804
1964.32	0.813
1972.91	0.831
1981.5	0.839
1990.09	0.843
1998.68	0.841
2007.27	0.8392
2015.86	0.839
2024.44	0.839
2033.03	0.8373
2041.62	0.837
2050.21	0.835
2058.8	0.833
2067.39	0.8291
2075.98	0.8269
2084.57	0.8236
2093.16	0.8195
2101.74	0.815
2110.33	0.8117
2118.92	0.81
2127.51	0.81
2136.1	0.812
2144.69	0.814
2153.28	0.816
2161.87	0.817
2170.46	0.815
2179.05	0.813
2187.63	0.811
2196.22	0.812
2204.81	0.8217
2213.4	0.8308
2221.99	0.835
2230.58	0.834
2239.17	0.833
2247.76	0.8319
2256.35	0.831
2264.93	0.8303
2273.52	0.83
2282.11	0.829
2290.7	0.829
2299.29	0.829
2307.88	0.8279
2316.47	0.827
2325.06	0.826
2333.65	0.825
2342.24	0.826
2350.82	0.825
2359.41	0.824
2368	0.8213
2376.59	0.8135
2385.18	0.812
2393.77	0.813
2402.36	0.8178
2410.95	0.8217
2419.54	0.824
2428.12	0.829
2436.71	0.8306
2445.3	0.8329
2453.89	0.8342
2462.48	0.8355
2471.07	0.836
2479.66	0.8327
2488.25	0.8256
2496.84	0.819
2505.43	0.817
2514.01	0.8192
2522.6	0.8215
2531.19	0.8268
2539.78	0.8299
2548.37	0.828
2556.96	0.8225
2565.55	0.82
2574.14	0.817
2582.73	0.8079
2591.31	0.804
2599.9	0.8076
2608.49	0.8145
2617.08	0.8246
2625.67	0.827
2634.26	0.825
2642.85	0.8128
2651.44	0.791
2660.03	0.7782
2668.62	0.775
2677.2	0.7805
2685.79	0.8023
2694.38	0.8075
2702.97	0.8123
2711.56	0.817
2720.15	0.8166
2728.74	0.8144
2737.33	0.8111
2745.92	0.8038
2754.5	0.8005
2763.09	0.7972
2771.68	0.7939
2780.27	0.7906
2788.86	0.7769
2797.45	0.7368
2806.04	0.6065
2814.63	0.4621
2823.22	0.368
2831.81	0.4625
2840.39	0.516
2848.98	0.5764
2857.57	0.6008
2866.16	0.5324
2874.75	0.4438
2883.34	0.4786
2891.93	0.4911
2900.52	0.3729
2909.11	0.3241
2917.69	0.3795
2926.28	0.418
2934.87	0.3958
2943.46	0.2954
2952.05	0.222
2960.64	0.4008
2969.23	0.4662
2977.82	0.5683
2986.41	0.5481
2995	0.4901
3003.58	0.4373
3012.17	0.464
3020.76	0.5196
3029.35	0.548
3037.94	0.527
3046.53	0.5805
3055.12	0.6467
3063.71	0.6731
3072.3	0.68
3080.88	0.6462
3089.47	0.6011
3098.06	0.6129
3106.65	0.6551
3115.24	0.7048
3123.83	0.7578
3132.42	0.7686
3141.01	0.7719
3149.6	0.7843
3158.19	0.7884
3166.77	0.792
3175.36	0.792
3183.95	0.7913
3192.54	0.789
3201.13	0.788
3209.72	0.786
3218.31	0.7905
3226.9	0.7995
3235.49	0.8091
3244.07	0.811
3252.66	0.8069
3261.25	0.79
3269.84	0.7645
3278.43	0.7606
3287.02	0.7686
3295.61	0.7814
3304.2	0.783
3312.79	0.7759
3321.38	0.7544
3329.96	0.7299
3338.55	0.7063
3347.14	0.6397
3355.73	0.5968
3364.32	0.317
3372.91	0.1849
3381.5	0.1085
3390.09	0.0776
3398.68	0.1556
3407.26	0.2577
3415.85	0.4536
3424.44	0.5548
3433.03	0.6765
3441.62	0.719
3450.21	0.7054
3458.8	0.6857
3467.39	0.6698
3475.98	0.6598
3484.57	0.6344
3493.15	0.624
3501.74	0.6612
3510.33	0.7332
3518.92	0.7946
3527.51	0.8115
3536.1	0.8199
3544.69	0.823
3553.28	0.825
3561.87	0.8287
3570.45	0.831
3579.04	0.833
3587.63	0.8342
3596.22	0.837
3604.81	0.839
3613.4	0.841
3621.99	0.841
3630.58	0.8393
3639.17	0.837
3647.76	0.834
3656.34	0.8356
3664.93	0.8389
3673.52	0.84
3682.11	0.841
3690.7	0.8466
3699.29	0.848
3707.88	0.85
3716.47	0.85
3725.06	0.85
3733.65	0.8497
3742.23	0.8484
3750.82	0.8489
3759.41	0.85
3768	0.8505
3776.59	0.852
3785.18	0.852
3793.77	0.852
3802.36	0.851
3810.95	0.8511
3819.53	0.85
3828.12	0.85
3836.71	0.85
3845.3	0.848
3853.89	0.8466
3862.48	0.847
3871.07	0.846
3879.66	0.844
3888.25	0.8434
3896.84	0.843
3905.42	0.841
3914.01	0.8395
3922.6	0.8382
3931.19	0.8391
3939.78	0.841
3948.37	0.8427
3956.96	0.843
3965.55	0.8417
3974.14	0.841
3982.72	0.841
