Infrared Spectrum: ANTHRANILIC ACID, N-METHYL-, METHYL ESTER
Formula: C9 H11 N O2
CAS: 85-91-6
State: SOLUTION (10% IN CCl4 FOR 4000-1350 CM^-^1, 10% IN CS2 FOR 1350-600 CM^-^1)
Class: COBLENTZ III
Instrument: BECKMAN IR-7 (GRATING)
Instrument parameters: GRATING CHANGES AT 3000, 2200, 1150 CM^-^1
Sampling: TRANSMISSION
Path length: 0.010 CM, 0.010 CM
Resolution: 4
Origin: WESTERN REGIONAL RES. USDA
1/CM	TRANSMITTANCE
598.679	0.636
607.268	0.656
615.857	0.695
624.446	0.718
633.035	0.727
641.624	0.723
650.213	0.703
658.802	0.652
667.391	0.489
675.98	0.713
684.569	0.744
693.158	0.694
701.747	0.109
710.336	0.6169
718.925	0.71
727.513	0.724
736.102	0.682
744.691	0.162
753.28	0.153
761.869	0.6409
770.458	0.754
779.047	0.783
787.636	0.765
796.225	0.6399
804.814	0.772
813.403	0.786
821.992	0.778
830.581	0.512
839.17	0.624
847.759	0.6309
856.348	0.681
864.937	0.719
873.526	0.752
882.115	0.783
890.704	0.821
899.293	0.838
907.882	0.844
916.471	0.849
925.06	0.85
933.649	0.848
942.238	0.835
950.827	0.756
959.416	0.808
968.005	0.767
976.593	0.779
985.182	0.821
993.771	0.825
1002.36	0.823
1010.95	0.819
1019.54	0.801
1028.13	0.772
1036.72	0.689
1045.31	0.618
1053.89	0.7
1062.48	0.388
1071.07	0.5828
1079.66	0.5011
1088.25	0.09
1096.84	0.301
1105.43	0.449
1114.02	0.466
1122.61	0.096
1131.19	0.0919
1139.78	0.4149
1148.37	0.509
1156.96	0.162
1165.55	0.186
1174.14	0.023
1182.73	0.347
1191.32	0.138
1199.91	0.441
1208.5	0.528
1217.08	0.443
1225.67	0.1431
1234.26	0.005
1242.85	0
1251.44	0.015
1260.03	0.001
1268.62	0.095
1277.21	0.302
1285.8	0.452
1294.39	0.364
1302.97	0.532
1311.56	0.4831
1320.15	0.28
1328.74	0.253
1337.33	0.334
1345.92	0.634
1354.51	0.739
1363.1	0.766
1371.69	0.757
1380.27	0.77
1388.86	0.8
1397.45	0.777
1406.04	0.727
1414.63	0.706
1423.22	0.4392
1431.81	0.173
1440.4	0.0789
1448.99	0.291
1457.58	0.396
1466.16	0.299
1474.75	0.405
1483.34	0.499
1491.93	0.464
1500.52	0.366
1509.11	0.345
1517.7	0.043
1526.29	0.057
1534.88	0.358
1543.47	0.385
1552.05	0.361
1560.64	0.33
1569.23	0.328
1577.82	0.05
1586.41	0.02
1595	0.186
1603.59	0.136
1612.18	0.123
1620.77	0.3089
1629.35	0.492
1637.94	0.54
1646.53	0.575
1655.12	0.5
1663.71	0.445
1672.3	0.1841
1680.89	0.006
1689.48	0
1698.07	0.004
1706.66	0.2109
1715.24	0.449
1723.83	0.618
1732.42	0.703
1741.01	0.732
1749.6	0.749
1758.19	0.754
1766.78	0.762
1775.37	0.789
1783.96	0.806
1792.55	0.779
1801.13	0.797
1809.72	0.814
1818.31	0.819
1826.9	0.836
1835.49	0.84
1844.08	0.843
1852.67	0.84
1861.26	0.836
1869.85	0.838
1878.43	0.842
1887.02	0.844
1895.61	0.821
1904.2	0.825
1912.79	0.827
1921.38	0.775
1929.97	0.804
1938.56	0.792
1947.15	0.821
1955.74	0.841
1964.32	0.836
1972.91	0.843
1981.5	0.848
1990.09	0.85
1998.68	0.848
2007.27	0.8472
2015.86	0.846
2024.45	0.846
2033.04	0.845
2041.63	0.844
2050.21	0.843
2058.8	0.842
2067.39	0.842
2075.98	0.8408
2084.57	0.8394
2093.16	0.838
2101.75	0.8348
2110.34	0.8325
2118.93	0.8294
2127.51	0.827
2136.1	0.8266
2144.69	0.825
2153.28	0.826
2161.87	0.827
2170.46	0.827
2179.05	0.8289
2187.64	0.83
2196.23	0.831
2204.82	0.833
2213.4	0.8362
2221.99	0.8385
2230.58	0.84
2239.17	0.8421
2247.76	0.8444
2256.35	0.845
2264.94	0.844
2273.53	0.8427
2282.12	0.842
2290.71	0.8402
2299.29	0.84
2307.88	0.838
2316.47	0.838
2325.06	0.8381
2333.65	0.84
2342.24	0.8408
2350.83	0.8421
2359.42	0.844
2368.01	0.8447
2376.59	0.846
2385.18	0.846
2393.77	0.846
2402.36	0.8489
2410.95	0.8502
2419.54	0.852
2428.13	0.8548
2436.72	0.8573
2445.31	0.8614
2453.9	0.863
2462.48	0.863
2471.07	0.862
2479.66	0.8603
2488.25	0.858
2496.84	0.8534
2505.43	0.849
2514.02	0.848
2522.61	0.8514
2531.2	0.8575
2539.79	0.8598
2548.37	0.86
2556.96	0.859
2565.55	0.8535
2574.14	0.85
2582.73	0.8487
2591.32	0.8414
2599.91	0.836
2608.5	0.8388
2617.09	0.8497
2625.67	0.8569
2634.26	0.8578
2642.85	0.8471
2651.44	0.83
2660.03	0.8228
2668.62	0.8218
2677.21	0.8302
2685.8	0.838
2694.39	0.8413
2702.98	0.844
2711.56	0.846
2720.15	0.8468
2728.74	0.846
2737.33	0.8431
2745.92	0.838
2754.51	0.8365
2763.1	0.834
2771.69	0.8329
2780.28	0.8306
2788.87	0.8249
2797.45	0.82
2806.04	0.7485
2814.63	0.6871
2823.22	0.439
2831.81	0.59
2840.4	0.6823
2848.99	0.694
2857.58	0.625
2866.17	0.6883
2874.75	0.6621
2883.34	0.5554
2891.93	0.5848
2900.52	0.5197
2909.11	0.4278
2917.7	0.4066
2926.29	0.5096
2934.88	0.5421
2943.47	0.4462
2952.06	0.3289
2960.64	0.34
2969.23	0.5002
2977.82	0.662
2986.41	0.6426
2995	0.6078
3003.59	0.5164
3012.18	0.5108
3020.77	0.6017
3029.36	0.648
3037.95	0.594
3046.53	0.6583
3055.12	0.7115
3063.71	0.7036
3072.3	0.7323
3080.89	0.7403
3089.48	0.6626
3098.07	0.6553
3106.66	0.7225
3115.25	0.7516
3123.83	0.8007
3132.42	0.8209
3141.01	0.8298
3149.6	0.8372
3158.19	0.8429
3166.78	0.8452
3175.37	0.846
3183.96	0.8442
3192.55	0.8409
3201.14	0.8376
3209.72	0.8333
3218.31	0.8342
3226.9	0.8434
3235.49	0.856
3244.08	0.859
3252.67	0.8585
3261.26	0.8517
3269.85	0.8299
3278.44	0.8168
3287.03	0.821
3295.61	0.8326
3304.2	0.837
3312.79	0.8346
3321.38	0.8308
3329.97	0.8187
3338.56	0.7836
3347.15	0.736
3355.74	0.6896
3364.33	0.3157
3372.91	0.1806
3381.5	0.1239
3390.09	0.2628
3398.68	0.3865
3407.27	0.4669
3415.86	0.5343
3424.45	0.693
3433.04	0.7836
3441.63	0.8131
3450.22	0.8204
3458.8	0.8009
3467.39	0.7979
3475.98	0.8124
3484.57	0.8194
3493.16	0.8088
3501.75	0.7692
3510.34	0.7585
3518.93	0.7875
3527.52	0.8347
3536.11	0.8536
3544.69	0.8597
3553.28	0.861
3561.87	0.865
3570.46	0.866
3579.05	0.867
3587.64	0.869
3596.23	0.87
3604.82	0.871
3613.41	0.873
3621.99	0.873
3630.58	0.873
3639.17	0.874
3647.76	0.875
3656.35	0.874
3664.94	0.873
3673.53	0.873
3682.12	0.871
3690.71	0.8691
3699.3	0.8678
3707.88	0.867
3716.47	0.8662
3725.06	0.866
3733.65	0.867
3742.24	0.867
3750.83	0.8681
3759.42	0.871
3768.01	0.8717
3776.6	0.872
3785.19	0.871
3793.77	0.8694
3802.36	0.869
3810.95	0.869
3819.54	0.8685
3828.13	0.8672
3836.72	0.867
3845.31	0.866
3853.9	0.865
3862.49	0.865
3871.07	0.8636
3879.66	0.863
3888.25	0.861
3896.84	0.8604
3905.43	0.856
3914.02	0.855
3922.61	0.855
3931.2	0.855
3939.79	0.8542
3948.38	0.854
3956.96	0.853
3965.55	0.852
3974.14	0.85
