Infrared Spectrum: BENZOIC ACID, o-(METHYLAMINO)-,METHYL ESTER
Formula: C9 H11 N O2
CAS: 85-91-6
State: LIQUID (NEAT)
Class: COBLENTZ III
Instrument: PERKIN-ELMER 21 (GRATING)
Instrument parameters: FILTER AT ABOUT 10 MICRONS
Path length: CAPILLARY
Resolution: 2
Origin: ABBOTT LABORATORIES
1/CM	TRANSMITTANCE
665	0.62
674	0.7321
683	0.7383
692	0.7099
701	0.4745
710	0.7415
719	0.7634
728	0.7572
737	0.685
746	0.3551
755	0.4457
764	0.7475
773	0.8042
782	0.8063
791	0.7618
800	0.8144
809	0.827
818	0.8158
827	0.7447
836	0.75
845	0.7981
854	0.8416
863	0.853
872	0.8527
881	0.8525
890	0.8522
899	0.8519
908	0.8516
917	0.8513
926	0.8459
935	0.836
944	0.8202
953	0.8148
962	0.8078
971	0.8211
980	0.8328
989	0.8289
998	0.8227
1007	0.8175
1016	0.8086
1025	0.7962
1034	0.732
1043	0.7743
1052	0.7453
1061	0.6272
1070	0.6802
1079	0.6604
1088	0.4029
1097	0.7353
1106	0.6994
1115	0.592
1124	0.3085
1133	0.6325
1142	0.6708
1151	0.5509
1160	0.4473
1169	0.2457
1178	0.5587
1187	0.5036
1196	0.6494
1205	0.6795
1214	0.6142
1223	0.3636
1232	0.1083
1241	0.0772
1250	0.1834
1259	0.0975
1268	0.3915
1277	0.6226
1286	0.7261
1295	0.7421
1304	0.7228
1313	0.6067
1322	0.5079
1331	0.5801
1340	0.7683
1349	0.8083
1358	0.8088
1367	0.811
1376	0.8172
1385	0.8084
1394	0.7952
1403	0.78
1412	0.7244
1421	0.554
1430	0.3857
1439	0.436
1448	0.5913
1457	0.5967
1466	0.6439
1475	0.6295
1484	0.7097
1493	0.678
1502	0.6
1511	0.3931
1520	0.2513
1529	0.5537
1538	0.7582
1547	0.7646
1556	0.754
1565	0.6689
1574	0.4003
1583	0.2624
1592	0.5022
1601	0.4934
1610	0.4475
1619	0.682
1628	0.7133
1637	0.7148
1646	0.7014
1655	0.6619
1664	0.6033
1673	0.3123
1682	0.1175
1691	0.1549
1700	0.3921
1709	0.6423
1718	0.7745
1727	0.8081
1736	0.8191
1745	0.8254
1754	0.829
1763	0.8389
1772	0.8413
1781	0.8416
1790	0.8404
1799	0.8439
1808	0.8568
1817	0.8609
1826	0.861
1835	0.8598
1844	0.8583
1853	0.8568
1862	0.8549
1871	0.8529
1880	0.851
1889	0.8487
1898	0.8463
1907	0.8452
1916	0.8468
1925	0.8497
1934	0.8539
1943	0.8562
1952	0.8583
1961	0.8602
1970	0.8621
1979	0.8627
1988	0.8633
1997	0.863
2006	0.862
2015	0.8608
2024	0.8594
2033	0.8581
2042	0.8604
2051	0.8628
2060	0.8625
2069	0.8619
2078	0.8613
2087	0.8612
2096	0.8612
2105	0.8613
2114	0.8613
2123	0.8613
2132	0.8616
2141	0.8619
2150	0.8622
2159	0.8625
2168	0.8628
2177	0.8629
2186	0.8624
2195	0.8619
2204	0.8615
2213	0.861
2222	0.8606
2231	0.8601
2240	0.8601
2249	0.8601
2258	0.8601
2267	0.8601
2276	0.8632
2285	0.8677
2294	0.8678
2303	0.8673
2312	0.867
2321	0.8666
2330	0.866
2339	0.8656
2348	0.865
2357	0.8643
2366	0.8609
2375	0.8572
2384	0.8573
2393	0.8583
2402	0.861
2411	0.8623
2420	0.8623
2429	0.8614
2438	0.8604
2447	0.8575
2456	0.8558
2465	0.8552
2474	0.8565
2483	0.8576
2492	0.8582
2501	0.857
2510	0.8548
2519	0.8534
2528	0.8531
2537	0.8528
2546	0.8524
2555	0.8521
2564	0.8518
2573	0.8515
2582	0.8512
2591	0.8509
2600	0.8498
2609	0.8484
2618	0.8472
2627	0.8453
2636	0.8433
2645	0.8435
2654	0.8448
2663	0.8459
2672	0.8471
2681	0.8484
2690	0.849
2699	0.8472
2708	0.8435
2717	0.8398
2726	0.8362
2735	0.8323
2744	0.8284
2753	0.8244
2762	0.8203
2771	0.8157
2780	0.8054
2789	0.7879
2798	0.7613
2807	0.7492
2816	0.7495
2825	0.7544
2834	0.7548
2843	0.7481
2852	0.7332
2861	0.7196
2870	0.711
2879	0.7036
2888	0.696
2897	0.6875
2906	0.6827
2915	0.6806
2924	0.6798
2933	0.68
2942	0.6827
2951	0.6964
2960	0.7412
2969	0.7496
2978	0.7523
2987	0.7571
2996	0.78
3005	0.7933
3014	0.7983
3023	0.8041
3032	0.8085
3041	0.8094
3050	0.8101
3059	0.8132
3068	0.8195
3077	0.8291
3086	0.8328
3095	0.8349
3104	0.835
3113	0.835
3122	0.8351
3131	0.835
3140	0.8348
3149	0.8344
3158	0.8342
3167	0.834
3176	0.8338
3185	0.8334
3194	0.8329
3203	0.8324
3212	0.8319
3221	0.8314
3230	0.8299
3239	0.8282
3248	0.8264
3257	0.8242
3266	0.8219
3275	0.8173
3284	0.8118
3293	0.8029
3302	0.7917
3311	0.7799
3320	0.7452
3329	0.6979
3338	0.6507
3347	0.6039
3356	0.5574
3365	0.5367
3374	0.5367
3383	0.569
3392	0.654
3401	0.7385
3410	0.8127
3419	0.8186
3428	0.8202
3437	0.8225
3446	0.8312
3455	0.8416
3464	0.8457
3473	0.8471
3482	0.8485
3491	0.8497
3500	0.8504
3509	0.8512
3518	0.8519
3527	0.8527
3536	0.8532
3545	0.8537
3554	0.8542
3563	0.8547
3572	0.8551
3581	0.8553
3590	0.8555
3599	0.8557
3608	0.8559
3617	0.856
3626	0.8562
3635	0.8564
3644	0.8565
3653	0.8567
3662	0.8568
3671	0.8569
3680	0.8571
3689	0.8573
3698	0.8574
3707	0.8575
3716	0.8572
3725	0.8567
3734	0.8562
3743	0.8558
3752	0.8553
3761	0.8546
3770	0.8539
3779	0.8532
3788	0.8527
3797	0.8526
3806	0.8525
3815	0.8524
3824	0.8522
3833	0.8522
3842	0.852
3851	0.852
3860	0.852
3869	0.8519
3878	0.8519
3887	0.8519
3896	0.8518
3905	0.8518
3914	0.8516
3923	0.8515
3932	0.8514
3941	0.8513
3950	0.8512
3959	0.8511
3968	0.851
3977	0.8509
3986	0.8508
3995	0.8506
