Infrared Spectrum: 3-(t-Octylamino)propionitrile
Formula: C 11 H 22 N 2
CAS: 86375-28-2
State: gas
Origin: EPA-IR VAPOR PHASE LIBRARY
1/CM	ABSORBANCE
549.8	0.0030447
559.445	0.0026847
569.09	0.0027747
578.734	0.0030747
588.379	0.0029547
598.024	0.0034947
607.669	0.0034447
617.313	0.0038547
626.958	0.0043747
636.603	0.0049547
646.248	0.0059747
655.893	0.0069447
665.537	0.0077847
675.182	0.0087247
684.827	0.0093747
694.472	0.0089347
704.116	0.0075947
713.761	0.0058347
723.406	0.0046547
733.051	0.0043847
742.695	0.0041947
752.34	0.0029847
761.985	0.0029147
771.63	0.0024947
781.275	0.0026447
790.919	0.0020247
800.564	0.0017747
810.209	0.0016147
819.854	0.0017047
829.498	0.0018347
839.143	0.0018847
848.788	0.0019447
858.433	0.0018247
868.078	0.0017547
877.722	0.0014847
887.367	0.0018047
897.012	0.0021247
906.657	0.0023647
916.301	0.0028347
925.946	0.0024647
935.591	0.0024847
945.236	0.0028347
954.88	0.0031247
964.525	0.0031647
974.17	0.0038047
983.815	0.0033947
993.46	0.0022247
1003.1	0.0018147
1012.75	0.0017647
1022.39	0.0021347
1032.04	0.0025147
1041.68	0.0028147
1051.33	0.0024447
1060.97	0.0028847
1070.62	0.0032347
1080.26	0.0052847
1089.91	0.0094947
1099.55	0.0131147
1109.2	0.0099547
1118.84	0.0090947
1128.49	0.0118947
1138.13	0.0164947
1147.78	0.0190647
1157.42	0.0169747
1167.07	0.0103647
1176.71	0.0076347
1186.36	0.0093747
1196	0.0138947
1205.64	0.0204247
1215.29	0.0290747
1224.93	0.0340947
1234.58	0.0262947
1244.22	0.0164047
1253.87	0.0098247
1263.51	0.0065847
1273.16	0.0043547
1282.8	0.0032247
1292.45	0.0029047
1302.09	0.0029147
1311.74	0.0040747
1321.38	0.0059047
1331.03	0.0062547
1340.67	0.0088447
1350.32	0.0132247
1359.96	0.0200347
1369.61	0.0295147
1379.25	0.0232047
1388.9	0.0206147
1398.54	0.0149447
1408.18	0.0086947
1417.83	0.0087147
1427.47	0.0132047
1437.12	0.0135347
1446.76	0.0152547
1456.41	0.0195547
1466.05	0.0249747
1475.7	0.0295147
1485.34	0.0267647
1494.99	0.0156047
1504.63	0.0070847
1514.28	0.0038347
1523.92	0.0025347
1533.57	0.0019047
1543.21	0.0015947
1552.86	0.0012547
1562.5	0.0010247
1572.15	0.000941
1581.79	0.0009349
1591.44	0.0008018
1601.08	0.0007256
1610.73	0.0007502
1620.37	0.0007599
1630.01	0.0007706
1639.66	0.0007222
1649.3	0.0006651
1658.95	0.0006034
1668.59	0.0005783
1678.24	0.0006173
1687.88	0.0006883
1697.53	0.000604
1707.17	0.000549
1716.82	0.0005925
1726.46	0.0006107
1736.11	0.0005307
1745.75	0.0005762
1755.4	0.0006367
1765.04	0.0005244
1774.69	0.0006512
1784.33	0.0006312
1793.98	0.0006077
1803.62	0.0006097
1813.27	0.0004898
1822.91	0.0005517
1832.55	0.0004197
1842.2	0.0004358
1851.84	0.0004467
1861.49	0.0004467
1871.13	0.0003902
1880.78	0.0004239
1890.42	0.0003579
1900.07	0.0003706
1909.71	0.0003485
1919.36	0.0003347
1929	0.0003938
1938.65	0.0003639
1948.29	0.0003116
1957.94	0.0003288
1967.58	0.0003093
1977.23	0.0003005
1986.87	0.0002556
1996.52	0.0002494
2006.16	0.0002565
2015.81	0.0001994
2025.45	0.0002323
2035.1	0.0002902
2044.74	0.0002513
2054.38	0.00031
2064.03	0.0001994
2073.67	0.00031
2083.32	0.0002975
2092.96	0.000302
2102.61	0.0003722
2112.25	0.0003599
2121.9	0.0003725
2131.54	0.0003906
2141.19	0.000351
2150.83	0.0004286
2160.48	0.000449
2170.12	0.0004525
2179.77	0.0004651
2189.41	0.0005104
2199.06	0.0004239
2208.7	0.0005052
2218.35	0.0005097
2227.99	0.0006286
2237.64	0.0010647
2247.28	0.0021747
2256.92	0.0018447
2266.57	0.0008614
2276.21	0.0005726
2285.86	0.000577
2295.5	0.000478
2305.15	0.0003908
2314.79	0.000389
2324.44	0.0003888
2334.08	0.0003806
2343.73	0.0003875
2353.37	0.0003714
2363.02	0.0003914
2372.66	0.0003765
2382.31	0.0003687
2391.95	0.0004051
2401.6	0.0003999
2411.24	0.0004351
2420.89	0.0004819
2430.53	0.0004091
2440.18	0.0003469
2449.82	0.0003738
2459.47	0.0004677
2469.11	0.0004097
2478.75	0.0003757
2488.4	0.0004801
2498.04	0.0004168
2507.69	0.0005143
2517.33	0.0004485
2526.98	0.0004636
2536.62	0.0005818
2546.27	0.000488
2555.91	0.0006902
2565.56	0.0007032
2575.2	0.0006476
2584.85	0.0007202
2594.49	0.0008596
2604.14	0.0009136
2613.78	0.0009211
2623.43	0.0009305
2633.07	0.0010347
2642.72	0.0013047
2652.36	0.0013747
2662.01	0.0014347
2671.65	0.0017847
2681.29	0.0021247
2690.94	0.0024247
2700.58	0.0024347
2710.23	0.0026047
2719.87	0.0025847
2729.52	0.0025647
2739.16	0.0024047
2748.81	0.0024947
2758.45	0.0025847
2768.1	0.0027147
2777.74	0.0029347
2787.39	0.0035747
2797.03	0.0045247
2806.68	0.0056147
2816.32	0.0074547
2825.97	0.0099347
2835.61	0.0143947
2845.26	0.0208147
2854.9	0.0268147
2864.55	0.0329547
2874.19	0.0419947
2883.84	0.0465947
2893.48	0.0476847
2903.12	0.0557447
2912.77	0.0646347
2922.41	0.0608847
2932.06	0.0614547
2941.7	0.0721047
2951.35	0.0981147
2960.99	0.138325
2970.64	0.128445
2980.28	0.0813147
2989.93	0.0505647
2999.57	0.0337547
3009.22	0.0192047
3018.86	0.0089547
3028.51	0.0050047
3038.15	0.0033847
3047.8	0.0025847
3057.44	0.0022147
3067.09	0.0019447
3076.73	0.0018447
3086.38	0.0018347
3096.02	0.0016947
3105.67	0.0016147
3115.31	0.0015647
3124.95	0.0014647
3134.6	0.0014847
3144.24	0.0014547
3153.89	0.0013747
3163.53	0.0015047
3173.18	0.0016247
3182.82	0.0017147
3192.47	0.0015447
3202.11	0.0016147
3211.76	0.0016547
3221.4	0.0016547
3231.05	0.0014047
3240.69	0.0013547
3250.34	0.0012347
3259.98	0.0011647
3269.63	0.0009712
3279.27	0.0007322
3288.92	0.0006692
3298.56	0.0007338
3308.21	0.0005175
3317.85	0.0008255
3327.49	0.0009813
3337.14	0.0007915
3346.78	0.0006942
3356.43	0.0008271
3366.07	0.0009181
3375.72	0.0010547
3385.36	0.0009515
3395.01	0.0009297
3404.65	0.0007955
3414.3	0.0007629
3423.94	0.0008799
3433.59	0.0005807
3443.23	0.0005044
3452.88	0.0004584
3462.52	0.0002884
3472.17	0.0003971
3481.81	0.0002043
3491.46	0.000475
3501.1	0.0003078
3510.75	0.0002674
3520.39	0.0003391
3530.04	0.0002376
3539.68	0.0003565
3549.32	0.0004038
3558.97	2.0571e-05
3568.61	0.0001519
3578.26	0.0001889
3587.9	0.0002307
3597.55	0.0002976
3607.19	0.0003664
3616.84	0.0001787
3626.48	0.0001173
3636.13	9.542e-05
3645.77	0.0002958
3655.42	0.0001949
3665.06	0.0003337
3674.71	0.0002671
3684.35	0.0001467
3694	0.0002431
3703.64	0.0002273
3713.29	0.0002244
3722.93	0.0002953
3732.58	0.0001392
3742.22	0.000126
3751.86	4.294e-05
3761.51	0.0002222
3771.15	0.0003103
3780.8	0.0001351
3790.44	0.0002195
3800.09	0.0002552
3809.73	0.0004241
3819.38	0.0003521
3829.02	0.0003764
3838.67	0.0004691
3848.31	0.000401
3857.96	0.000525
3867.6	0.0004055
3877.25	0.0002697
3886.89	0.0004112
3896.54	0.0005596
3906.18	0.0003976
3915.83	0.0003993
3925.47	0.0004526
3935.12	0.0003986
3944.76	0.0004279
3954.41	0.0004614
3964.05	0.0004609
3973.69	0.0005779
3983.34	0.0004403
3992.98	0.0005982
