Infrared Spectrum: 1-NAPHTHOIC ACID
Formula: C11 H8 O2
CAS: 86-55-5
State: SOLID (SPLIT MULL)
Melting point: 161 C
Class: COBLENTZ III
Instrument: DOW KBr FOREPRISM-GRATING
Instrument parameters: BLAZED AT 3.5, 12.0, 20.0 MICRON AND CHANGED AT 5.0, 7.5, 14.9 MICRON
Sampling: TRANSMISSION
Resolution: 2
Origin: DOW CHEMICAL COMPANY
1/CM	TRANSMITTANCE
384	0.998
393	1.0018
402	0.9999
411	0.9963
420	0.9905
429	0.9816
438	0.9766
447	0.9659
456	0.9473
465	0.9144
474	0.8425
483	0.9043
492	0.8552
501	0.8408
510	0.9073
519	0.9264
528	0.9128
537	0.9261
546	0.9241
555	0.9177
564	0.9071
573	0.8798
582	0.8043
591	0.7508
600	0.9042
609	0.8887
618	0.9266
627	0.9218
636	0.9083
645	0.8768
654	0.9046
663	0.9243
672	0.9377
681	0.9483
690	0.9421
699	0.9311
708	0.9102
717	0.8345
726	0.8331
735	0.8528
744	0.8139
753	0.7208
762	0.7868
771	0.0867
780	0.5012
789	0.8388
798	0.8397
807	0.7174
816	0.8837
825	0.8792
834	0.8678
843	0.8483
852	0.8058
861	0.748
870	0.7945
879	0.6945
888	0.6336
897	0.6776
906	0.7667
915	0.8221
924	0.8358
933	0.8539
942	0.8175
951	0.8435
960	0.8538
969	0.8483
978	0.8596
987	0.8549
996	0.7495
1005	0.8608
1014	0.865
1023	0.8371
1032	0.8812
1041	0.8808
1050	0.8787
1059	0.8753
1068	0.8639
1077	0.8563
1086	0.8754
1095	0.8768
1104	0.8668
1113	0.8571
1122	0.8474
1131	0.8266
1140	0.7012
1149	0.5514
1158	0.8198
1167	0.7912
1176	0.8
1185	0.7825
1194	0.7182
1203	0.4916
1212	0.72
1221	0.7639
1230	0.748
1239	0.6639
1248	0.5186
1257	0.4821
1266	0.5946
1275	0.6828
1284	0.627
1293	0.407
1302	0.0951
1311	0.3105
1320	0.6703
1329	0.7575
1338	0.735
1347	0.6846
1356	0.7084
1365	0.7918
1374	0.7774
1383	0.7539
1392	0.7721
1401	0.7658
1410	0.6611
1419	0.5954
1428	0.7843
1437	0.7099
1446	0.6396
1455	0.8012
1464	0.7258
1473	0.8441
1482	0.8255
1491	0.8069
1500	0.7669
1509	0.6678
1518	0.5662
1527	0.8321
1536	0.8221
1545	0.8146
1554	0.8034
1563	0.7691
1572	0.7064
1581	0.7318
1590	0.583
1599	0.7593
1608	0.7187
1617	0.6607
1626	0.6282
1635	0.6401
1644	0.5712
1653	0.4894
1662	0.3109
1671	0.1485
1680	0.1389
1689	0.3882
1698	0.6845
1707	0.7844
1716	0.8268
1725	0.8641
1734	0.87
1743	0.8721
1752	0.8721
1761	0.8698
1770	0.8642
1779	0.8588
1788	0.8573
1797	0.8561
1806	0.8461
1815	0.8449
1824	0.8468
1833	0.8412
1842	0.8363
1851	0.8325
1860	0.8345
1869	0.8361
1878	0.8328
1887	0.8315
1896	0.8285
1905	0.8261
1914	0.829
1923	0.8218
1932	0.8185
1941	0.8141
1950	0.805
1959	0.8312
1968	0.8158
1977	0.8071
1986	0.7996
1995	0.7901
2004	0.8499
2013	0.8503
2022	0.8494
2031	0.8466
2040	0.8434
2049	0.8404
2058	0.8375
2067	0.8316
2076	0.8255
2085	0.8195
2094	0.8147
2103	0.8098
2112	0.805
2121	0.8006
2130	0.7964
2139	0.7928
2148	0.7896
2157	0.7865
2166	0.7836
2175	0.7805
2184	0.7774
2193	0.7736
2202	0.7689
2211	0.7631
2220	0.758
2229	0.7528
2238	0.748
2247	0.743
2256	0.7378
2265	0.7321
2274	0.7264
2283	0.7201
2292	0.7141
2301	0.708
2310	0.7019
2319	0.6962
2328	0.6914
2337	0.6865
2346	0.6818
2355	0.6772
2364	0.6736
2373	0.6708
2382	0.6692
2391	0.6665
2400	0.6635
2409	0.6599
2418	0.6551
2427	0.6495
2436	0.6437
2445	0.6376
2454	0.6308
2463	0.6234
2472	0.614
2481	0.6054
2490	0.5977
2499	0.5906
2508	0.5835
2517	0.5817
2526	0.5854
2535	0.5843
2544	0.5805
2553	0.5768
2562	0.5731
2571	0.567
2580	0.5587
2589	0.5484
2598	0.5371
2607	0.5247
2616	0.5207
2625	0.5223
2634	0.526
2643	0.5306
2652	0.5376
2661	0.5448
2670	0.5478
2679	0.5472
2688	0.5466
2697	0.5462
2706	0.5459
2715	0.5457
2724	0.5428
2733	0.5346
2742	0.5255
2751	0.516
2760	0.5072
2769	0.4997
2778	0.4933
2787	0.4884
2796	0.486
2805	0.484
2814	0.4819
2823	0.4787
2832	0.4729
2841	0.4672
2850	0.4617
2859	0.4552
2868	0.4475
2877	0.4467
2886	0.4472
2895	0.4477
2904	0.4481
2913	0.4452
2922	0.4392
2931	0.4344
2940	0.431
2949	0.431
2958	0.4312
2967	0.4315
2976	0.4319
2985	0.4324
2994	0.4327
3003	0.4326
3012	0.4317
3021	0.4297
3030	0.421
3039	0.4059
3048	0.39
3057	0.4118
3066	0.441
3075	0.4428
3084	0.4429
3093	0.4529
3102	0.4701
3111	0.482
3120	0.495
3129	0.5082
3138	0.5177
3147	0.525
3156	0.5322
3165	0.5396
3174	0.5475
3183	0.5554
3192	0.5633
3201	0.5709
3210	0.5802
3219	0.5892
3228	0.5959
3237	0.6019
3246	0.6079
3255	0.6128
3264	0.6176
3273	0.6217
3282	0.6246
3291	0.6266
3300	0.6278
3309	0.629
3318	0.6293
3327	0.6294
3336	0.6294
3345	0.6293
3354	0.6286
3363	0.626
3372	0.6243
3381	0.6227
3390	0.6209
3399	0.6191
3408	0.6173
3417	0.6152
3426	0.6132
3435	0.611
3444	0.609
3453	0.6062
3462	0.6032
3471	0.6
3480	0.5968
3489	0.5942
3498	0.5917
3507	0.5891
3516	0.5865
3525	0.584
3534	0.5816
3543	0.5792
3552	0.577
3561	0.5748
3570	0.5725
3579	0.5702
3588	0.5679
3597	0.5655
3606	0.5638
3615	0.5621
3624	0.5604
3633	0.5587
3642	0.5569
3651	0.5551
3660	0.5533
3669	0.5515
3678	0.5496
3687	0.5477
3696	0.5458
3705	0.5439
3714	0.5417
3723	0.5394
3732	0.5371
3741	0.5348
3750	0.5326
3759	0.5303
3768	0.5287
3777	0.5271
3786	0.5255
3795	0.5239
3804	0.5222
3813	0.5206
