Infrared Spectrum: FLUORENE
Formula: C13 H10
CAS: 86-73-7
State: SOLUTION (10% CS2 FOR 3800-450 CM^-^1)
Class: COBLENTZ
Instrument: DOW KBr FOREPRISM-GRATING
Instrument parameters: BLAZED AT 3.5, 12.0, 20.0 MICRON AND CHANGED AT 5.0, 7.5, 14.9 MICRON
Sampling: TRANSMISSION
Path length: 0.012 CM
Resolution: 2
Origin: DOW CHEMICAL COMPANY
1/CM	TRANSMITTANCE
446	0.8398
455	0.8263
464	0.7812
473	0.8802
482	0.8794
491	0.9003
500	0.9132
509	0.9168
518	0.9171
527	0.9214
536	0.9174
545	0.9181
554	0.9256
563	0.9243
572	0.922
581	0.9187
590	0.9143
599	0.909
608	0.8951
617	0.3997
626	0.8545
635	0.8718
644	0.8433
653	0.8241
662	0.8725
671	0.8634
680	0.8378
689	0.4212
698	0.8247
707	0.8233
716	0.7336
725	0.5682
734	0.0033
743	0.1581
752	0.6528
761	0.7665
770	0.8021
779	0.8214
788	0.8436
797	0.822
806	0.7689
815	0.8539
824	0.8504
833	0.8076
842	0.7108
851	0.5518
860	0.6675
869	0.7081
878	0.7771
887	0.8274
896	0.8425
905	0.8386
914	0.8563
923	0.8466
932	0.8396
941	0.7493
950	0.3196
959	0.8312
968	0.8337
977	0.8503
986	0.8459
995	0.6302
1004	0.8391
1013	0.7731
1022	0.69
1031	0.8175
1040	0.8668
1049	0.8671
1058	0.867
1067	0.857
1076	0.8483
1085	0.6697
1094	0.8301
1103	0.822
1112	0.8601
1121	0.8517
1130	0.8239
1139	0.7858
1148	0.7761
1157	0.7871
1166	0.7006
1175	0.7956
1184	0.3618
1193	0.7228
1202	0.851
1211	0.823
1220	0.8491
1229	0.6511
1238	0.8654
1247	0.8673
1256	0.8654
1265	0.8567
1274	0.8516
1283	0.8132
1292	0.586
1301	0.7775
1310	0.795
1319	0.8196
1328	0.7498
1337	0.7984
1346	0.813
1355	0.8091
1364	0.7744
1373	0.6586
1382	0.6674
1391	0.4981
1400	0.2282
1409	0.3422
1418	0.2781
1427	0.1077
1436	0.0379
1445	0.0019
1454	0.0018
1463	0.0017
1472	0.0016
1481	0.0015
1490	0.0014
1499	0.0013
1508	0.0012
1517	0.0011
1526	0.001
1535	0.0009
1544	0.0008
1553	0.0007
1562	0.0006
1571	0.0089
1580	0.0375
1589	0.1027
1598	0.3672
1607	0.4742
1616	0.6476
1625	0.7271
1634	0.7753
1643	0.8433
1652	0.8567
1661	0.851
1670	0.8133
1679	0.8528
1688	0.8125
1697	0.8746
1706	0.862
1715	0.8609
1724	0.8788
1733	0.8836
1742	0.8728
1751	0.8771
1760	0.8671
1769	0.8782
1778	0.8734
1787	0.853
1796	0.7765
1805	0.8368
1814	0.8531
1823	0.8185
1832	0.8421
1841	0.8484
1850	0.8728
1859	0.8814
1868	0.8775
1877	0.8371
1886	0.809
1895	0.8533
1904	0.7736
1913	0.8637
1922	0.8362
1931	0.8401
1940	0.7231
1949	0.87
1958	0.8915
1967	0.8912
1976	0.8903
1985	0.892
1994	0.9033
2003	0.8925
2012	0.8871
2021	0.8909
2030	0.8943
2039	0.8757
2048	0.869
2057	0.8743
2066	0.8712
2075	0.8558
2084	0.8192
2093	0.7411
2102	0.6446
2111	0.5473
2120	0.333
2129	0.1963
2138	0.0638
2147	0.0047
2156	0.0029
2165	0.0063
2174	0.0242
2183	0.0725
2192	0.2183
2201	0.4652
2210	0.7426
2219	0.7921
2228	0.8295
2237	0.8421
2246	0.8368
2255	0.8228
2264	0.7826
2273	0.6893
2282	0.5081
2291	0.2547
2300	0.3382
2309	0.5408
2318	0.6179
2327	0.7154
2336	0.8056
2345	0.8671
2354	0.8873
2363	0.8943
2372	0.8946
2381	0.8951
2390	0.8949
2399	0.8949
2408	0.8952
2417	0.8949
2426	0.8944
2435	0.8928
2444	0.8924
2453	0.8973
2462	0.8978
2471	0.8978
2480	0.8982
2489	0.899
2498	0.8991
2507	0.8985
2516	0.8968
2525	0.8938
2534	0.8924
2543	0.8964
2552	0.8951
2561	0.8924
2570	0.8902
2579	0.8886
2588	0.8878
2597	0.8871
2606	0.8866
2615	0.8906
2624	0.8859
2633	0.8799
2642	0.8915
2651	0.8943
2660	0.8909
2669	0.8934
2678	0.8944
2687	0.8941
2696	0.8934
2705	0.8932
2714	0.8935
2723	0.8923
2732	0.8871
2741	0.8812
2750	0.8735
2759	0.8611
2768	0.847
2777	0.8275
2786	0.7642
2795	0.7814
2804	0.8171
2813	0.8563
2822	0.8655
2831	0.8594
2840	0.8658
2849	0.8706
2858	0.871
2867	0.8589
2876	0.8028
2885	0.6355
2894	0.6501
2903	0.643
2912	0.6494
2921	0.7812
2930	0.8381
2939	0.8449
2948	0.8491
2957	0.8564
2966	0.8645
2975	0.864
2984	0.8556
2993	0.8281
3002	0.6748
3011	0.5576
3020	0.3653
3029	0.5036
3038	0.4439
3047	0.3884
3056	0.5097
3065	0.4102
3074	0.2639
3083	0.7361
3092	0.6711
3101	0.8171
3110	0.8762
3119	0.8883
3128	0.8961
3137	0.8992
3146	0.8944
3155	0.879
3164	0.8817
3173	0.9015
3182	0.9107
3191	0.9125
3200	0.9123
3209	0.9112
3218	0.9118
3227	0.9134
3236	0.9158
3245	0.9175
3254	0.9193
3263	0.9213
3272	0.9233
3281	0.925
3290	0.9262
3299	0.9266
3308	0.927
3317	0.9273
3326	0.9275
3335	0.9275
3344	0.9274
3353	0.9271
3362	0.9271
3371	0.9271
3380	0.9271
3389	0.9271
3398	0.9305
3407	0.9327
3416	0.9324
3425	0.9304
3434	0.9281
3443	0.9257
3452	0.9235
3461	0.9215
3470	0.9195
3479	0.9183
3488	0.9171
3497	0.9161
3506	0.9148
3515	0.9131
3524	0.9113
3533	0.9093
3542	0.9074
3551	0.9058
3560	0.9061
3569	0.9065
3578	0.9067
3587	0.9066
3596	0.9064
3605	0.9059
3614	0.9047
3623	0.903
3632	0.9016
3641	0.8977
3650	0.8947
3659	0.8971
3668	0.8994
3677	0.8991
3686	0.8988
3695	0.9005
3704	0.9037
3713	0.9021
3722	0.8997
3731	0.9
3740	0.898
3749	0.8941
3758	0.8953
3767	0.8971
3776	0.8982
3785	0.8974
3794	0.8957
3803	0.8953
3812	0.8918
