Infrared Spectrum: Fluorene
Formula: C 13 H 10
CAS: 86-73-7
State: solid
Instrument: Bruker Tensor 37 FTIR
Resolution: 0.96450084
Origin: Pacific Northwest National Laboratory Under IARPA Contract
1/cm	Reflectance
7498.99	0.718602
7481.63	0.69358
7464.27	0.679229
7446.91	0.688578
7429.55	0.696173
7412.19	0.684877
7394.84	0.672702
7377.48	0.675562
7360.12	0.663384
7342.76	0.658717
7325.4	0.670599
7308.04	0.649667
7290.68	0.623668
7273.32	0.654867
7255.96	0.655605
7238.6	0.663562
7221.24	0.663041
7203.88	0.671913
7186.52	0.670408
7169.16	0.669769
7151.8	0.682554
7134.44	0.68736
7117.08	0.687178
7099.72	0.690058
7082.36	0.694272
7065	0.706798
7047.64	0.708917
7030.28	0.705631
7012.92	0.706607
6995.56	0.714227
6978.2	0.716045
6960.84	0.713372
6943.48	0.712549
6926.12	0.712316
6908.76	0.71199
6891.4	0.70236
6874.04	0.674075
6856.68	0.662208
6839.32	0.636516
6821.96	0.548501
6804.6	0.447998
6787.24	0.439302
6769.88	0.465568
6752.52	0.307253
6735.16	0.198228
6717.8	0.20175
6700.44	0.307269
6683.08	0.383918
6665.72	0.332474
6648.36	0.444592
6631	0.476712
6613.64	0.433704
6596.28	0.4158
6578.92	0.347677
6561.56	0.433088
6544.2	0.489611
6526.85	0.545658
6509.49	0.548124
6492.13	0.525338
6474.77	0.543945
6457.41	0.563349
6440.05	0.551861
6422.69	0.529671
6405.33	0.560317
6387.97	0.572864
6370.61	0.56212
6353.25	0.56016
6335.89	0.511273
6318.53	0.518274
6301.17	0.586513
6283.81	0.57993
6266.45	0.563699
6249.09	0.55922
6231.73	0.54406
6214.37	0.511523
6197.01	0.544906
6179.65	0.535797
6162.29	0.520333
6144.93	0.503833
6127.57	0.484256
6110.21	0.425464
6092.85	0.317226
6075.49	0.16715
6058.13	0.199364
6040.77	0.218908
6023.41	0.285672
6006.05	0.253477
5988.69	0.339902
5971.33	0.373436
5953.97	0.371312
5936.61	0.314986
5919.25	0.28767
5901.89	0.1948
5884.53	0.255153
5867.17	0.147359
5849.81	0.197781
5832.45	0.210685
5815.09	0.151928
5797.73	0.179726
5780.37	0.139901
5763.01	0.185961
5745.65	0.261745
5728.29	0.282402
5710.93	0.2331
5693.57	0.136793
5676.21	0.177752
5658.86	0.17332
5641.5	0.228727
5624.14	0.204818
5606.78	0.247673
5589.42	0.230663
5572.06	0.209615
5554.7	0.296007
5537.34	0.36231
5519.98	0.193546
5502.62	0.339712
5485.26	0.287908
5467.9	0.352034
5450.54	0.384332
5433.18	0.365772
5415.82	0.348296
5398.46	0.355017
5381.1	0.339865
5363.74	0.279217
5346.38	0.215481
5329.02	0.113508
5311.66	0.140771
5294.3	0.0469568
5276.94	0.0357216
5259.58	0.0366573
5242.22	0.0834441
5224.86	0.0941197
5207.5	0.0468966
5190.14	0.113228
5172.78	0.163903
5155.42	0.19621
5138.06	0.116747
5120.7	0.258641
5103.34	0.280167
5085.98	0.242918
5068.62	0.129621
5051.26	0.215266
5033.9	0.276432
5016.54	0.236889
4999.18	0.289291
4981.82	0.268815
4964.46	0.296778
4947.1	0.284549
4929.74	0.248272
4912.38	0.18194
4895.02	0.231463
4877.66	0.14891
4860.3	0.278959
4842.94	0.285834
4825.58	0.299472
4808.22	0.337338
4790.86	0.295328
4773.51	0.413944
4756.15	0.313317
4738.79	0.242685
4721.43	0.0929967
4704.07	0.0567109
4686.71	0.163815
4669.35	0.0932307
4651.99	0.0449142
4634.63	0.101791
4617.27	0.147167
4599.91	0.0950802
4582.55	0.137027
4565.19	0.154583
4547.83	0.0522883
4530.47	0.178312
4513.11	0.0981361
4495.75	0.109431
4478.39	0.0455009
4461.03	0.0557503
4443.67	0.0328954
4426.31	0.118034
4408.95	0.0720567
4391.59	0.126597
4374.23	0.167354
4356.87	0.0788513
4339.51	0.0712696
4322.15	0.093733
4304.79	0.0627794
4287.43	0.195221
4270.07	0.16303
4252.71	0.114676
4235.35	0.130764
4217.99	0.143061
4200.63	0.120544
4183.27	0.0792098
4165.91	0.157009
4148.55	0.160095
4131.19	0.0581794
4113.83	0.0533472
4096.47	0.0530033
4079.11	0.189649
4061.75	0.101185
4044.39	0.708646
4027.03	0.689942
4009.67	0.687063
3992.31	0.684512
3974.95	0.700159
3957.59	0.685479
3940.23	0.67971
3922.87	0.675008
3905.52	0.661927
3888.16	0.670781
3870.8	0.672347
3853.44	0.643674
3836.08	0.639276
3818.72	0.661575
3801.36	0.653537
3784	0.666609
3766.64	0.671593
3749.28	0.675788
3731.92	0.67377
3714.56	0.680742
3697.2	0.687862
3679.84	0.694387
3662.48	0.693705
3645.12	0.697363
3627.76	0.703517
3610.4	0.708383
3593.04	0.713361
3575.68	0.716518
3558.32	0.713722
3540.96	0.719915
3523.6	0.718904
3506.24	0.712269
3488.88	0.718499
3471.52	0.715059
3454.16	0.710487
3436.8	0.696351
3419.44	0.679129
3402.08	0.66367
3384.72	0.62965
3367.36	0.516431
3350	0.459877
3332.64	0.495283
3315.28	0.449356
3297.92	0.281323
3280.56	0.204677
3263.2	0.235453
3245.84	0.342164
3228.48	0.41521
3211.12	0.407036
3193.76	0.470414
3176.4	0.493482
3159.04	0.375087
3141.68	0.43449
3124.32	0.348782
3106.96	0.461625
3089.6	0.502699
3072.24	0.557153
3054.88	0.559163
3037.53	0.542692
3020.17	0.555507
3002.81	0.569197
2985.45	0.558836
2968.09	0.538735
2950.73	0.575157
2933.37	0.576727
2916.01	0.569556
2898.65	0.543422
2881.29	0.558689
2863.93	0.513229
2846.57	0.595693
2829.21	0.586599
2811.85	0.57576
2794.49	0.559999
2777.13	0.566354
2759.77	0.543919
2742.41	0.544655
2725.05	0.54818
2707.69	0.532105
2690.33	0.501421
2672.97	0.486269
2655.61	0.423089
2638.25	0.251948
2620.89	0.169053
2603.53	0.200434
2586.17	0.264742
2568.81	0.265977
2551.45	0.293286
2534.09	0.35419
2516.73	0.411843
2499.37	0.342213
2482.01	0.292463
2464.65	0.296306
2447.29	0.161682
2429.93	0.213034
2412.57	0.176742
2395.21	0.175734
2377.85	0.177995
2360.49	0.227451
2343.13	0.174292
2325.77	0.160067
2308.41	0.21692
2291.05	0.265017
2273.69	0.296666
2256.33	0.195636
2238.97	0.165322
2221.61	0.152331
2204.25	0.175411
2186.89	0.230812
2169.53	0.263647
2152.18	0.272
2134.82	0.263765
2117.46	0.21567
2100.1	0.291449
2082.74	0.3409
2065.38	0.142173
2048.02	0.358704
2030.66	0.297083
2013.3	0.375359
1995.94	0.356388
1978.58	0.396804
1961.22	0.325342
1943.86	0.358866
1926.5	0.322416
1909.14	0.243702
1891.78	0.169042
1874.42	0.108194
1857.06	0.134918
1839.7	0.0507134
1822.34	0.0333512
1804.98	0.0429163
1787.62	0.0888339
1770.26	0.101084
1752.9	0.0654407
1735.54	0.130178
1718.18	0.185638
1700.82	0.134773
1683.46	0.179219
1666.1	0.312011
1648.74	0.264672
1631.38	0.240668
1614.02	0.18498
1596.66	0.232858
1579.3	0.271137
1561.94	0.306179
1544.58	0.254058
1527.22	0.230561
1509.86	0.272449
1492.5	0.321244
1475.14	0.203253
1457.78	0.149177
1440.42	0.251852
1423.06	0.180969
1405.7	0.271149
1388.34	0.333382
1370.98	0.319653
1353.62	0.29244
1336.26	0.368613
1318.9	0.374973
1301.54	0.293385
1284.19	0.201615
1266.83	0.0893049
1249.47	0.0798051
1232.11	0.15776
1214.75	0.0792068
1197.39	0.130505
1180.03	0.134635
1162.67	0.111224
1145.31	0.0947121
1127.95	0.113577
1110.59	0.135615
1093.23	0.106336
1075.87	0.183826
1058.51	0.138238
1041.15	0.0602298
1023.79	0.0283344
1006.43	0.0317931
989.068	0.072284
971.709	0.0545414
954.349	0.057063
936.989	0.142198
919.629	0.0843695
902.269	0.0719862
884.91	0.100131
867.55	0.139103
850.19	0.109571
832.83	0.16658
815.47	0.0646289
798.111	0.0578142
780.751	0.0986077
763.391	0.169704
746.031	0.116616
728.671	0.061328
711.312	0.14622
693.952	0.141039
676.592	0.0235883
659.232	0.0748166
641.872	0.137666
624.513	0.190276
607.153	0.282897
