Infrared Spectrum: PHOSPHONIC ACID, DIMETHYL ESTER
Formula: C2 H7 O3 P
CAS: 868-85-9
Class: COBLENTZ
Instrument: Not specified, most likely a prism, grating, or hybrid spectrometer.
Sampling: TRANSMISSION
Path length: SMEAR
Resolution: 4
Origin: TENNESSEE EASTMAN COMPANY, RESEARCH LABORATORIES
MICROMETERS	TRANSMITTANCE
2.071	0.985
2.11109	0.976
2.15118	0.975
2.19127	0.971
2.23136	0.968
2.27145	0.963
2.31154	0.958
2.35163	0.955
2.39172	0.951
2.43181	0.953
2.4719	0.951
2.51199	0.951
2.55208	0.95
2.59218	0.951
2.63227	0.956
2.67236	0.953
2.71245	0.953
2.75254	0.938
2.79263	0.875
2.83272	0.798
2.87281	0.72
2.9129	0.706
2.95299	0.736
2.99308	0.79
3.03317	0.831
3.07326	0.843
3.11335	0.855
3.15344	0.875
3.19353	0.896
3.23362	0.901
3.27371	0.906
3.3138	0.886
3.35389	0.853
3.39398	0.793
3.43407	0.89
3.47416	0.893
3.51425	0.865
3.55435	0.92
3.59444	0.925
3.63453	0.926
3.67462	0.93
3.71471	0.93
3.7548	0.93
3.79489	0.931
3.83498	0.931
3.87507	0.931
3.91516	0.933
3.95525	0.931
3.99534	0.931
4.03543	0.93
4.07552	0.921
4.11561	0.9
4.1557	0.87
4.19579	0.87
4.23588	0.905
4.27597	0.97
4.31606	0.996
4.35615	0.99
4.39624	0.95
4.43633	0.94
4.47642	0.935
4.51652	0.935
4.55661	0.935
4.5967	0.935
4.63679	0.933
4.67688	0.933
4.71697	0.931
4.75706	0.93
4.79715	0.931
4.83724	0.931
4.87733	0.931
4.91742	0.93
4.95751	0.928
4.9976	0.928
5.03769	0.93
5.07778	0.93
5.11787	0.928
5.15796	0.926
5.19805	0.928
5.23814	0.925
5.27823	0.921
5.31832	0.921
5.35841	0.921
5.3985	0.92
5.43859	0.92
5.47869	0.92
5.51878	0.918
5.55887	0.921
5.59896	0.923
5.63905	0.925
5.67914	0.925
5.71923	0.926
5.75932	0.923
5.79941	0.92
5.8395	0.921
5.87959	0.921
5.91968	0.923
5.95977	0.92
5.99986	0.908
6.03995	0.87
6.08004	0.87
6.12013	0.865
6.16022	0.868
6.20031	0.88
6.2404	0.891
6.28049	0.898
6.32058	0.903
6.36067	0.911
6.40076	0.918
6.44085	0.921
6.48095	0.921
6.52104	0.921
6.56113	0.923
6.60122	0.921
6.64131	0.92
6.6814	0.911
6.72149	0.881
6.76158	0.851
6.80167	0.805
6.84176	0.788
6.88185	0.79
6.92194	0.84
6.96203	0.88
7.00212	0.898
7.04221	0.908
7.0823	0.916
7.12239	0.923
7.16248	0.925
7.20257	0.925
7.24266	0.923
7.28275	0.923
7.32284	0.923
7.36293	0.923
7.40302	0.923
7.44312	0.923
7.48321	0.923
7.5233	0.921
7.56339	0.918
7.60348	0.911
7.64357	0.898
7.68366	0.868
7.72375	0.828
7.76384	0.778
7.80393	0.628
7.84402	0.5
7.88411	0.413
7.9242	0.383
7.96429	0.37
8.00438	0.385
8.04447	0.428
8.08456	0.503
8.12465	0.596
8.16474	0.683
8.20483	0.736
8.24492	0.751
8.28501	0.755
8.3251	0.733
8.36519	0.688
8.40529	0.655
8.44538	0.66
8.48547	0.703
8.52556	0.743
8.56565	0.768
8.60574	0.791
8.64583	0.798
8.68592	0.8
8.72601	0.808
8.7661	0.808
8.80619	0.808
8.84628	0.803
8.88637	0.795
8.92646	0.783
8.96655	0.771
9.00664	0.751
9.04673	0.721
9.08682	0.66
9.12691	0.601
9.167	0.531
9.20709	0.495
9.24718	0.485
9.28727	0.498
9.32736	0.498
9.36746	0.476
9.40755	0.446
9.44764	0.403
9.48773	0.383
9.52782	0.363
9.56791	0.36
9.608	0.378
9.64809	0.423
9.68818	0.473
9.72827	0.498
9.76836	0.523
9.80845	0.53
9.84854	0.526
9.88863	0.505
9.92872	0.481
9.96881	0.46
10.0089	0.433
10.049	0.413
10.0891	0.398
10.1292	0.368
10.1693	0.353
10.2094	0.341
10.2494	0.351
10.2895	0.418
10.3296	0.501
10.3697	0.586
10.4098	0.668
10.4499	0.73
10.49	0.758
10.5301	0.791
10.5702	0.811
10.6103	0.831
10.6503	0.838
10.6904	0.845
10.7305	0.85
10.7706	0.853
10.8107	0.858
10.8508	0.861
10.8909	0.865
10.931	0.866
10.9711	0.868
11.0112	0.871
11.0513	0.873
11.0913	0.873
11.1314	0.876
11.1715	0.876
11.2116	0.878
11.2517	0.88
11.2918	0.88
11.3319	0.881
11.372	0.881
11.4121	0.881
11.4522	0.881
11.4922	0.881
11.5323	0.881
11.5724	0.88
11.6125	0.88
11.6526	0.875
11.6927	0.866
11.7328	0.853
11.7729	0.836
11.813	0.808
11.8531	0.786
11.8932	0.746
11.9332	0.718
11.9733	0.681
12.0134	0.648
12.0535	0.628
12.0936	0.621
12.1337	0.623
12.1738	0.636
12.2139	0.663
12.254	0.69
12.2941	0.718
12.3341	0.741
12.3742	0.756
12.4143	0.771
12.4544	0.776
12.4945	0.776
12.5346	0.776
12.5747	0.775
12.6148	0.761
12.6549	0.743
12.695	0.731
12.735	0.718
12.7751	0.711
12.8152	0.718
12.8553	0.721
12.8954	0.731
12.9355	0.738
12.9756	0.74
13.0157	0.741
13.0558	0.743
13.0959	0.743
13.136	0.745
13.176	0.756
13.2161	0.773
13.2562	0.783
13.2963	0.8
13.3364	0.806
13.3765	0.813
13.4166	0.816
13.4567	0.816
13.4968	0.816
13.5369	0.818
13.5769	0.818
13.617	0.818
13.6571	0.818
13.6972	0.816
13.7373	0.813
13.7774	0.81
13.8175	0.81
13.8576	0.808
13.8977	0.801
13.9378	0.798
13.9779	0.798
14.0179	0.791
14.058	0.783
14.0981	0.778
14.1382	0.771
14.1783	0.768
14.2184	0.761
14.2585	0.758
14.2986	0.751
14.3387	0.746
14.3788	0.74
14.4188	0.738
14.4589	0.735
14.499	0.73
14.5391	0.725
14.5792	0.721
14.6193	0.713
14.6594	0.711
14.6995	0.705
14.7396	0.701
14.7797	0.698
14.8198	0.695
14.8598	0.69
14.8999	0.683
14.94	0.678
14.9801	0.676
15.0202	0.673
15.0603	0.668
15.1004	0.665
15.1405	0.658
15.1806	0.655
15.2207	0.653
15.2607	0.653
15.3008	0.651
15.3409	0.65
15.381	0.648
15.4211	0.646
15.4612	0.646
15.5013	0.641
15.5414	0.641
15.5815	0.64
15.6216	0.64
15.6616	0.638
15.7017	0.638
15.7418	0.636
15.7819	0.636
15.822	0.636
15.8621	0.636
15.9022	0.636
15.9423	0.636
15.9824	0.636
