Infrared Spectrum: Phosphonic acid, dimethyl ester
Formula: C2 H7 O3 P
CAS: 868-85-9
State: SOLUTION (10% CCl4 FOR 3800-1330, 10% CS2 FOR 1330-400 CM^-^1)
Class: COBLENTZ III
Instrument: DOW KBr FOREPRISM-GRATING
Instrument parameters: BLAZED AT 3.5, 12.0, 20.0 MICRON AND CHANGED AT 5.0, 7.5, 14.9 MICRON
Sampling: TRANSMISSION
Path length: 0.010 CM, 0.010 CM
Resolution: 2
Origin: DOW CHEMICAL COMPANY
1/CM	TRANSMITTANCE
385	0.1817
394	0.1964
403	0.2472
412	0.4186
421	0.5355
430	0.577
439	0.5828
448	0.5696
457	0.5762
466	0.6617
475	0.7057
484	0.6919
493	0.6307
502	0.5476
511	0.5541
520	0.55
529	0.5153
538	0.3339
547	0.1744
556	0.3764
565	0.6226
574	0.7851
583	0.8348
592	0.8568
601	0.8697
610	0.8782
619	0.8812
628	0.8713
637	0.8494
646	0.8158
655	0.8108
664	0.8723
673	0.8832
682	0.8828
691	0.876
700	0.8687
709	0.8587
718	0.8427
727	0.8207
736	0.7824
745	0.7128
754	0.4335
763	0.211
772	0.2572
781	0.3218
790	0.3918
799	0.4064
808	0.2961
817	0.0828
826	0.0832
835	0.2579
844	0.4376
853	0.4374
862	0.5852
871	0.676
880	0.7238
889	0.749
898	0.7611
907	0.7508
916	0.7376
925	0.7191
934	0.6634
943	0.561
952	0.3634
961	0.1462
970	0.001
979	0.0035
988	0.0128
997	0.037
1006	0.0847
1015	0.1157
1024	0.0835
1033	0.0196
1042	0.0024
1051	0.0022
1060	0.0089
1069	0.0223
1078	0.0169
1087	0.0164
1096	0.1079
1105	0.2737
1114	0.3975
1123	0.4574
1132	0.5158
1141	0.5225
1150	0.5162
1159	0.4815
1168	0.3888
1177	0.2469
1186	0.1483
1195	0.261
1204	0.4122
1213	0.4422
1222	0.4152
1231	0.355
1240	0.2158
1249	0.0545
1258	0.0056
1267	0.0074
1276	0.0075
1285	0.0276
1294	0.1949
1303	0.3972
1312	0.54
1321	0.6362
1330	0.6937
1339	0.7225
1348	0.7236
1357	0.7175
1366	0.7167
1375	0.7218
1384	0.7274
1393	0.7291
1402	0.7261
1411	0.7147
1420	0.6925
1429	0.658
1438	0.5909
1447	0.3455
1456	0.3241
1465	0.3099
1474	0.4023
1483	0.4785
1492	0.5942
1501	0.5899
1510	0.5727
1519	0.5473
1528	0.5195
1537	0.4614
1546	0.4096
1555	0.4235
1564	0.4864
1573	0.5417
1582	0.5636
1591	0.5879
1600	0.6715
1609	0.7421
1618	0.7721
1627	0.7881
1636	0.8001
1645	0.8092
1654	0.8192
1663	0.8268
1672	0.8309
1681	0.8328
1690	0.8318
1699	0.8268
1708	0.8165
1717	0.8061
1726	0.794
1735	0.793
1744	0.7986
1753	0.8087
1762	0.8134
1771	0.8125
1780	0.8103
1789	0.8004
1798	0.7867
1807	0.7725
1816	0.7678
1825	0.7757
1834	0.7868
1843	0.7908
1852	0.7919
1861	0.7925
1870	0.7919
1879	0.7908
1888	0.7881
1897	0.7841
1906	0.7855
1915	0.8097
1924	0.8271
1933	0.8295
1942	0.8297
1951	0.8338
1960	0.8352
1969	0.8323
1978	0.8327
1987	0.8287
1996	0.8181
2005	0.8396
2014	0.845
2023	0.8488
2032	0.8518
2041	0.8521
2050	0.8521
2059	0.8518
2068	0.8515
2077	0.8521
2086	0.8528
2095	0.8535
2104	0.8543
2113	0.8546
2122	0.8547
2131	0.8548
2140	0.8549
2149	0.8553
2158	0.856
2167	0.8568
2176	0.8568
2185	0.8564
2194	0.856
2203	0.8552
2212	0.8535
2221	0.8518
2230	0.848
2239	0.8415
2248	0.8334
2257	0.8291
2266	0.8283
2275	0.8289
2284	0.8299
2293	0.8303
2302	0.8275
2311	0.8148
2320	0.8035
2329	0.7938
2338	0.7837
2347	0.7654
2356	0.7426
2365	0.7371
2374	0.7151
2383	0.6694
2392	0.6065
2401	0.5767
2410	0.5402
2419	0.4884
2428	0.4457
2437	0.4281
2446	0.4369
2455	0.5117
2464	0.5858
2473	0.7449
2482	0.7874
2491	0.8087
2500	0.8207
2509	0.83
2518	0.8382
2527	0.8439
2536	0.8486
2545	0.8512
2554	0.8538
2563	0.8544
2572	0.8542
2581	0.8531
2590	0.8504
2599	0.8471
2608	0.8444
2617	0.8435
2626	0.8448
2635	0.8482
2644	0.8509
2653	0.853
2662	0.8545
2671	0.8543
2680	0.8539
2689	0.8525
2698	0.8514
2707	0.8503
2716	0.8493
2725	0.8473
2734	0.8452
2743	0.8435
2752	0.8418
2761	0.8398
2770	0.837
2779	0.8341
2788	0.8296
2797	0.8232
2806	0.814
2815	0.8017
2824	0.7822
2833	0.6967
2842	0.5723
2851	0.34
2860	0.5789
2869	0.7408
2878	0.7382
2887	0.7212
2896	0.6854
2905	0.6317
2914	0.6489
2923	0.6453
2932	0.6073
2941	0.511
2950	0.2622
2959	0.171
2968	0.4531
2977	0.5129
2986	0.496
2995	0.4677
3004	0.4781
3013	0.4899
3022	0.52
3031	0.6132
3040	0.7008
3049	0.7378
3058	0.7558
3067	0.7653
3076	0.7746
3085	0.7841
3094	0.7957
3103	0.8075
3112	0.8182
3121	0.8352
3130	0.8453
3139	0.8495
3148	0.8508
3157	0.852
3166	0.8534
3175	0.8546
3184	0.8552
3193	0.8554
3202	0.8559
3211	0.8565
3220	0.8573
3229	0.8578
3238	0.8585
3247	0.8591
3256	0.8599
3265	0.8607
3274	0.8614
3283	0.8618
3292	0.8621
3301	0.8616
3310	0.8612
3319	0.861
3328	0.861
3337	0.8616
3346	0.8606
3355	0.8551
3364	0.8528
3373	0.8514
3382	0.8498
3391	0.8471
3400	0.8442
3409	0.8402
3418	0.8362
3427	0.8324
3436	0.8307
3445	0.8291
3454	0.828
3463	0.8278
3472	0.8283
3481	0.8294
3490	0.8321
3499	0.8366
3508	0.842
3517	0.8478
3526	0.8531
3535	0.8578
3544	0.8625
3553	0.8659
3562	0.8659
3571	0.8646
3580	0.8575
3589	0.8639
3598	0.8733
3607	0.8657
3616	0.8771
3625	0.8784
3634	0.8785
3643	0.8782
3652	0.8782
3661	0.878
3670	0.8778
3679	0.8775
3688	0.8778
3697	0.8798
3706	0.8833
3715	0.8852
3724	0.8857
3733	0.8853
3742	0.8843
3751	0.8832
3760	0.8823
3769	0.8817
3778	0.8816
3787	0.882
3796	0.8833
