Infrared Spectrum: 2,6-XYLIDINE
Formula: C8 H11 N
CAS: 87-62-7
State: LIQUID (NEAT)
Class: COBLENTZ III
Instrument: BECKMAN IR-4 (HYBRID PRISM-GRATING)
Instrument parameters: NaCl PRISM
Sampling: TRANSMISSION
Path length: CAPILLARY
Resolution: 2
Origin: MONSANTO (J. FREEMAN)
1/CM	TRANSMITTANCE
3944.77	0.8908
3935.92	0.8918
3927.08	0.8928
3918.23	0.8941
3909.38	0.8952
3900.53	0.8964
3891.69	0.8975
3882.84	0.8988
3873.99	0.9
3865.14	0.9012
3856.3	0.9021
3847.45	0.9025
3838.6	0.9027
3829.75	0.9028
3820.91	0.9032
3812.06	0.9035
3803.21	0.9038
3794.36	0.9036
3785.52	0.9035
3776.67	0.9033
3767.82	0.9032
3758.97	0.903
3750.13	0.9028
3741.28	0.9027
3732.43	0.9024
3723.59	0.9021
3714.74	0.9017
3705.89	0.9014
3697.04	0.9011
3688.2	0.9007
3679.35	0.9002
3670.5	0.8993
3661.65	0.8984
3652.81	0.8975
3643.96	0.8967
3635.11	0.8954
3626.26	0.8938
3617.42	0.8921
3608.57	0.8902
3599.72	0.8879
3590.87	0.8855
3582.03	0.8823
3573.18	0.879
3564.33	0.8755
3555.48	0.8711
3546.64	0.8665
3537.79	0.8595
3528.94	0.8505
3520.1	0.8387
3511.25	0.8108
3502.4	0.7206
3493.55	0.6352
3484.71	0.5794
3475.86	0.579
3467.01	0.5926
3458.16	0.6103
3449.32	0.6282
3440.47	0.646
3431.62	0.6503
3422.77	0.6418
3413.93	0.5809
3405.08	0.5114
3396.23	0.4512
3387.38	0.4449
3378.54	0.4612
3369.69	0.5051
3360.84	0.5492
3352	0.5936
3343.15	0.6383
3334.3	0.6831
3325.45	0.7283
3316.61	0.7737
3307.76	0.8193
3298.91	0.8492
3290.06	0.8499
3281.22	0.8497
3272.37	0.8493
3263.52	0.8476
3254.67	0.8453
3245.83	0.8423
3236.98	0.8409
3228.13	0.8415
3219.28	0.8431
3210.44	0.8522
3201.59	0.862
3192.74	0.8719
3183.89	0.8818
3175.05	0.8897
3166.2	0.8914
3157.35	0.8915
3148.51	0.8911
3139.66	0.8877
3130.81	0.8798
3121.96	0.8629
3113.12	0.8294
3104.27	0.7955
3095.42	0.7614
3086.57	0.7271
3077.73	0.6926
3068.88	0.6578
3060.03	0.623
3051.18	0.5878
3042.34	0.5864
3033.49	0.6192
3024.64	0.6524
3015.79	0.6837
3006.95	0.6765
2998.1	0.5769
2989.25	0.528
2980.4	0.541
2971.56	0.5577
2962.71	0.5735
2953.86	0.5342
2945.02	0.4557
2936.17	0.4296
2927.32	0.4612
2918.47	0.5034
2909.63	0.546
2900.78	0.5846
2891.93	0.5733
2883.08	0.5519
2874.24	0.5356
2865.39	0.5366
2856.54	0.7277
2847.69	0.8545
2838.85	0.867
2830	0.8784
2821.15	0.8901
2812.3	0.9004
2803.46	0.903
2794.61	0.9015
2785.76	0.8938
2776.91	0.8766
2768.07	0.8721
2759.22	0.8721
2750.37	0.8798
2741.53	0.8921
2732.68	0.9022
2723.83	0.9112
2714.98	0.9203
2706.14	0.9281
2697.29	0.9328
2688.44	0.9327
2679.59	0.929
2670.75	0.9226
2661.9	0.9147
2653.05	0.9086
2644.2	0.9094
2635.36	0.9185
2626.51	0.9248
2617.66	0.9276
2608.81	0.9293
2599.97	0.9312
2591.12	0.9323
2582.27	0.9332
2573.43	0.9342
2564.58	0.9354
2555.73	0.9367
2546.88	0.9383
2538.04	0.9396
2529.19	0.9405
2520.34	0.9404
2511.49	0.9361
2502.65	0.9335
2493.8	0.9323
2484.95	0.9316
2476.1	0.9309
2467.26	0.9308
2458.41	0.9309
2449.56	0.9313
2440.71	0.9329
2431.87	0.9345
2423.02	0.9365
2414.17	0.9387
2405.32	0.9398
2396.48	0.9409
2387.63	0.9418
2378.78	0.9428
2369.94	0.9436
2361.09	0.9431
2352.24	0.9424
2343.39	0.9416
2334.55	0.9416
2325.7	0.9418
2316.85	0.9418
2308	0.9421
2299.16	0.9424
2290.31	0.9428
2281.46	0.9417
2272.61	0.9412
2263.77	0.9413
2254.92	0.9421
2246.07	0.9432
2237.22	0.944
2228.38	0.9448
2219.53	0.9456
2210.68	0.946
2201.83	0.9465
2192.99	0.9467
2184.14	0.9467
2175.29	0.9461
2166.45	0.9448
2157.6	0.9431
2148.75	0.9415
2139.9	0.9418
2131.06	0.9439
2122.21	0.9447
2113.36	0.9424
2104.51	0.9418
2095.67	0.9424
2086.82	0.9439
2077.97	0.9435
2069.12	0.9426
2060.28	0.9423
2051.43	0.942
2042.58	0.9423
2033.73	0.9426
2024.89	0.9438
2016.04	0.945
2007.19	0.9455
1998.34	0.9458
1989.5	0.9461
1980.65	0.946
1971.8	0.9458
1962.96	0.9457
1954.11	0.9446
1945.26	0.941
1936.41	0.9347
1927.57	0.9231
1918.72	0.9141
1909.87	0.9047
1901.02	0.897
1892.18	0.9102
1883.33	0.9279
1874.48	0.9331
1865.63	0.9311
1856.79	0.9204
1847.94	0.9118
1839.09	0.9117
1830.24	0.9212
1821.4	0.935
1812.55	0.9388
1803.7	0.9267
1794.86	0.9139
1786.01	0.9122
1777.16	0.9231
1768.31	0.9322
1759.47	0.9403
1750.62	0.9472
1741.77	0.9514
1732.92	0.95
1724.08	0.9448
1715.23	0.9394
1706.38	0.9311
1697.53	0.9168
1688.69	0.8972
1679.84	0.8694
1670.99	0.8049
1662.14	0.751
1653.3	0.6362
1644.45	0.4403
1635.6	0.2841
1626.75	0.1351
1617.91	0.0981
1609.06	0.3024
1600.21	0.5029
1591.37	0.6123
1582.52	0.7276
1573.67	0.8397
1564.82	0.868
1555.98	0.8687
1547.13	0.861
1538.28	0.8483
1529.43	0.8378
1520.59	0.8246
1511.74	0.7613
1502.89	0.6628
1494.04	0.3995
1485.2	0.1214
1476.35	0.0447
1467.5	0.3133
1458.65	0.5466
1449.81	0.4266
1440.96	0.382
1432.11	0.4308
1423.26	0.7069
1414.42	0.8472
1405.57	0.8801
1396.72	0.876
1387.88	0.7653
1379.03	0.6637
1370.18	0.8725
1361.33	0.9204
1352.49	0.9298
1343.64	0.9276
1334.79	0.9105
1325.94	0.8207
1317.1	0.6692
1308.25	0.8162
1299.4	0.8284
1290.55	0.6967
1281.71	0.3675
1272.86	0.3525
1264.01	0.5606
1255.16	0.7716
1246.32	0.8876
1237.47	0.7657
1228.62	0.6669
1219.77	0.8539
1210.93	0.8969
1202.08	0.9111
1193.23	0.916
1184.39	0.9172
1175.54	0.9113
1166.69	0.8817
1157.84	0.8902
1149	0.8621
1140.15	0.8519
1131.3	0.8845
1122.45	0.9008
1113.61	0.8906
1104.76	0.7803
1095.91	0.5491
1087.06	0.5399
1078.22	0.8166
1069.37	0.8857
1060.52	0.9
1051.67	0.903
1042.83	0.8893
1033.98	0.7972
1025.13	0.8103
1016.28	0.8553
1007.44	0.7079
998.59	0.7748
989.743	0.7137
980.895	0.84
972.048	0.8755
963.201	0.8714
954.353	0.8461
945.506	0.8473
936.658	0.8808
927.811	0.8856
918.964	0.8863
910.116	0.8822
901.269	0.8569
892.422	0.8107
883.574	0.8613
874.727	0.8729
865.879	0.8667
857.032	0.8575
848.185	0.8419
839.337	0.8008
830.49	0.7821
821.642	0.7883
812.795	0.791
803.948	0.781
795.1	0.7579
786.253	0.7
777.406	0.6017
768.558	0.2863
759.711	0.0875
750.863	0.2699
742.016	0.4128
733.169	0.2873
724.321	0.6704
715.474	0.7072
706.626	0.672
697.779	0.6437
688.932	0.628
680.084	0.6212
671.237	0.6557
662.39	0.6114
653.542	0.6127
644.695	0.6175
635.847	0.6246
