Infrared Spectrum: BENZOTHIAZOLE, 2-PHENYL-
Formula: C13 H9 N S
CAS: 883-93-2
State: SOLID (0.4% IN 390 mg KBr DISC)
Melting point: 114 C
Class: COBLENTZ II
Instrument: PERKIN-ELMER 621 (GRATING)
Instrument parameters: GRATING CHANGE AT 623; ORDER CHANGE AT 2000. FILTERS AT 3146, 2494, 2000, 1146, 698, 497 CM^-^1
Sampling: TRANSMISSION
Resolution: 2
Origin: PERKIN-ELMER CORP. (R. HANNAH)
1/CM	TRANSMITTANCE
4000	0.6408
3990	0.6415
3980	0.6421
3970	0.6415
3960	0.6421
3950	0.6425
3940	0.6428
3930	0.6431
3920	0.6437
3910	0.6444
3900	0.6451
3890	0.6458
3880	0.6468
3870	0.6475
3860	0.6483
3850	0.6487
3840	0.6491
3830	0.6495
3820	0.6498
3810	0.65
3800	0.6501
3790	0.6504
3780	0.6506
3770	0.6508
3760	0.6514
3750	0.6521
3740	0.6526
3730	0.6534
3720	0.6541
3710	0.6547
3700	0.655
3690	0.6551
3680	0.6551
3670	0.6553
3660	0.6554
3650	0.6555
3640	0.6556
3630	0.6557
3620	0.6557
3610	0.6558
3600	0.6558
3590	0.656
3580	0.6562
3570	0.6568
3560	0.6575
3550	0.6582
3540	0.6588
3530	0.6595
3520	0.6601
3510	0.6607
3500	0.6612
3490	0.6618
3480	0.6625
3470	0.663
3460	0.6632
3450	0.6634
3440	0.6636
3430	0.6636
3420	0.6636
3410	0.6636
3400	0.6637
3390	0.663
3380	0.6617
3370	0.6603
3360	0.6592
3350	0.6583
3340	0.6576
3330	0.6578
3320	0.6582
3310	0.6584
3300	0.6591
3290	0.6599
3280	0.6608
3270	0.6615
3260	0.6626
3250	0.6638
3240	0.6649
3230	0.6662
3220	0.6678
3210	0.6694
3200	0.671
3190	0.6725
3180	0.6744
3170	0.6761
3160	0.6775
3150	0.6782
3140	0.6789
3130	0.6799
3120	0.681
3110	0.6814
3100	0.6817
3090	0.6826
3080	0.6728
3070	0.6478
3060	0.5969
3050	0.6167
3040	0.6462
3030	0.6528
3020	0.6499
3010	0.6415
3000	0.6512
2990	0.6553
2980	0.6605
2970	0.6662
2960	0.6692
2950	0.6695
2940	0.6699
2930	0.6703
2920	0.671
2910	0.6718
2900	0.673
2890	0.6749
2880	0.6765
2870	0.6778
2860	0.6784
2850	0.6804
2840	0.6846
2830	0.6891
2820	0.6912
2810	0.6928
2800	0.694
2790	0.6961
2780	0.6999
2770	0.7018
2760	0.7019
2750	0.7021
2740	0.7021
2730	0.7018
2720	0.7024
2710	0.7036
2700	0.7048
2690	0.706
2680	0.7078
2670	0.7098
2660	0.7112
2650	0.7128
2640	0.7143
2630	0.7147
2620	0.7151
2610	0.7156
2600	0.7161
2590	0.7171
2580	0.7186
2570	0.7201
2560	0.7215
2550	0.7226
2540	0.7237
2530	0.7248
2520	0.7258
2510	0.7271
2500	0.729
2490	0.7308
2480	0.7325
2470	0.7343
2460	0.7367
2450	0.739
2440	0.7412
2430	0.7432
2420	0.745
2410	0.7468
2400	0.7487
2390	0.7497
2380	0.7507
2370	0.7517
2360	0.7528
2350	0.7538
2340	0.7548
2330	0.7556
2320	0.7558
2310	0.756
2300	0.7574
2290	0.7597
2280	0.7611
2270	0.7625
2260	0.7643
2250	0.7671
2240	0.7701
2230	0.7726
2220	0.7749
2210	0.7771
2200	0.7793
2190	0.7806
2180	0.7818
2170	0.7832
2160	0.7849
2150	0.7867
2140	0.7885
2130	0.7903
2120	0.7924
2110	0.7944
2100	0.7965
2090	0.7985
2080	0.8005
2070	0.8025
2060	0.8044
2050	0.8064
2040	0.8084
2030	0.8105
2020	0.8128
2010	0.8154
2000	0.8161
1990	0.8165
1980	0.8112
1970	0.8033
1960	0.8025
1950	0.8032
1940	0.8118
1930	0.8144
1920	0.8137
1910	0.8074
1900	0.8092
1890	0.8078
1880	0.81
1870	0.8188
1860	0.8278
1850	0.8288
1840	0.8252
1830	0.8248
1820	0.8253
1810	0.8249
1800	0.8194
1790	0.8221
1780	0.8303
1770	0.8332
1760	0.8273
1750	0.8247
1740	0.8289
1730	0.8299
1720	0.8297
1710	0.8259
1700	0.8237
1690	0.8242
1680	0.8273
1670	0.8315
1660	0.8371
1650	0.8468
1640	0.8525
1630	0.8514
1620	0.8528
1610	0.8546
1600	0.8597
1590	0.8349
1580	0.8558
1570	0.8689
1560	0.8378
1550	0.8067
1540	0.8645
1530	0.8688
1520	0.8762
1510	0.6461
1500	0.751
1490	0.8873
1480	0.2095
1470	0.6286
1460	0.7351
1450	0.7283
1440	0.6961
1430	0.4005
1420	0.6868
1410	0.709
1400	0.7457
1390	0.768
1380	0.7888
1370	0.8038
1360	0.8195
1350	0.833
1340	0.8399
1330	0.8191
1320	0.6854
1310	0.579
1300	0.7708
1290	0.7314
1280	0.7619
1270	0.82
1260	0.8345
1250	0.6818
1240	0.7854
1230	0.6246
1220	0.581
1210	0.7665
1200	0.796
1190	0.8165
1180	0.7965
1170	0.8223
1160	0.6558
1150	0.7768
1140	0.8273
1130	0.8145
1120	0.8074
1110	0.832
1100	0.811
1090	0.8418
1080	0.8578
1070	0.5949
1060	0.7993
1050	0.8488
1040	0.8711
1030	0.7078
1020	0.8614
1010	0.783
1000	0.6621
990	0.865
980	0.8609
970	0.7264
960	0.3675
950	0.7411
940	0.724
930	0.815
920	0.7225
910	0.8474
900	0.8732
890	0.8853
880	0.8925
870	0.8949
860	0.8815
850	0.8768
840	0.9088
830	0.9189
820	0.9299
810	0.9448
800	0.9586
790	0.9694
780	0.9651
770	0.3826
760	0.2365
750	0.6821
740	0.8409
730	0.406
720	0.7934
710	0.8387
700	0.4401
690	0.4237
680	0.6351
670	0.7308
660	0.775
650	0.8105
640	0.8364
630	0.8556
620	0.7776
610	0.8202
600	0.8548
590	0.8621
580	0.8678
570	0.8799
560	0.8751
550	0.7376
540	0.8695
530	0.8792
520	0.8836
510	0.8871
500	0.8909
490	0.896
480	0.8989
470	0.7638
460	0.8158
450	0.8811
440	0.8968
430	0.7999
420	0.8916
410	0.9088
400	0.9232
390	0.9264
380	0.9271
370	0.9291
360	0.9342
