Infrared Spectrum: 9-METHYL-PHENANTHRENE
Formula: C15 H12
CAS: 883-20-5
State: SOLID (1% IN KI)
Class: COBLENTZ
Instrument: Not specified, most likely a prism, grating, or hybrid spectrometer.
Sampling: TRANSMISSION
Resolution: 4
Origin: CENTRE D'ETUDES NUCLEAIRES DE GRENOBLE
MICROMETERS	TRANSMITTANCE
1.992	0.244
2.03206	0.254
2.07212	0.262
2.11218	0.271
2.15225	0.279
2.19231	0.286
2.23237	0.294
2.27243	0.301
2.31249	0.308
2.35255	0.318
2.39262	0.328
2.43268	0.336
2.47274	0.345
2.5128	0.35
2.55286	0.361
2.59292	0.381
2.63298	0.391
2.67305	0.395
2.71311	0.43
2.75317	0.425
2.79323	0.432
2.83329	0.417
2.87335	0.395
2.91342	0.373
2.95348	0.353
2.99354	0.358
3.0336	0.378
3.07366	0.393
3.11372	0.403
3.15378	0.417
3.19385	0.428
3.23391	0.437
3.27397	0.423
3.31403	0.329
3.35409	0.353
3.39415	0.402
3.43422	0.391
3.47428	0.383
3.51434	0.428
3.5544	0.447
3.59446	0.49
3.63452	0.507
3.67458	0.52
3.71465	0.527
3.75471	0.534
3.79477	0.544
3.83483	0.551
3.87489	0.561
3.91495	0.572
3.95502	0.581
3.99508	0.587
4.03514	0.596
4.0752	0.603
4.11526	0.608
4.15532	0.611
4.19538	0.619
4.23545	0.629
4.27551	0.678
4.31557	0.681
4.35563	0.668
4.39569	0.654
4.43575	0.664
4.47582	0.67
4.51588	0.675
4.55594	0.681
4.596	0.69
4.63606	0.696
4.67612	0.7
4.71618	0.705
4.75625	0.71
4.79631	0.713
4.83637	0.716
4.87643	0.72
4.91649	0.735
4.95655	0.738
4.99662	0.747
5.03668	0.752
5.07674	0.757
5.1168	0.747
5.15686	0.703
5.19692	0.701
5.23698	0.691
5.27705	0.725
5.31711	0.713
5.35717	0.76
5.39723	0.78
5.43729	0.777
5.47735	0.748
5.51742	0.743
5.55748	0.753
5.59754	0.748
5.6376	0.768
5.67766	0.735
5.71772	0.757
5.75778	0.79
5.79785	0.768
5.83791	0.792
5.87797	0.773
5.91803	0.795
5.95809	0.78
5.99815	0.819
6.03822	0.817
6.07828	0.819
6.11834	0.787
6.1584	0.753
6.19846	0.643
6.23852	0.653
6.27858	0.499
6.31865	0.648
6.35871	0.748
6.39877	0.798
6.43883	0.812
6.47889	0.825
6.51895	0.82
6.55902	0.812
6.59908	0.809
6.63914	0.812
6.6792	0.795
6.71926	0.592
6.75932	0.524
6.79938	0.695
6.83945	0.76
6.87951	0.696
6.91957	0.72
6.95963	0.355
6.99969	0.326
7.03975	0.296
7.07982	0.626
7.11988	0.711
7.15994	0.758
7.2	0.79
7.24006	0.675
7.28012	0.623
7.32018	0.695
7.36025	0.798
7.40031	0.82
7.44037	0.817
7.48043	0.832
7.52049	0.798
7.56055	0.815
7.60062	0.845
7.64068	0.842
7.68074	0.77
7.7208	0.832
7.76086	0.844
7.80092	0.814
7.84098	0.827
7.88105	0.85
7.92111	0.862
7.96117	0.855
8.00123	0.785
8.04129	0.474
8.08135	0.738
8.12142	0.809
8.16148	0.817
8.20154	0.715
8.2416	0.619
8.28166	0.721
8.32172	0.745
8.36178	0.839
8.40185	0.829
8.44191	0.85
8.48197	0.899
8.52203	0.919
8.56209	0.887
8.60215	0.785
8.64222	0.773
8.68228	0.783
8.72234	0.633
8.7624	0.814
8.80246	0.886
8.84252	0.907
8.88258	0.922
8.92265	0.927
8.96271	0.929
9.00277	0.927
9.04283	0.921
9.08289	0.889
9.12295	0.916
9.16302	0.934
9.20308	0.932
9.24314	0.929
9.2832	0.927
9.32326	0.927
9.36332	0.932
9.40338	0.939
9.44345	0.939
9.48351	0.938
9.52357	0.929
9.56363	0.884
9.60369	0.676
9.64375	0.629
9.68382	0.728
9.72388	0.832
9.76394	0.882
9.804	0.886
9.84406	0.891
9.88412	0.899
9.92418	0.926
9.96425	0.862
10.0043	0.767
10.0444	0.762
10.0844	0.827
10.1245	0.889
10.1646	0.899
10.2046	0.909
10.2447	0.916
10.2847	0.896
10.3248	0.907
10.3649	0.941
10.4049	0.956
10.445	0.961
10.485	0.837
10.5251	0.527
10.5652	0.77
10.6052	0.902
10.6453	0.953
10.6854	0.974
10.7254	0.983
10.7655	0.984
10.8055	0.981
10.8456	0.976
10.8857	0.959
10.9257	0.912
10.9658	0.924
11.0058	0.956
11.0459	0.963
11.086	0.959
11.126	0.949
11.1661	0.916
11.2062	0.788
11.2462	0.437
11.2863	0.242
11.3263	0.247
11.3664	0.658
11.4065	0.844
11.4465	0.886
11.4866	0.852
11.5266	0.77
11.5667	0.849
11.6068	0.904
11.6468	0.909
11.6869	0.718
11.727	0.67
11.767	0.735
11.8071	0.827
11.8471	0.912
11.8872	0.934
11.9273	0.938
11.9673	0.944
12.0074	0.941
12.0474	0.951
12.0875	0.953
12.1276	0.946
12.1676	0.938
12.2077	0.936
12.2478	0.927
12.2878	0.927
12.3279	0.929
12.3679	0.936
12.408	0.932
12.4481	0.926
12.4881	0.927
12.5282	0.924
12.5682	0.916
12.6083	0.877
12.6484	0.809
12.6884	0.792
12.7285	0.825
12.7686	0.86
12.8086	0.824
12.8487	0.785
12.8887	0.82
12.9288	0.817
12.9689	0.745
13.0089	0.549
13.049	0.303
13.089	0.174
13.1291	0.207
13.1692	0.319
13.2092	0.492
13.2493	0.438
13.2894	0.294
13.3294	0.107
13.3695	0.043
13.4095	0.028
13.4496	0.025
13.4897	0.06
13.5297	0.242
13.5698	0.381
13.6098	0.512
13.6499	0.587
13.69	0.648
13.73	0.676
13.7701	0.552
13.8102	0.273
13.8502	0.097
13.8903	0.058
13.9303	0.286
13.9704	0.49
14.0105	0.601
14.0505	0.631
14.0906	0.609
14.1306	0.584
14.1707	0.668
14.2108	0.715
14.2508	0.74
14.2909	0.747
14.331	0.758
14.371	0.767
14.4111	0.773
14.4511	0.777
14.4912	0.778
14.5313	0.782
14.5713	0.783
14.6114	0.78
14.6514	0.78
14.6915	0.785
14.7316	0.787
14.7716	0.788
14.8117	0.785
14.8518	0.79
14.8918	0.787
14.9319	0.785
14.9719	0.79
15.012	0.777
15.0521	0.78
15.0921	0.785
15.1322	0.788
15.1722	0.792
15.2123	0.79
15.2524	0.787
15.2924	0.792
15.3325	0.79
15.3726	0.785
15.4126	0.775
15.4527	0.763
15.4927	0.737
15.5328	0.726
15.5729	0.738
15.6129	0.758
15.653	0.773
15.693	0.778
15.7331	0.777
15.7732	0.782
15.8132	0.778
15.8533	0.78
