Infrared Spectrum: 1-Ethyl-2-pyrrolidone-4-carboxamide
Formula: C 7 H 12 N 2 O 2
CAS: 89852-01-7
State: gas
Origin: EPA-IR VAPOR PHASE LIBRARY
1/CM	ABSORBANCE
549.8	0.004772
559.445	0.003382
569.09	0.003422
578.734	0.002602
588.379	0.002402
598.024	0.002572
607.669	0.003462
617.313	0.004072
626.958	0.004152
636.603	0.004462
646.248	0.004962
655.893	0.004212
665.537	0.003202
675.182	0.002832
684.827	0.002342
694.472	0.002202
704.116	0.002282
713.761	0.002342
723.406	0.002672
733.051	0.003172
742.695	0.003702
752.34	0.004072
761.985	0.004232
771.63	0.004412
781.275	0.004662
790.919	0.005212
800.564	0.004572
810.209	0.003962
819.854	0.003432
829.498	0.003672
839.143	0.003232
848.788	0.003202
858.433	0.002682
868.078	0.002612
877.722	0.002402
887.367	0.002532
897.012	0.002562
906.657	0.002802
916.301	0.002832
925.946	0.003212
935.591	0.003442
945.236	0.003122
954.88	0.002442
964.525	0.002472
974.17	0.002322
983.815	0.002192
993.46	0.001972
1003.1	0.002202
1012.75	0.002112
1022.39	0.002722
1032.04	0.002892
1041.68	0.002952
1051.33	0.002662
1060.97	0.003072
1070.62	0.003192
1080.26	0.003192
1089.91	0.003072
1099.55	0.002462
1109.2	0.002362
1118.84	0.002942
1128.49	0.002972
1138.13	0.003432
1147.78	0.002992
1157.42	0.002782
1167.07	0.002952
1176.71	0.003432
1186.36	0.004222
1196	0.005162
1205.64	0.007012
1215.29	0.008942
1224.93	0.012942
1234.58	0.018662
1244.22	0.023432
1253.87	0.025992
1263.51	0.027132
1273.16	0.028412
1282.8	0.028912
1292.45	0.027522
1302.09	0.021422
1311.74	0.015712
1321.38	0.013832
1331.03	0.012052
1340.67	0.010662
1350.32	0.011432
1359.96	0.012262
1369.61	0.013312
1379.25	0.014912
1388.9	0.014792
1398.54	0.013712
1408.18	0.016702
1417.83	0.022542
1427.47	0.022102
1437.12	0.014122
1446.76	0.008812
1456.41	0.007292
1466.05	0.005832
1475.7	0.004552
1485.34	0.006282
1494.99	0.007272
1504.63	0.004532
1514.28	0.002372
1523.92	0.001912
1533.57	0.001912
1543.21	0.002192
1552.86	0.003002
1562.5	0.004852
1572.15	0.008702
1581.79	0.017362
1591.44	0.021792
1601.08	0.014452
1610.73	0.007582
1620.37	0.004822
1630.01	0.003562
1639.66	0.003012
1649.3	0.003192
1658.95	0.003752
1668.59	0.005262
1678.24	0.008062
1687.88	0.012872
1697.53	0.020322
1707.17	0.036732
1716.82	0.083392
1726.46	0.160422
1736.11	0.159102
1745.75	0.072062
1755.4	0.030962
1765.04	0.015562
1774.69	0.008122
1784.33	0.004622
1793.98	0.002962
1803.62	0.002182
1813.27	0.001752
1822.91	0.001542
1832.55	0.001402
1842.2	0.001282
1851.84	0.001222
1861.49	0.001112
1871.13	0.0009225
1880.78	0.0009114
1890.42	0.0007836
1900.07	0.0007571
1909.71	0.0006834
1919.36	0.0005828
1929	0.000648
1938.65	0.0005885
1948.29	0.0005757
1957.94	0.0006199
1967.58	0.0006094
1977.23	0.0005948
1986.87	0.0006659
1996.52	0.0005533
2006.16	0.0005816
2015.81	0.0006629
2025.45	0.0006768
2035.1	0.0005362
2044.74	0.0005192
2054.38	0.0005335
2064.03	0.0004858
2073.67	0.0004935
2083.32	0.000453
2092.96	0.0004796
2102.61	0.0005236
2112.25	0.0004424
2121.9	0.0004369
2131.54	0.0004745
2141.19	0.0005087
2150.83	0.0004896
2160.48	0.0005371
2170.12	0.0004672
2179.77	0.0004993
2189.41	0.0004887
2199.06	0.0005027
2208.7	0.0004518
2218.35	0.0004211
2227.99	0.000462
2237.64	0.0003933
2247.28	0.0004753
2256.92	0.000384
2266.57	0.0003957
2276.21	0.0003243
2285.86	0.0002865
2295.5	0.000389
2305.15	0.0004086
2314.79	0.0004211
2324.44	0.0004606
2334.08	0.0004421
2343.73	0.0004437
2353.37	0.0004155
2363.02	0.0004368
2372.66	0.0004614
2382.31	0.0004874
2391.95	0.0004841
2401.6	0.0003642
2411.24	0.000402
2420.89	0.0003038
2430.53	0.0003894
2440.18	0.0004237
2449.82	0.0004418
2459.47	0.0004229
2469.11	0.000443
2478.75	0.0004825
2488.4	0.0006061
2498.04	0.0004206
2507.69	0.0003642
2517.33	0.0003708
2526.98	0.000345
2536.62	0.0004743
2546.27	0.0003552
2555.91	0.0003435
2565.56	0.0003634
2575.2	0.0002926
2584.85	0.0002857
2594.49	0.0003361
2604.14	0.0003619
2613.78	0.0003538
2623.43	0.0003527
2633.07	0.0004578
2642.72	0.0004142
2652.36	0.0003742
2662.01	0.0004541
2671.65	0.0004957
2681.29	0.0004542
2690.94	0.0005238
2700.58	0.0005718
2710.23	0.0005722
2719.87	0.0005861
2729.52	0.0006852
2739.16	0.0005412
2748.81	0.0007696
2758.45	0.0007234
2768.1	0.0007667
2777.74	0.0008693
2787.39	0.0010487
2797.03	0.001232
2806.68	0.001592
2816.32	0.002092
2825.97	0.002542
2835.61	0.003292
2845.26	0.004102
2854.9	0.005492
2864.55	0.007662
2874.19	0.009882
2883.84	0.010442
2893.48	0.009422
2903.12	0.008572
2912.77	0.009142
2922.41	0.010972
2932.06	0.013492
2941.7	0.014432
2951.35	0.011442
2960.99	0.008442
2970.64	0.011102
2980.28	0.015242
2989.93	0.012002
2999.57	0.006442
3009.22	0.003162
3018.86	0.001952
3028.51	0.001542
3038.15	0.001212
3047.8	0.0008628
3057.44	0.0007457
3067.09	0.0007186
3076.73	0.0005195
3086.38	0.0005706
3096.02	0.0005212
3105.67	0.0006291
3115.31	0.000716
3124.95	0.000507
3134.6	0.0005599
3144.24	0.0005723
3153.89	0.0007498
3163.53	0.0007244
3173.18	0.0004954
3182.82	0.000622
3192.47	0.0005241
3202.11	0.0002525
3211.76	0.0003056
3221.4	0.0003148
3231.05	0.0003789
3240.69	0.0003638
3250.34	0.0001841
3259.98	0.0002474
3269.63	0.0002512
3279.27	0.0003353
3288.92	0.0004063
3298.56	0.0003866
3308.21	0.0003637
3317.85	0.0003992
3327.49	0.0002056
3337.14	0.0004621
3346.78	0.0003587
3356.43	0.0004198
3366.07	0.0005101
3375.72	0.0008747
3385.36	0.0009983
3395.01	0.001772
3404.65	0.002612
3414.3	0.004142
3423.94	0.005472
3433.59	0.006672
3443.23	0.006102
3452.88	0.003612
3462.52	0.002152
3472.17	0.001532
3481.81	0.001292
3491.46	0.001422
3501.1	0.001682
3510.75	0.002292
3520.39	0.003162
3530.04	0.004112
3539.68	0.004482
3549.32	0.004912
3558.97	0.004732
3568.61	0.002802
3578.26	0.001262
3587.9	0.0008233
3597.55	0.0004754
3607.19	0.00013104
3616.84	0.000284
3626.48	0.0001853
3636.13	0.0003616
3645.77	0.0002267
3655.42	0.0003094
3665.06	0.0003385
3674.71	0
3684.35	0.000274
3694	0.0002515
3703.64	0.0002352
3713.29	0.0002103
3722.93	0.00013582
3732.58	0.000183
3742.22	0.0002771
3751.86	0.0002687
3761.51	0.0003439
3771.15	0.0002604
3780.8	0.0002657
3790.44	0.0001708
3800.09	0.0002146
3809.73	0.0003277
3819.38	0.0002169
3829.02	0.0001999
3838.67	0.00016537
3848.31	0.0002685
3857.96	0.0002756
3867.6	0.0003351
3877.25	4.78e-05
3886.89	0.000212
3896.54	0.000218
3906.18	0.0001852
3915.83	0.0003122
3925.47	0.0003172
3935.12	0.0003251
3944.76	0.00026
3954.41	0.0003204
3964.05	0.0004061
3973.69	0.0002077
3983.34	0.0003401
3992.98	0.0002841
