Infrared Spectrum: Polyethylene, average Mw ~35,000 by GPC
Formula: H ( C H 2 C H 2 ) n H
CAS: 9002-88-4
State: solid
Instrument: Bruker Tensor 37 FTIR
Resolution: 0.96438843
Origin: Pacific Northwest National Laboratory Under IARPA Contract
1/cm	Reflectance
7498.12	0.686305
7480.76	0.689352
7463.4	0.682011
7446.05	0.674621
7428.69	0.642319
7411.33	0.621029
7393.97	0.572313
7376.62	0.52186
7359.26	0.459928
7341.9	0.37675
7324.54	0.423498
7307.18	0.434618
7289.83	0.398583
7272.47	0.396295
7255.11	0.40841
7237.75	0.417502
7220.4	0.426529
7203.04	0.457815
7185.68	0.483074
7168.32	0.501565
7150.96	0.529569
7133.61	0.556667
7116.25	0.573179
7098.89	0.586766
7081.53	0.598673
7064.18	0.608536
7046.82	0.609786
7029.46	0.605991
7012.1	0.602593
6994.74	0.590301
6977.39	0.625409
6960.03	0.642692
6942.67	0.647281
6925.31	0.657397
6907.96	0.659928
6890.6	0.659365
6873.24	0.656548
6855.88	0.650632
6838.52	0.641124
6821.17	0.622164
6803.81	0.604663
6786.45	0.600081
6769.09	0.583389
6751.74	0.554129
6734.38	0.506399
6717.02	0.421933
6699.66	0.308754
6682.3	0.219403
6664.95	0.148755
6647.59	0.102319
6630.23	0.103205
6612.87	0.1795
6595.52	0.163579
6578.16	0.137167
6560.8	0.202816
6543.44	0.22704
6526.08	0.21297
6508.73	0.215361
6491.37	0.215943
6474.01	0.231294
6456.65	0.248477
6439.3	0.274388
6421.94	0.295556
6404.58	0.297188
6387.22	0.300197
6369.86	0.299683
6352.51	0.298841
6335.15	0.299499
6317.79	0.304347
6300.43	0.301434
6283.08	0.304903
6265.72	0.307362
6248.36	0.297756
6231	0.285557
6213.64	0.30615
6196.29	0.30507
6178.93	0.305463
6161.57	0.327156
6144.21	0.341219
6126.86	0.352304
6109.5	0.358697
6092.14	0.363676
6074.78	0.358669
6057.42	0.351231
6040.07	0.338112
6022.71	0.312086
6005.35	0.281537
5987.99	0.241915
5970.64	0.188554
5953.28	0.110295
5935.92	0.0723998
5918.56	0.0478934
5901.2	0.0593108
5883.85	0.0538535
5866.49	0.0546175
5849.13	0.051093
5831.77	0.0499399
5814.42	0.0510713
5797.06	0.0521268
5779.7	0.0590501
5762.34	0.0647305
5744.98	0.0744291
5727.63	0.0787762
5710.27	0.0747413
5692.91	0.0766234
5675.55	0.0825766
5658.2	0.0834715
5640.84	0.0950562
5623.48	0.101648
5606.12	0.100709
5588.76	0.0931374
5571.41	0.0806912
5554.05	0.0730595
5536.69	0.145037
5519.33	0.193867
5501.98	0.19319
5484.62	0.170199
5467.26	0.147733
5449.9	0.145303
5432.54	0.129714
5415.19	0.147182
5397.83	0.152125
5380.47	0.142615
5363.11	0.124151
5345.76	0.0955083
5328.4	0.0823805
5311.04	0.0685851
5293.68	0.0472271
5276.32	0.0406096
5258.97	0.0355472
5241.61	0.0302971
5224.25	0.0259071
5206.89	0.034593
5189.54	0.0314206
5172.18	0.0350502
5154.82	0.0356357
5137.46	0.0389433
5120.1	0.0403508
5102.75	0.041693
5085.39	0.0406217
5068.03	0.0411159
5050.67	0.045676
5033.32	0.05428
5015.96	0.063314
4998.6	0.0814905
4981.24	0.0987764
4963.88	0.0955625
4946.53	0.0932418
4929.17	0.0833967
4911.81	0.0679156
4894.45	0.0873203
4877.1	0.106439
4859.74	0.123107
4842.38	0.12455
4825.02	0.11383
4807.66	0.153332
4790.31	0.145036
4772.95	0.113234
4755.59	0.0969628
4738.23	0.167856
4720.88	0.156536
4703.52	0.126762
4686.16	0.167932
4668.8	0.187353
4651.44	0.164223
4634.09	0.166521
4616.73	0.155026
4599.37	0.137966
4582.01	0.123333
4564.66	0.0953674
4547.3	0.0894521
4529.94	0.0809937
4512.58	0.0602224
4495.22	0.0382937
4477.87	0.027573
4460.51	0.038657
4443.15	0.0387092
4425.79	0.0324746
4408.44	0.0375465
4391.08	0.0387875
4373.72	0.0461639
4356.36	0.0533902
4339	0.0583757
4321.65	0.0585369
4304.29	0.0688297
4286.93	0.0519693
4269.57	0.065076
4252.22	0.0684379
4234.86	0.062788
4217.5	0.0675576
4200.14	0.0575076
4182.78	0.0741378
4165.43	0.0769306
4148.07	0.0521665
4130.71	0.0387233
4113.35	0.0238529
4096	0.0724983
4078.64	0.191932
4061.28	0.263415
4043.92	0.684605
4026.56	0.681412
4009.21	0.679112
3991.85	0.662515
3974.49	0.627881
3957.13	0.602001
3939.78	0.5533
3922.42	0.497261
3905.06	0.430354
3887.7	0.344678
3870.34	0.430144
3852.99	0.419246
3835.63	0.375536
3818.27	0.390964
3800.91	0.398502
3783.56	0.407033
3766.2	0.427091
3748.84	0.45486
3731.48	0.479741
3714.12	0.501083
3696.77	0.52866
3679.41	0.5527
3662.05	0.568505
3644.69	0.583205
3627.34	0.59523
3609.98	0.600492
3592.62	0.603098
3575.26	0.596712
3557.9	0.592354
3540.55	0.578679
3523.19	0.625162
3505.83	0.63183
3488.47	0.641422
3471.12	0.649742
3453.76	0.651318
3436.4	0.648816
3419.04	0.644456
3401.68	0.641488
3384.33	0.630342
3366.97	0.604002
3349.61	0.594002
3332.25	0.586658
3314.9	0.566094
3297.54	0.530652
3280.18	0.475236
3262.82	0.371524
3245.46	0.28344
3228.11	0.18722
3210.75	0.1268
3193.39	0.0885874
3176.03	0.123794
3158.68	0.184862
3141.32	0.145866
3123.96	0.159305
3106.6	0.204727
3089.24	0.215412
3071.89	0.204685
3054.53	0.206127
3037.17	0.211939
3019.81	0.224058
3002.46	0.24818
2985.1	0.267915
2967.74	0.290355
2950.38	0.28744
2933.02	0.289809
2915.67	0.28836
2898.31	0.287887
2880.95	0.289229
2863.59	0.294364
2846.24	0.291125
2828.88	0.294755
2811.52	0.295559
2794.16	0.281698
2776.8	0.285251
2759.45	0.295604
2742.09	0.293781
2724.73	0.300968
2707.37	0.320677
2690.02	0.331845
2672.66	0.342082
2655.3	0.351139
2637.94	0.347016
2620.58	0.347343
2603.23	0.336512
2585.87	0.32062
2568.51	0.294065
2551.15	0.26054
2533.8	0.221492
2516.44	0.161897
2499.08	0.090355
2481.72	0.0643947
2464.36	0.0437091
2447.01	0.059577
2429.65	0.0467887
2412.29	0.0511789
2394.93	0.0480899
2377.58	0.049255
2360.22	0.0500375
2342.86	0.0528536
2325.5	0.0594726
2308.14	0.0651597
2290.79	0.0722724
2273.43	0.0756697
2256.07	0.0718404
2238.71	0.0745041
2221.36	0.080285
2204	0.0824345
2186.64	0.0931857
2169.28	0.0991075
2151.92	0.0944198
2134.57	0.0893773
2117.21	0.0842893
2099.85	0.0719209
2082.49	0.156908
2065.14	0.192026
2047.78	0.183634
2030.42	0.156383
2013.06	0.143096
1995.7	0.13765
1978.35	0.132057
1960.99	0.145205
1943.63	0.146304
1926.27	0.135283
1908.92	0.112804
1891.56	0.0887148
1874.2	0.077076
1856.84	0.0620686
1839.48	0.0435542
1822.13	0.0380344
1804.77	0.0342492
1787.41	0.0282457
1770.05	0.024442
1752.7	0.0327378
1735.34	0.0297001
1717.98	0.0343478
1700.62	0.0358633
1683.26	0.0393398
1665.91	0.0392652
1648.55	0.0413255
1631.19	0.0401503
1613.83	0.0407961
1596.48	0.0467285
1579.12	0.0555397
1561.76	0.0633674
1544.4	0.0825814
1527.04	0.0988127
1509.69	0.0859293
1492.33	0.0913087
1474.97	0.070076
1457.61	0.0713084
1440.26	0.087464
1422.9	0.103087
1405.54	0.123841
1388.18	0.121643
1370.82	0.118721
1353.47	0.149843
1336.11	0.134488
1318.75	0.0984198
1301.39	0.135249
1284.04	0.161096
1266.68	0.148736
1249.32	0.106572
1231.96	0.175138
1214.6	0.174091
1197.25	0.163635
1179.89	0.164618
1162.53	0.119112
1145.17	0.136289
1127.82	0.105919
1110.46	0.0955776
1093.1	0.0854542
1075.74	0.0753558
1058.38	0.0546406
1041.03	0.032601
1023.67	0.0290974
1006.31	0.0440088
988.953	0.0292821
971.595	0.0344582
954.238	0.0352917
936.88	0.0406752
919.522	0.0489405
902.164	0.0557146
884.806	0.0608692
867.449	0.0622428
850.091	0.0648311
832.733	0.0550034
815.375	0.0672988
798.018	0.0686534
780.66	0.0639203
763.302	0.068979
745.944	0.044053
728.586	0.0776337
711.229	0.0747689
693.871	0.0471179
676.513	0.0382703
659.155	0.0264282
641.798	0.107979
624.44	0.236279
607.082	0.260573
