Infrared Spectrum: BENZALDEHYDE, o-HYDROXY-
Formula: C7 H6 O2
CAS: 90-02-8
State: SOLUTION (10% IN CCl4 FOR 4000-1350 CM^-^1, 10% IN CS2 FOR 1350-600 CM^-^1)
Class: COBLENTZ III
Instrument: BECKMAN IR-7 (GRATING)
Instrument parameters: GRATING CHANGES AT 3000, 2200, 1150 CM^-^1
Sampling: TRANSMISSION
Path length: 0.01 CM, 0.01 CM
Resolution: 4
Origin: WESTERN REGIONAL RES. USDA
1/CM	TRANSMITTANCE
600.374	0.782
609.284	0.78
618.193	0.778
627.103	0.772
636.013	0.731
644.922	0.562
653.832	0.566
662.742	0.1601
671.651	0.4058
680.561	0.476
689.471	0.379
698.38	0.161
707.29	0.042
716.2	0.074
725.109	0.331
734.019	0.1601
742.929	0.114
751.838	0.0041
760.748	0.092
769.658	0.1687
778.567	0.569
787.477	0.704
796.387	0.761
805.296	0.793
814.206	0.803
823.116	0.807
832.026	0.805
840.935	0.786
849.845	0.712
858.755	0.4981
867.664	0.644
876.574	0.637
885.484	0.145
894.393	0.669
903.303	0.77
912.213	0.808
921.122	0.82
930.032	0.816
938.942	0.778
947.851	0.7439
956.761	0.805
965.671	0.801
974.58	0.787
983.49	0.78
992.4	0.805
1001.31	0.802
1010.22	0.733
1019.13	0.782
1028.04	0.2977
1036.95	0.7449
1045.86	0.816
1054.77	0.819
1063.68	0.823
1072.59	0.814
1081.5	0.818
1090.41	0.83
1099.32	0.821
1108.23	0.747
1117.14	0.5359
1126.04	0.735
1134.95	0.711
1143.86	0.3378
1152.77	0.308
1161.68	0.616
1170.59	0.431
1179.5	0.176
1188.41	0.343
1197.32	0.013
1206.23	0.3099
1215.14	0.3541
1224.05	0.084
1232.96	0.385
1241.87	0.65
1250.78	0.686
1259.69	0.479
1268.6	0.08
1277.51	0
1286.42	0.054
1295.33	0.244
1304.24	0.523
1313.15	0.4509
1322.06	0.295
1330.97	0.469
1339.88	0.389
1348.79	0.463
1357.7	0.515
1366.61	0.535
1375.52	0.3791
1384.43	0.1399
1393.33	0.4829
1402.24	0.432
1411.15	0.39
1420.06	0.413
1428.97	0.47
1437.88	0.484
1446.79	0.481
1455.7	0.046
1464.61	0.132
1473.52	0.341
1482.43	0.0161
1491.34	0.2061
1500.25	0.465
1509.16	0.541
1518.07	0.46
1526.98	0.524
1535.89	0.486
1544.8	0.414
1553.71	0.409
1562.62	0.412
1571.53	0.3711
1580.44	0.0301
1589.35	0.273
1598.26	0.3151
1607.17	0.366
1616.08	0.099
1624.99	0.139
1633.9	0.278
1642.81	0
1651.72	0.074
1660.63	0
1669.53	0
1678.44	0.1091
1687.35	0.405
1696.26	0.577
1705.17	0.662
1714.08	0.655
1722.99	0.661
1731.9	0.741
1740.81	0.796
1749.72	0.826
1758.63	0.833
1767.54	0.815
1776.45	0.82
1785.36	0.834
1794.27	0.798
1803.18	0.767
1812.09	0.83
1821	0.836
1829.91	0.834
1838.82	0.809
1847.73	0.827
1856.64	0.839
1865.55	0.836
1874.46	0.831
1883.37	0.799
1892.28	0.826
1901.19	0.847
1910.1	0.844
1919.01	0.811
1927.92	0.818
1936.82	0.848
1945.73	0.848
1954.64	0.804
1963.55	0.818
1972.46	0.848
1981.37	0.853
1990.28	0.852
1999.19	0.851
2008.1	0.8555
2017.01	0.8557
2025.92	0.8529
2034.83	0.8472
2043.74	0.839
2052.65	0.8462
2061.56	0.8567
2070.47	0.861
2079.38	0.8568
2088.29	0.851
2097.2	0.8527
2106.11	0.8613
2115.02	0.8659
2123.93	0.869
2132.84	0.87
2141.75	0.8697
2150.66	0.8659
2159.57	0.8613
2168.48	0.858
2177.39	0.8608
2186.3	0.8646
2195.21	0.869
2204.12	0.8682
2213.02	0.8619
2221.93	0.8553
2230.84	0.8369
2239.75	0.848
2248.66	0.86
2257.57	0.8555
2266.48	0.8442
2275.39	0.8422
2284.3	0.846
2293.21	0.847
2302.12	0.8476
2311.03	0.846
2319.94	0.846
2328.85	0.845
2337.76	0.8419
2346.67	0.8374
2355.58	0.8321
2364.49	0.8397
2373.4	0.8403
2382.31	0.8376
2391.22	0.8343
2400.13	0.8471
2409.04	0.8526
2417.95	0.86
2426.86	0.8571
2435.77	0.85
2444.68	0.8596
2453.59	0.8627
2462.5	0.861
2471.41	0.8587
2480.32	0.8556
2489.22	0.8471
2498.13	0.8381
2507.04	0.8186
2515.95	0.8263
2524.86	0.85
2533.77	0.8504
2542.68	0.8413
2551.59	0.824
2560.5	0.8129
2569.41	0.8267
2578.32	0.8337
2587.23	0.8315
2596.14	0.8261
2605.05	0.8197
2613.96	0.8149
2622.87	0.8193
2631.78	0.8157
2640.69	0.8126
2649.6	0.808
2658.51	0.8062
2667.42	0.8044
2676.33	0.8026
2685.24	0.801
2694.15	0.8
2703.06	0.7983
2711.97	0.796
2720.88	0.7875
2729.79	0.7453
2738.7	0.6319
2747.61	0.5457
2756.51	0.4973
2765.42	0.7217
2774.33	0.7359
2783.24	0.7442
2792.15	0.7351
2801.06	0.6734
2809.97	0.622
2818.88	0.5673
2827.79	0.4246
2836.7	0.2921
2845.61	0.2722
2854.52	0.2887
2863.43	0.5041
2872.34	0.6227
2881.25	0.6849
2890.16	0.7291
2899.07	0.7458
2907.98	0.7562
2916.89	0.762
2925.8	0.7656
2934.71	0.7691
2943.62	0.77
2952.53	0.769
2961.44	0.7676
2970.35	0.7655
2979.26	0.761
2988.17	0.7504
2997.08	0.7304
3005.99	0.7085
3014.9	0.686
3023.81	0.6459
3032.71	0.605
3041.62	0.585
3050.53	0.5611
3059.44	0.5205
3068.35	0.4938
3077.26	0.4716
3086.17	0.5069
3095.08	0.534
3103.99	0.51
3112.9	0.5159
3121.81	0.5004
3130.72	0.481
3139.63	0.4813
3148.54	0.4859
3157.45	0.4911
3166.36	0.4886
3175.27	0.4638
3184.18	0.451
3193.09	0.469
3202	0.4929
3210.91	0.5086
3219.82	0.5327
3228.73	0.5577
3237.64	0.5863
3246.55	0.6065
3255.46	0.611
3264.37	0.6141
3273.28	0.6141
3282.19	0.6113
3291.1	0.6129
3300	0.6217
3308.91	0.625
3317.82	0.628
3326.73	0.6348
3335.64	0.6466
3344.55	0.665
3353.46	0.6807
3362.37	0.6947
3371.28	0.705
3380.19	0.7139
3389.1	0.7211
3398.01	0.7295
3406.92	0.7406
3415.83	0.7518
3424.74	0.7617
3433.65	0.772
3442.56	0.7814
3451.47	0.7902
3460.38	0.7981
3469.29	0.8053
3478.2	0.8119
3487.11	0.8174
3496.02	0.8215
3504.93	0.8256
3513.84	0.8291
3522.75	0.831
3531.66	0.8326
3540.57	0.835
3549.48	0.8362
3558.39	0.84
3567.3	0.841
3576.2	0.8426
3585.11	0.8463
3594.02	0.848
3602.93	0.848
3611.84	0.849
3620.75	0.8515
3629.66	0.8553
3638.57	0.858
3647.48	0.8598
3656.39	0.86
3665.3	0.8586
3674.21	0.856
3683.12	0.854
3692.03	0.854
3700.94	0.8555
3709.85	0.859
3718.76	0.86
3727.67	0.8609
3736.58	0.8617
3745.49	0.863
3754.4	0.864
3763.31	0.865
3772.22	0.8678
3781.13	0.869
3790.04	0.868
3798.95	0.866
3807.86	0.865
3816.77	0.8657
3825.68	0.8685
3834.59	0.869
3843.5	0.869
3852.4	0.869
3861.31	0.8683
3870.22	0.867
3879.13	0.8623
3888.04	0.856
3896.95	0.8558
3905.86	0.8586
3914.77	0.8596
3923.68	0.8579
3932.59	0.8522
3941.5	0.849
3950.41	0.8565
3959.32	0.86
3968.23	0.861
3977.14	0.8618
