Infrared Spectrum: NAPHTHALENE, 1-CHLORO-
Formula: C10 H7 Cl
CAS: 90-13-1
State: SOLUTION (10% IN CCl4 FOR 3800-1333 AND 10% IN CS2 FOR 1333-450 CM^-^1)
Class: COBLENTZ III
Instrument: DOW KBr FOREPRISM-GRATING
Instrument parameters: BLAZED AT 3.5, 12.0, 20.0 MICRON, CHANGED AT 5.0, 7.5, 14.9 MICRON
Sampling: TRANSMISSION
Path length: 0.011, 0.011 CM
Resolution: 4
Origin: DOW CHEMICAL COMPANY
1/CM	TRANSMITTANCE
446.062	0.914
454.753	0.911
463.444	0.877
472.135	0.924
480.826	1.006
489.517	1.012
498.208	1.014
506.899	1.014
515.589	1.009
524.28	1.002
532.971	0.937
541.662	0.4391
550.353	1.013
559.044	1.025
567.735	1.024
576.426	1.02
585.117	1.014
593.808	1.002
602.499	0.861
611.19	1.002
619.881	0.986
628.572	0.995
637.263	0.966
645.954	0.938
654.644	0.894
663.335	0.3729
672.026	0.938
680.717	0.978
689.408	0.986
698.099	0.987
706.79	0.981
715.481	0.971
724.172	0.936
732.863	0.894
741.554	0.6101
750.245	0.873
758.936	0.6049
767.627	0.0063
776.318	0.766
785.009	0.5139
793.699	0.0313
802.39	0.742
811.081	0.6101
819.772	0.845
828.463	0.413
837.154	0.887
845.845	0.763
854.536	0.629
863.227	0.811
871.918	0.842
880.609	0.7421
889.3	0.925
897.991	0.947
906.682	0.97
915.373	0.972
924.064	0.962
932.754	0.944
941.445	0.773
950.136	0.861
958.827	0.765
967.518	0.099
976.209	0.872
984.9	0.928
993.591	0.966
1002.28	0.96
1010.97	0.957
1019.66	0.7497
1028.35	0.945
1037.05	0.981
1045.74	0.974
1054.43	0.907
1063.12	0.8041
1071.81	0.8809
1080.5	0.97
1089.19	0.989
1097.88	1.002
1106.57	1.006
1115.26	1.004
1123.96	0.978
1132.65	0.845
1141.34	0.693
1150.03	0.903
1158.72	0.883
1167.41	0.951
1176.1	0.951
1184.79	0.924
1193.48	0.762
1202.17	0.3692
1210.86	0.8619
1219.56	0.944
1228.25	0.966
1236.94	0.978
1245.63	0.8949
1254.32	0.662
1263.01	0.852
1271.7	0.956
1280.39	0.976
1289.08	0.991
1297.77	0.986
1306.46	0.978
1315.16	0.968
1323.85	0.959
1332.54	0.929
1341.23	0.8451
1349.92	0.934
1358.61	0.864
1367.3	0.869
1375.99	0.5489
1384.68	0.489
1393.37	0.884
1402.07	0.951
1410.76	0.968
1419.45	0.967
1428.14	0.949
1436.83	0.928
1445.52	0.934
1454.21	0.887
1462.9	0.8571
1471.59	0.948
1480.28	0.925
1488.97	0.864
1497.67	0.751
1506.36	0.1882
1515.05	0.694
1523.74	0.666
1532.43	0.636
1541.12	0.535
1549.81	0.5
1558.5	0.455
1567.19	0.397
1575.88	0.602
1584.57	0.548
1593.27	0.5
1601.96	0.7391
1610.65	0.909
1619.34	0.915
1628.03	0.869
1636.72	0.981
1645.41	1.004
1654.1	0.981
1662.79	0.976
1671.48	0.983
1680.18	0.955
1688.87	0.918
1697.56	0.949
1706.25	0.972
1714.94	0.949
1723.63	0.967
1732.32	0.967
1741.01	0.955
1749.7	0.945
1758.39	0.943
1767.08	0.962
1775.78	0.972
1784.47	0.953
1793.16	0.917
1801.85	0.943
1810.54	0.902
1819.23	0.963
1827.92	0.947
1836.61	0.914
1845.3	0.948
1853.99	0.936
1862.68	0.906
1871.38	0.962
1880.07	0.972
1888.76	0.972
1897.45	0.962
1906.14	0.951
1914.83	0.9
1923.52	0.906
1932.21	0.909
1940.9	0.947
1949.59	0.932
1958.29	0.9331
1966.98	0.971
1975.67	0.974
1984.36	0.975
1993.05	0.9821
2001.74	1.004
2010.43	1.001
2019.12	1.002
2027.81	1.002
2036.5	1.008
2045.19	1.006
2053.89	1.0077
2062.58	1.005
2071.27	1.001
2079.96	1.005
2088.65	1.004
2097.34	1.001
2106.03	0.998
2114.72	1.0048
2123.41	1.001
2132.1	1.0021
2140.79	1.001
2149.49	1.001
2158.18	1.001
2166.87	1
2175.56	1
2184.25	0.9999
2192.94	0.998
2201.63	1
2210.32	1
2219.01	0.9971
2227.7	0.993
2236.4	0.991
2245.09	0.99
2253.78	0.986
2262.47	0.9822
2271.16	0.9792
2279.85	0.9701
2288.54	0.9573
2297.23	0.97
2305.92	0.9602
2314.61	0.9769
2323.3	0.9909
2332	0.995
2340.69	1
2349.38	0.998
2358.07	0.991
2366.76	0.99
2375.45	0.9861
2384.14	0.9789
2392.83	0.9851
2401.52	0.983
2410.21	0.9781
2418.9	0.9789
2427.6	0.9887
2436.29	0.987
2444.98	0.9899
2453.67	0.99
2462.36	0.99
2471.05	0.99
2479.74	0.986
2488.43	0.9887
2497.12	0.99
2505.81	0.99
2514.5	0.987
2523.2	0.9887
2531.89	0.99
2540.58	0.9902
2549.27	0.989
2557.96	0.989
2566.65	0.9852
2575.34	0.983
2584.03	0.986
2592.72	0.986
2601.41	0.987
2610.11	0.99
2618.8	0.989
2627.49	0.987
2636.18	0.987
2644.87	0.987
2653.56	0.9898
2662.25	0.99
2670.94	0.99
2679.63	0.989
2688.32	0.99
2697.01	0.9874
2705.71	0.9852
2714.4	0.985
2723.09	0.9908
2731.78	0.991
2740.47	0.9925
2749.16	0.99
2757.85	0.99
2766.54	0.99
2775.23	0.991
2783.92	0.9923
2792.61	0.991
2801.31	0.99
2810	0.993
2818.69	0.991
2827.38	0.991
2836.07	0.99
2844.76	0.9813
2853.45	0.9852
2862.14	0.989
2870.83	0.989
2879.52	0.989
2888.22	0.986
2896.91	0.986
2905.6	0.9836
2914.29	0.9753
2922.98	0.975
2931.67	0.978
2940.36	0.9753
2949.05	0.9713
2957.74	0.9691
2966.43	0.982
2975.12	0.983
2983.82	0.9775
2992.51	0.9605
3001.2	0.9459
3009.89	0.9159
3018.58	0.907
3027.27	0.873
3035.96	0.8385
3044.65	0.7842
3053.34	0.5969
3062.03	0.5082
3070.72	0.6854
3079.42	0.7863
3088.11	0.7739
3096.8	0.9147
3105.49	0.9597
3114.18	0.9896
3122.87	0.9976
3131.56	0.994
3140.25	1.0016
3148.94	1.0014
3157.63	1.0016
3166.33	1.0058
3175.02	1.01
3183.71	1.01
3192.4	1.0149
3201.09	1.0164
3209.78	1.016
3218.47	1.016
3227.16	1.023
3235.85	1.023
3244.54	1.025
3253.23	1.027
3261.93	1.027
3270.62	1.0298
3279.31	1.032
3288	1.035
3296.69	1.036
3305.38	1.037
3314.07	1.037
3322.76	1.037
3331.45	1.037
3340.14	1.036
3348.83	1.0366
3357.53	1.0382
3366.22	1.04
3374.91	1.039
3383.6	1.0436
3392.29	1.0464
3400.98	1.0443
3409.67	1.043
3418.36	1.039
3427.05	1.0364
3435.74	1.035
3444.44	1.032
3453.13	1.0285
3461.82	1.027
3470.51	1.025
3479.2	1.024
3487.89	1.023
3496.58	1.0189
3505.27	1.0165
3513.96	1.016
3522.65	1.013
3531.34	1.01
3540.04	1.01
3548.73	1.0095
3557.42	1.008
3566.11	1.0069
3574.8	1.002
3583.49	1.004
3592.18	1.001
3600.87	1
3609.56	0.995
3618.25	1.001
3626.94	1.001
3635.64	0.998
3644.33	1.001
3653.02	0.998
3661.71	0.997
3670.4	0.999
3679.09	0.9976
3687.78	1.004
3696.47	1.0005
3705.16	1.0015
3713.85	0.9975
3722.55	1.001
3731.24	1.0005
3739.93	1.002
3748.62	1.002
3757.31	1.0006
3766	0.997
3774.69	0.9944
3783.38	0.994
3792.07	0.998
