Infrared Spectrum: NAPHTHALENE, 1-METHYL-
Formula: C11 H10
CAS: 90-12-0
State: SOLUTION (10% IN CCl4 FOR 3800-1300, 10% IN CS2 FOR 1300-650, AND 10% CCl4 FOR 650-240 CM^-^1) VERSUS SOLVENT
Class: COBLENTZ III
Instrument: PERKIN-ELMER 521 (GRATING)
Instrument parameters: FILTERS AT 3150, 2500, 2000, 1150, 700, 410; GRATING CHANGES AT 2000, 630 CM^-^1
Sampling: TRANSMISSION
Path length: 0.011, 0.010, AND 0.010 CM (CsBr CELL)
Resolution: 4
Origin: DOW CORNING CORP.
1/CM	TRANSMITTANCE
234.566	0.821
243.528	0.818
252.489	0.815
261.451	0.815
270.413	0.815
279.374	0.818
288.336	0.827
297.298	0.835
306.259	0.841
315.221	0.844
324.182	0.844
333.144	0.846
342.106	0.848
351.067	0.851
360.029	0.853
368.991	0.853
377.952	0.853
386.914	0.853
395.876	0.849
404.837	0.823
413.799	0.537
422.761	0.8349
431.722	0.839
440.684	0.795
449.646	0.851
458.607	0.862
467.569	0.865
476.53	0.858
485.492	0.844
494.454	0.884
503.415	0.881
512.377	0.874
521.339	0.87
530.3	0.823
539.262	0.5415
548.224	0.874
557.185	0.877
566.147	0.8271
575.109	0.867
584.07	0.877
593.032	0.884
601.993	0.888
610.955	0.881
619.917	0.881
628.878	0.91
637.84	0.917
646.802	0.912
655.763	0.897
664.725	0.905
673.687	0.916
682.648	0.917
691.61	0.881
700.572	0.877
709.533	0.888
718.495	0.912
727.457	0.867
736.418	0.572
745.38	0.879
754.341	0.841
763.303	0.778
772.265	0.4857
781.226	0.2796
790.188	0.1952
799.15	0.1462
808.111	0.666
817.073	0.7969
826.035	0.89
834.996	0.891
843.958	0.883
852.92	0.837
861.881	0.842
870.843	0.895
879.805	0.9
888.766	0.897
897.728	0.888
906.689	0.9
915.651	0.905
924.613	0.909
933.574	0.9
942.536	0.876
951.498	0.767
960.459	0.842
969.421	0.762
978.383	0.811
987.344	0.881
996.306	0.898
1005.27	0.902
1014.23	0.862
1023.19	0.6421
1032.15	0.802
1041.11	0.8092
1050.08	0.907
1059.04	0.898
1068	0.872
1076.96	0.823
1085.92	0.884
1094.88	0.914
1103.85	0.917
1112.81	0.912
1121.77	0.914
1130.73	0.904
1139.69	0.858
1148.65	0.851
1157.62	0.828
1166.58	0.72
1175.54	0.863
1184.5	0.897
1193.46	0.891
1202.42	0.888
1211.39	0.858
1220.35	0.8041
1229.31	0.895
1238.27	0.897
1247.23	0.893
1256.19	0.858
1265.16	0.811
1274.12	0.8111
1283.08	0.909
1292.04	0.914
1301	0.916
1309.96	0.914
1318.93	0.907
1327.89	0.907
1336.85	0.902
1345.81	0.863
1354.77	0.881
1363.73	0.891
1372.7	0.87
1381.66	0.764
1390.62	0.778
1399.58	0.5203
1408.54	0.8249
1417.5	0.815
1426.46	0.7969
1435.43	0.664
1444.39	0.514
1453.35	0.7711
1462.31	0.76
1471.27	0.617
1480.23	0.844
1489.2	0.865
1498.16	0.862
1507.12	0.778
1516.08	0.354
1525.04	0.811
1534	0.865
1542.97	0.893
1551.93	0.898
1560.89	0.888
1569.85	0.872
1578.81	0.858
1587.77	0.795
1596.74	0.7479
1605.7	0.3576
1614.66	0.881
1623.62	0.876
1632.58	0.874
1641.54	0.884
1650.51	0.888
1659.47	0.891
1668.43	0.886
1677.39	0.881
1686.35	0.858
1695.31	0.846
1704.28	0.877
1713.24	0.891
1722.2	0.874
1731.16	0.886
1740.12	0.865
1749.08	0.842
1758.05	0.8601
1767.01	0.888
1775.97	0.893
1784.93	0.891
1793.89	0.851
1802.85	0.832
1811.82	0.872
1820.78	0.886
1829.74	0.853
1838.7	0.874
1847.66	0.902
1856.62	0.883
1865.59	0.839
1874.55	0.893
1883.51	0.902
1892.47	0.891
1901.43	0.881
1910.39	0.879
1919.36	0.815
1928.32	0.815
1937.28	0.8231
1946.24	0.841
1955.2	0.846
1964.16	0.904
1973.13	0.912
1982.09	0.914
1991.05	0.914
2000.01	0.912
2008.97	0.916
2017.93	0.916
2026.9	0.914
2035.86	0.9139
2044.82	0.912
2053.78	0.912
2062.74	0.91
2071.7	0.91
2080.67	0.912
2089.63	0.912
2098.59	0.912
2107.55	0.912
2116.51	0.912
2125.47	0.912
2134.43	0.9107
2143.4	0.9123
2152.36	0.914
2161.32	0.912
2170.28	0.912
2179.24	0.912
2188.2	0.9134
2197.17	0.914
2206.13	0.912
2215.09	0.9115
2224.05	0.91
2233.01	0.9085
2241.97	0.907
2250.94	0.907
2259.9	0.907
2268.86	0.91
2277.82	0.9092
2286.78	0.907
2295.74	0.907
2304.71	0.91
2313.67	0.91
2322.63	0.909
2331.59	0.909
2340.55	0.91
2349.51	0.9138
2358.48	0.9112
2367.44	0.91
2376.4	0.909
2385.36	0.9051
2394.32	0.905
2403.28	0.904
2412.25	0.898
2421.21	0.898
2430.17	0.9045
2439.13	0.905
2448.09	0.907
2457.05	0.909
2466.02	0.907
2474.98	0.909
2483.94	0.907
2492.9	0.909
2501.86	0.9096
2510.82	0.91
2519.79	0.91
2528.75	0.909
2537.71	0.909
2546.67	0.9099
2555.63	0.91
2564.59	0.91
2573.56	0.91
2582.52	0.91
2591.48	0.91
2600.44	0.91
2609.4	0.9113
2618.36	0.91
2627.33	0.9084
2636.29	0.9086
2645.25	0.907
2654.21	0.9092
2663.17	0.91
2672.13	0.912
2681.1	0.912
2690.06	0.912
2699.02	0.91
2707.98	0.907
2716.94	0.9
2725.9	0.8901
2734.87	0.879
2743.83	0.889
2752.79	0.9037
2761.75	0.904
2770.71	0.9023
2779.67	0.9
2788.64	0.897
2797.6	0.891
2806.56	0.8882
2815.52	0.886
2824.48	0.8773
2833.44	0.8732
2842.41	0.8587
2851.37	0.8423
2860.33	0.7921
2869.29	0.6836
2878.25	0.7445
2887.21	0.794
2896.17	0.739
2905.14	0.675
2914.1	0.6158
2923.06	0.6495
2932.02	0.6527
2940.98	0.5774
2949.94	0.5602
2958.91	0.5453
2967.87	0.6229
2976.83	0.554
2985.79	0.5912
2994.75	0.72
3003.71	0.7081
3012.68	0.6561
3021.64	0.6482
3030.6	0.641
3039.56	0.5149
3048.52	0.431
3057.48	0.42
3066.45	0.431
3075.41	0.378
3084.37	0.4313
3093.33	0.7397
3102.29	0.7429
3111.25	0.8211
3120.22	0.8879
3129.18	0.904
3138.14	0.905
3147.1	0.91
3156.06	0.912
3165.02	0.914
3173.99	0.9156
3182.95	0.9133
3191.91	0.9186
3200.87	0.9197
3209.83	0.919
3218.79	0.917
3227.76	0.919
3236.72	0.923
3245.68	0.921
3254.64	0.921
3263.6	0.921
3272.56	0.919
3281.53	0.921
3290.49	0.919
3299.45	0.9209
3308.41	0.9151
3317.37	0.912
3326.33	0.91
3335.3	0.91
3344.26	0.909
3353.22	0.909
3362.18	0.905
3371.14	0.905
3380.1	0.904
3389.07	0.905
3398.03	0.905
3406.99	0.904
3415.95	0.9057
3424.91	0.909
3433.87	0.909
3442.84	0.91
3451.8	0.91
3460.76	0.9091
3469.72	0.912
3478.68	0.91
3487.64	0.91
3496.61	0.912
3505.57	0.914
3514.53	0.914
3523.49	0.914
3532.45	0.9144
3541.41	0.9167
3550.38	0.917
3559.34	0.919
3568.3	0.919
3577.26	0.919
3586.22	0.921
3595.18	0.921
3604.14	0.924
3613.11	0.924
3622.07	0.926
3631.03	0.926
3639.99	0.928
3648.95	0.928
3657.91	0.93
3666.88	0.931
3675.84	0.93
3684.8	0.93
3693.76	0.93
3702.72	0.931
3711.68	0.931
3720.65	0.931
3729.61	0.93
3738.57	0.93
3747.53	0.926
3756.49	0.926
3765.45	0.926
3774.42	0.926
3783.38	0.923
3792.34	0.921
