Infrared Spectrum: 2,6-DIMETHOXY PHENOL
Formula: C8 H10 O3
CAS: 91-10-1
State: SOLID (MULL)
Melting point: 53.5-55.5 C
Class: COBLENTZ
Instrument: Not specified, most likely a prism, grating, or hybrid spectrometer.
Sampling: TRANSMISSION
Resolution: 4
Origin: WYANDOTTE CHEMICALS CORP., WYANDOTTE, MICHIGAN, USA
MICROMETERS	TRANSMITTANCE
2.036	0.489
2.07589	0.489
2.11579	0.484
2.15568	0.462
2.19557	0.45
2.23546	0.452
2.27536	0.457
2.31525	0.454
2.35514	0.45
2.39504	0.462
2.43493	0.474
2.47482	0.487
2.51471	0.489
2.55461	0.5
2.5945	0.502
2.63439	0.512
2.67429	0.52
2.71418	0.525
2.75407	0.505
2.79396	0.472
2.83386	0.284
2.87375	0.201
2.91364	0.254
2.95354	0.327
2.99343	0.399
3.03332	0.427
3.07321	0.437
3.11311	0.424
3.153	0.405
3.19289	0.366
3.23279	0.336
3.27268	0.211
3.31257	0.036
3.35246	0.026
3.39236	0.029
3.43225	0.041
3.47214	0.041
3.51204	0.236
3.55193	0.454
3.59182	0.509
3.63171	0.49
3.67161	0.5
3.7115	0.517
3.75139	0.525
3.79129	0.535
3.83118	0.534
3.87107	0.547
3.91096	0.575
3.95086	0.565
3.99075	0.572
4.03064	0.587
4.07054	0.6
4.11043	0.608
4.15032	0.608
4.19021	0.599
4.23011	0.602
4.27	0.615
4.30989	0.615
4.34979	0.63
4.38968	0.65
4.42957	0.667
4.46946	0.678
4.50936	0.693
4.54925	0.687
4.58914	0.677
4.62904	0.65
4.66893	0.695
4.70882	0.685
4.74871	0.66
4.78861	0.702
4.8285	0.712
4.86839	0.702
4.90829	0.717
4.94818	0.735
4.98807	0.752
5.02796	0.747
5.06786	0.765
5.10775	0.782
5.14764	0.78
5.18754	0.775
5.22743	0.737
5.26732	0.712
5.30721	0.763
5.34711	0.813
5.387	0.83
5.42689	0.843
5.46679	0.85
5.50668	0.833
5.54657	0.793
5.58646	0.856
5.62636	0.89
5.66625	0.903
5.70614	0.91
5.74604	0.926
5.78593	0.886
5.82582	0.868
5.86571	0.943
5.90561	0.968
5.9455	0.973
5.98539	0.94
6.02529	0.855
6.06518	0.474
6.10507	0.322
6.14496	0.281
6.18486	0.391
6.22475	0.435
6.26464	0.502
6.30453	0.597
6.34443	0.627
6.38432	0.658
6.42421	0.635
6.46411	0.599
6.504	0.5
6.54389	0.244
6.58378	0.207
6.62368	0.232
6.66357	0.101
6.70346	0.059
6.74336	0.031
6.78325	0.041
6.82314	0.031
6.86303	0.043
6.90293	0.079
6.94282	0.299
6.98271	0.442
7.02261	0.529
7.0625	0.55
7.10239	0.569
7.14228	0.462
7.18218	0.189
7.22207	0.076
7.26196	0.063
7.30186	0.091
7.34175	0.173
7.38164	0.324
7.42153	0.429
7.46143	0.497
7.50132	0.394
7.54121	0.382
7.58111	0.4
7.621	0.271
7.66089	0.133
7.70078	0.166
7.74068	0.109
7.78057	0.111
7.82046	0.222
7.86036	0.362
7.90025	0.354
7.94014	0.257
7.98003	0.159
8.01993	0.103
8.05982	0.113
8.09971	0.113
8.13961	0.081
8.1795	0.061
8.21939	0.063
8.25928	0.069
8.29918	0.094
8.33907	0.129
8.37896	0.141
8.41886	0.154
8.45875	0.219
8.49864	0.241
8.53853	0.246
8.57843	0.374
8.61832	0.371
8.65821	0.362
8.69811	0.419
8.738	0.412
8.77789	0.366
8.81778	0.316
8.85768	0.262
8.89757	0.206
8.93746	0.123
8.97736	0.074
9.01725	0.073
9.05714	0.081
9.09703	0.101
9.13693	0.099
9.17682	0.086
9.21671	0.101
9.25661	0.124
9.2965	0.153
9.33639	0.181
9.37628	0.199
9.41618	0.219
9.45607	0.239
9.49596	0.246
9.53586	0.237
9.57575	0.199
9.61564	0.133
9.65553	0.094
9.69543	0.094
9.73532	0.101
9.77521	0.133
9.81511	0.173
9.855	0.207
9.89489	0.236
9.93478	0.259
9.97468	0.272
10.0146	0.294
10.0545	0.299
10.0944	0.304
10.1342	0.316
10.1741	0.322
10.214	0.321
10.2539	0.332
10.2938	0.344
10.3337	0.349
10.3736	0.354
10.4135	0.369
10.4534	0.372
10.4933	0.384
10.5332	0.366
10.5731	0.359
10.613	0.391
10.6529	0.4
10.6927	0.404
10.7326	0.419
10.7725	0.429
10.8124	0.444
10.8523	0.452
10.8922	0.457
10.9321	0.47
10.972	0.477
11.0119	0.482
11.0518	0.482
11.0917	0.435
11.1316	0.344
11.1715	0.306
11.2114	0.286
11.2512	0.344
11.2911	0.389
11.331	0.417
11.3709	0.452
11.4108	0.495
11.4507	0.514
11.4906	0.525
11.5305	0.534
11.5704	0.545
11.6103	0.544
11.6502	0.525
11.6901	0.489
11.73	0.497
11.7699	0.537
11.8097	0.564
11.8496	0.574
11.8895	0.577
11.9294	0.58
11.9693	0.569
12.0092	0.515
12.0491	0.434
12.089	0.277
12.1289	0.214
12.1688	0.321
12.2087	0.464
12.2486	0.53
12.2885	0.579
12.3284	0.6
12.3682	0.607
12.4081	0.623
12.448	0.635
12.4879	0.632
12.5278	0.64
12.5677	0.637
12.6076	0.633
12.6475	0.627
12.6874	0.59
12.7273	0.559
12.7672	0.504
12.8071	0.409
12.847	0.314
12.8869	0.199
12.9267	0.114
12.9666	0.088
13.0065	0.094
13.0464	0.118
13.0863	0.181
13.1262	0.259
13.1661	0.356
13.206	0.427
13.2459	0.477
13.2858	0.512
13.3257	0.532
13.3656	0.555
13.4055	0.569
13.4454	0.572
13.4852	0.572
13.5251	0.555
13.565	0.534
13.6049	0.487
13.6448	0.407
13.6847	0.304
13.7246	0.209
13.7645	0.146
13.8044	0.149
13.8443	0.183
13.8842	0.261
13.9241	0.322
13.964	0.364
14.0039	0.357
14.0437	0.332
14.0836	0.292
14.1235	0.249
14.1634	0.234
14.2033	0.236
14.2432	0.269
14.2831	0.326
14.323	0.384
14.3629	0.432
14.4028	0.484
14.4427	0.514
14.4826	0.539
14.5225	0.564
14.5624	0.579
14.6022	0.595
14.6421	0.613
14.682	0.627
14.7219	0.632
14.7618	0.633
14.8017	0.638
14.8416	0.648
14.8815	0.648
14.9214	0.648
14.9613	0.645
15.0012	0.633
15.0411	0.612
15.081	0.618
15.1209	0.63
15.1607	0.642
15.2006	0.643
15.2405	0.643
15.2804	0.643
15.3203	0.64
15.3602	0.632
15.4001	0.632
15.44	0.63
15.4799	0.625
15.5198	0.62
15.5597	0.62
15.5996	0.618
15.6395	0.612
15.6794	0.602
15.7192	0.597
15.7591	0.579
15.799	0.575
15.8389	0.572
15.8788	0.565
15.9187	0.56
15.9586	0.549
