Infrared Spectrum: Naphthalene
Formula: C10 H8
CAS: 91-20-3
State: SOLUTION (10% CCl4 FOR 3800-1300, 11% CS2 FOR 1300-650, AND 10% CCl4 FOR 650-250)
Melting point: 80.2 C
Class: COBLENTZ II
Instrument: PERKIN-ELMER 521 (GRATING)
Instrument parameters: FILTERS AT 3150, 2500, 2000, 1150, 700, 410. GRATING CHANGES: 2000, 630
Path length: 0.011 CM, 0.010 CM, AND 0.010 CM
Resolution: 2
Origin: DOW CORNING CORP.
1/CM	TRANSMITTANCE
243	1.0105
252	0.9883
261	0.9775
270	0.9546
279	0.9372
288	0.9267
297	0.9203
306	0.9174
315	0.9091
324	0.9019
333	0.9008
342	0.885
351	0.8777
360	0.7491
369	0.8725
378	0.8659
387	0.8645
396	0.8634
405	0.8593
414	0.8573
423	0.8585
432	0.8595
441	0.8593
450	0.8516
459	0.8259
468	0.7622
477	0.1229
486	0.7637
495	0.8249
504	0.8378
513	0.8435
522	0.8485
531	0.8566
540	0.8508
549	0.8504
558	0.8499
567	0.85
576	0.8584
585	0.8619
594	0.8616
603	0.854
612	0.8108
621	0.8682
630	0.8684
639	0.867
648	0.8686
657	0.9403
666	0.9454
675	0.9423
684	0.9313
693	0.8952
702	0.9012
711	0.8619
720	0.8452
729	0.8685
738	0.8375
747	0.8181
756	0.7599
765	0.7063
774	0.6136
783	0.0196
792	0.2761
801	0.628
810	0.8025
819	0.8142
828	0.6721
837	0.8575
846	0.8798
855	0.8882
864	0.8704
873	0.8618
882	0.8749
891	0.8786
900	0.8771
909	0.8698
918	0.8723
927	0.8675
936	0.8368
945	0.8074
954	0.6123
963	0.7682
972	0.8247
981	0.8495
990	0.858
999	0.8395
1008	0.7044
1017	0.8211
1026	0.8548
1035	0.8684
1044	0.8754
1053	0.8768
1062	0.871
1071	0.8704
1080	0.8582
1089	0.8631
1098	0.8543
1107	0.8493
1116	0.806
1125	0.5251
1134	0.7433
1143	0.791
1152	0.7983
1161	0.8001
1170	0.8234
1179	0.8496
1188	0.8507
1197	0.8417
1206	0.7544
1215	0.8439
1224	0.8482
1233	0.7622
1242	0.8433
1251	0.8443
1260	0.7682
1269	0.414
1278	0.8691
1287	0.875
1296	0.8806
1305	0.9078
1314	0.9066
1323	0.9017
1332	0.8944
1341	0.8833
1350	0.8488
1359	0.7686
1368	0.8793
1377	0.8444
1386	0.5157
1395	0.8864
1404	0.8998
1413	0.8937
1422	0.8722
1431	0.8821
1440	0.8937
1449	0.8892
1458	0.8858
1467	0.8894
1476	0.8849
1485	0.8628
1494	0.7783
1503	0.5394
1512	0.5052
1521	0.7701
1530	0.8729
1539	0.8338
1548	0.8154
1557	0.8631
1566	0.8824
1575	0.8798
1584	0.8641
1593	0.5374
1602	0.7682
1611	0.8859
1620	0.8849
1629	0.8772
1638	0.8707
1647	0.8494
1656	0.8193
1665	0.8247
1674	0.8209
1683	0.8764
1692	0.8791
1701	0.8615
1710	0.8332
1719	0.7947
1728	0.8213
1737	0.8186
1746	0.8719
1755	0.8657
1764	0.84
1773	0.7761
1782	0.869
1791	0.8657
1800	0.8305
1809	0.7919
1818	0.8576
1827	0.8299
1836	0.7996
1845	0.8074
1854	0.8637
1863	0.8787
1872	0.8813
1881	0.8722
1890	0.8468
1899	0.782
1908	0.7941
1917	0.8395
1926	0.8334
1935	0.7727
1944	0.7337
1953	0.83
1962	0.8739
1971	0.8841
1980	0.8815
1989	0.8786
1998	0.8864
2007	0.9023
2016	0.9012
2025	0.8989
2034	0.8968
2043	0.8959
2052	0.9005
2061	0.9018
2070	0.9013
2079	0.9007
2088	0.8999
2097	0.8996
2106	0.8996
2115	0.8996
2124	0.899
2133	0.8982
2142	0.8973
2151	0.8965
2160	0.8961
2169	0.897
2178	0.899
2187	0.9007
2196	0.9017
2205	0.9017
2214	0.9007
2223	0.8992
2232	0.8958
2241	0.8928
2250	0.8944
2259	0.8955
2268	0.8894
2277	0.8795
2286	0.873
2295	0.8804
2304	0.8948
2313	0.9008
2322	0.9012
2331	0.9004
2340	0.8991
2349	0.8959
2358	0.8933
2367	0.8926
2376	0.8949
2385	0.8955
2394	0.8918
2403	0.8863
2412	0.8798
2421	0.8734
2430	0.8887
2439	0.8978
2448	0.9001
2457	0.9001
2466	0.9
2475	0.8996
2484	0.8993
2493	0.8988
2502	0.8984
2511	0.898
2520	0.8976
2529	0.8973
2538	0.8972
2547	0.897
2556	0.8969
2565	0.897
2574	0.8971
2583	0.8971
2592	0.8989
2601	0.9007
2610	0.9008
2619	0.9008
2628	0.8996
2637	0.8989
2646	0.9023
2655	0.9058
2664	0.9065
2673	0.9068
2682	0.9069
2691	0.9066
2700	0.9064
2709	0.9061
2718	0.9059
2727	0.906
2736	0.9061
2745	0.9058
2754	0.9065
2763	0.9091
2772	0.9102
2781	0.9093
2790	0.9082
2799	0.9067
2808	0.9058
2817	0.905
2826	0.9019
2835	0.8986
2844	0.8974
2853	0.9104
2862	0.916
2871	0.9162
2880	0.9158
2889	0.9156
2898	0.9154
2907	0.9158
2916	0.9091
2925	0.8976
2934	0.8885
2943	0.8685
2952	0.8323
2961	0.7779
2970	0.8257
2979	0.8017
2988	0.8412
2997	0.8059
3006	0.7461
3015	0.7273
3024	0.6586
3033	0.6206
3042	0.4719
3051	0.2747
3060	0.2738
3069	0.2994
3078	0.5443
3087	0.7
3096	0.637
3105	0.869
3114	0.8905
3123	0.8919
3132	0.9094
3141	0.9088
3150	0.9094
3159	0.9089
3168	0.889
3177	0.9033
3186	0.9202
3195	0.9224
3204	0.9229
3213	0.9208
3222	0.9116
3231	0.9282
3240	0.9309
3249	0.9315
3258	0.9321
3267	0.933
3276	0.9341
3285	0.9349
3294	0.9355
3303	0.9361
3312	0.9367
3321	0.9368
3330	0.9369
3339	0.937
3348	0.9371
3357	0.9366
3366	0.9362
3375	0.9357
3384	0.9353
3393	0.9349
3402	0.9346
3411	0.9343
3420	0.934
3429	0.9334
3438	0.9327
3447	0.9321
3456	0.9313
3465	0.9304
3474	0.9296
3483	0.9288
3492	0.9279
3501	0.9271
3510	0.9263
3519	0.9255
3528	0.9244
3537	0.9228
3546	0.9212
3555	0.9199
3564	0.9187
3573	0.9183
3582	0.9184
3591	0.918
3600	0.9168
3609	0.915
3618	0.9121
3627	0.9116
3636	0.9115
3645	0.9094
3654	0.9113
3663	0.9142
3672	0.9072
3681	0.9056
3690	0.9122
3699	0.9167
3708	0.9139
3717	0.9086
3726	0.9108
3735	0.9091
3744	0.9075
3753	0.9105
3762	0.9112
3771	0.9114
3780	0.911
3789	0.9099
3798	0.9061
3807	0.8946
