Infrared Spectrum: 2-METHYL-1,4-DIPROPIONITRILE PIPERAZINE
Formula: C11 H18 N4
CAS: 91253-07-5
State: SOLID (MINERAL OIL MULL)
Class: COBLENTZ
Instrument: Not specified, most likely a prism, grating, or hybrid spectrometer.
Sampling: TRANSMISSION
Resolution: 4
Origin: WYANDOTTE CHEMICALS CORP., WYANDOTTE, MICHIGAN, USA
MICROMETERS	TRANSMITTANCE
2.025	0.763
2.06212	0.764
2.09923	0.767
2.13635	0.767
2.17347	0.716
2.21059	0.659
2.2477	0.648
2.28482	0.662
2.32194	0.664
2.35906	0.66
2.39617	0.676
2.43329	0.681
2.47041	0.685
2.50753	0.702
2.54464	0.716
2.58176	0.729
2.61888	0.73
2.65599	0.752
2.69311	0.752
2.73023	0.735
2.76735	0.721
2.80446	0.715
2.84158	0.716
2.8787	0.71
2.91582	0.699
2.95293	0.687
2.99005	0.681
3.02717	0.665
3.06429	0.643
3.1014	0.614
3.13852	0.599
3.17564	0.599
3.21275	0.574
3.24987	0.495
3.28699	0.385
3.32411	0.023
3.36122	0.026
3.39834	0.029
3.43546	0.026
3.47258	0.021
3.50969	0.024
3.54681	0.029
3.58393	0.058
3.62104	0.097
3.65816	0.176
3.69528	0.249
3.7324	0.38
3.76951	0.424
3.80663	0.521
3.84375	0.569
3.88087	0.595
3.91798	0.654
3.9551	0.718
3.99222	0.732
4.02934	0.741
4.06645	0.777
4.10357	0.761
4.14069	0.773
4.1778	0.784
4.21492	0.797
4.25204	0.76
4.28916	0.773
4.32627	0.787
4.36339	0.795
4.40051	0.791
4.43763	0.803
4.47474	0.656
4.51186	0.17
4.54898	0.465
4.5861	0.712
4.62321	0.75
4.66033	0.778
4.69745	0.811
4.73456	0.834
4.77168	0.86
4.8088	0.86
4.84592	0.86
4.88303	0.873
4.92015	0.86
4.95727	0.856
4.99439	0.862
5.0315	0.868
5.06862	0.882
5.10574	0.907
5.14286	0.874
5.17997	0.88
5.21709	0.885
5.25421	0.893
5.29132	0.905
5.32844	0.899
5.36556	0.894
5.40268	0.902
5.43979	0.894
5.47691	0.897
5.51403	0.904
5.55115	0.917
5.58826	0.913
5.62538	0.914
5.6625	0.936
5.69962	0.916
5.73673	0.922
5.77385	0.922
5.81097	0.913
5.84808	0.894
5.8852	0.908
5.92232	0.885
5.95944	0.852
5.99655	0.851
6.03367	0.868
6.07079	0.866
6.10791	0.876
6.14502	0.882
6.18214	0.908
6.21926	0.902
6.25637	0.902
6.29349	0.911
6.33061	0.89
6.36773	0.897
6.40484	0.893
6.44196	0.883
6.47908	0.899
6.5162	0.869
6.55331	0.846
6.59043	0.808
6.62755	0.73
6.66467	0.622
6.70178	0.402
6.7389	0.145
6.77602	0.017
6.81313	0.035
6.85025	0.026
6.88737	0.034
6.92449	0.041
6.9616	0.06
6.99872	0.187
7.03584	0.393
7.07296	0.445
7.11007	0.397
7.14719	0.233
7.18431	0.075
7.22143	0.023
7.25854	0.06
7.29566	0.13
7.33278	0.188
7.36989	0.06
7.40701	0.069
7.44413	0.069
7.48125	0.099
7.51836	0.287
7.55548	0.377
7.5926	0.224
7.62972	0.119
7.66683	0.195
7.70395	0.297
7.74107	0.247
7.77819	0.139
7.8153	0.047
7.85242	0.188
7.88954	0.243
7.92665	0.111
7.96377	0.085
8.00089	0.151
8.03801	0.278
8.07512	0.464
8.11224	0.574
8.14936	0.608
8.18648	0.626
8.22359	0.597
8.26071	0.606
8.29783	0.63
8.33495	0.602
8.37206	0.554
8.40918	0.462
8.4463	0.294
8.48341	0.111
8.52053	0.054
8.55765	0.032
8.59477	0.04
8.63188	0.054
8.669	0.1
8.70612	0.094
8.74324	0.06
8.78035	0.044
8.81747	0.099
8.85459	0.147
8.8917	0.289
8.92882	0.386
8.96594	0.343
9.00306	0.334
9.04017	0.478
9.07729	0.58
9.11441	0.595
9.15153	0.58
9.18864	0.504
9.22576	0.379
9.26288	0.14
9.3	0.068
9.33711	0.126
9.37423	0.253
9.41135	0.337
9.44846	0.277
9.48558	0.1
9.5227	0.215
9.55982	0.349
9.59693	0.388
9.63405	0.422
9.67117	0.294
9.70829	0.207
9.7454	0.374
9.78252	0.49
9.81964	0.561
9.85676	0.592
9.89387	0.535
9.93099	0.404
9.96811	0.314
10.0052	0.408
10.0423	0.425
10.0795	0.489
10.1166	0.591
10.1537	0.62
10.1908	0.631
10.2279	0.611
10.265	0.571
10.3022	0.482
10.3393	0.411
10.3764	0.526
10.4135	0.588
10.4506	0.619
10.4877	0.651
10.5249	0.667
10.562	0.698
10.5991	0.701
10.6362	0.716
10.6733	0.721
10.7105	0.718
10.7476	0.688
10.7847	0.619
10.8218	0.484
10.8589	0.224
10.896	0.174
10.9332	0.295
10.9703	0.328
11.0074	0.243
11.0445	0.278
11.0816	0.434
11.1187	0.551
11.1559	0.558
11.193	0.487
11.2301	0.549
11.2672	0.659
11.3043	0.718
11.3414	0.758
11.3786	0.772
11.4157	0.761
11.4528	0.684
11.4899	0.504
11.527	0.482
11.5642	0.643
11.6013	0.733
11.6384	0.769
11.6755	0.775
11.7126	0.778
11.7497	0.784
11.7869	0.786
11.824	0.77
11.8611	0.747
11.8982	0.691
11.9353	0.603
11.9724	0.507
12.0096	0.399
12.0467	0.376
12.0838	0.438
12.1209	0.537
12.158	0.605
12.1951	0.676
12.2323	0.716
12.2694	0.741
12.3065	0.761
12.3436	0.755
12.3807	0.722
12.4179	0.65
12.455	0.523
12.4921	0.404
12.5292	0.26
12.5663	0.17
12.6034	0.238
12.6406	0.38
12.6777	0.535
12.7148	0.613
12.7519	0.664
12.789	0.719
12.8261	0.735
12.8633	0.753
12.9004	0.756
12.9375	0.769
12.9746	0.781
13.0117	0.791
13.0488	0.803
13.086	0.8
13.1231	0.794
13.1602	0.791
13.1973	0.769
13.2344	0.713
13.2715	0.605
13.3087	0.444
13.3458	0.25
13.3829	0.154
13.42	0.165
13.4571	0.289
13.4943	0.424
13.5314	0.52
13.5685	0.571
13.6056	0.611
13.6427	0.637
13.6798	0.66
13.717	0.688
13.7541	0.699
13.7912	0.704
13.8283	0.712
13.8654	0.719
13.9025	0.741
13.9397	0.786
13.9768	0.811
14.0139	0.837
14.051	0.857
14.0881	0.882
14.1252	0.886
14.1624	0.899
14.1995	0.91
14.2366	0.924
14.2737	0.925
14.3108	0.933
14.348	0.936
14.3851	0.934
14.4222	0.947
14.4593	0.939
14.4964	0.947
14.5335	0.936
14.5707	0.938
14.6078	0.942
14.6449	0.939
14.682	0.938
14.7191	0.933
14.7562	0.933
14.7934	0.928
14.8305	0.925
14.8676	0.931
14.9047	0.925
14.9418	0.916
14.9789	0.904
15.0161	0.859
15.0532	0.82
15.0903	0.826
15.1274	0.845
15.1645	0.862
15.2016	0.86
15.2388	0.852
15.2759	0.848
15.313	0.826
15.3501	0.821
15.3872	0.818
15.4244	0.815
15.4615	0.812
15.4986	0.815
15.5357	0.798
15.5728	0.801
15.6099	0.801
15.6471	0.795
15.6842	0.767
15.7213	0.761
15.7584	0.746
15.7955	0.739
15.8326	0.726
15.8698	0.719
15.9069	0.713
15.944	0.699
15.9811	0.684
