Infrared Spectrum: 1,2,3,4-Tetrahydroisoquinoline
Formula: C9 H11 N
CAS: 91-21-4
State: LIQUID (NEAT)
Boiling point: 115 C AT 15 mmHg
Class: COBLENTZ III
Instrument: DOW KBr FOREPRISM-GRATING
Instrument parameters: BLAZED AT 3.5, 12.0, 20.0 MICRON AND CHANGED AT 5.0, 7.5, 14.9 MICRON
Sampling: TRANSMISSION
Path length: CAPILLARY
Resolution: 2
Origin: DOW CHEMICAL COMPANY
1/CM	TRANSMITTANCE
3814	0.8884
3805	0.8877
3796	0.887
3787	0.8862
3778	0.8858
3769	0.8856
3760	0.8854
3751	0.8853
3742	0.8851
3733	0.8843
3724	0.8835
3715	0.8821
3706	0.8804
3697	0.8789
3688	0.8785
3679	0.878
3670	0.8778
3661	0.8785
3652	0.8792
3643	0.8797
3634	0.8801
3625	0.8805
3616	0.8804
3607	0.8796
3598	0.8788
3589	0.878
3580	0.8768
3571	0.8758
3562	0.8748
3553	0.8733
3544	0.8715
3535	0.8697
3526	0.8678
3517	0.8661
3508	0.8643
3499	0.8625
3490	0.8607
3481	0.8587
3472	0.8567
3463	0.8547
3454	0.8527
3445	0.8507
3436	0.8487
3427	0.8467
3418	0.8462
3409	0.8458
3400	0.8449
3391	0.8432
3382	0.8386
3373	0.8295
3364	0.8151
3355	0.7976
3346	0.7887
3337	0.7874
3328	0.7761
3319	0.7675
3310	0.7595
3301	0.7511
3292	0.7443
3283	0.7383
3274	0.7365
3265	0.7415
3256	0.7519
3247	0.7645
3238	0.7799
3229	0.7928
3220	0.8031
3211	0.8101
3202	0.8169
3193	0.8239
3184	0.8297
3175	0.8348
3166	0.839
3157	0.842
3148	0.8445
3139	0.8462
3130	0.8462
3121	0.8395
3112	0.8332
3103	0.8296
3094	0.822
3085	0.7807
3076	0.7749
3067	0.7138
3058	0.7628
3049	0.74
3040	0.7415
3031	0.6662
3022	0.7114
3013	0.7412
3004	0.7787
2995	0.7911
2986	0.7901
2977	0.7711
2968	0.6699
2959	0.5929
2950	0.5531
2941	0.5001
2932	0.4562
2923	0.466
2914	0.5175
2905	0.5708
2896	0.5929
2887	0.599
2878	0.6411
2869	0.659
2860	0.6937
2851	0.6608
2842	0.5974
2833	0.6246
2824	0.6572
2815	0.6123
2806	0.6137
2797	0.6794
2788	0.7203
2779	0.7432
2770	0.7569
2761	0.7699
2752	0.7653
2743	0.7001
2734	0.7682
2725	0.7851
2716	0.8006
2707	0.8143
2698	0.8206
2689	0.8212
2680	0.8295
2671	0.843
2662	0.8533
2653	0.8562
2644	0.8545
2635	0.8509
2626	0.8497
2617	0.8537
2608	0.8592
2599	0.8642
2590	0.8671
2581	0.8698
2572	0.8718
2563	0.8738
2554	0.8756
2545	0.8765
2536	0.8768
2527	0.8763
2518	0.8758
2509	0.8752
2500	0.875
2491	0.8751
2482	0.8757
2473	0.8761
2464	0.8765
2455	0.8768
2446	0.8771
2437	0.8771
2428	0.877
2419	0.8768
2410	0.8766
2401	0.8759
2392	0.8753
2383	0.8749
2374	0.8757
2365	0.8764
2356	0.878
2347	0.8792
2338	0.8796
2329	0.8791
2320	0.8784
2311	0.8777
2302	0.8771
2293	0.8767
2284	0.8763
2275	0.8758
2266	0.8758
2257	0.8757
2248	0.8756
2239	0.8755
2230	0.8754
2221	0.8753
2212	0.8756
2203	0.8759
2194	0.8763
2185	0.8766
2176	0.8768
2167	0.877
2158	0.8771
2149	0.8773
2140	0.8774
2131	0.8774
2122	0.8774
2113	0.8774
2104	0.8773
2095	0.8771
2086	0.8768
2077	0.8766
2068	0.8764
2059	0.8762
2050	0.8763
2041	0.8765
2032	0.8766
2023	0.8763
2014	0.876
2005	0.8757
1996	0.8765
1987	0.879
1978	0.8827
1969	0.881
1960	0.8791
1951	0.8771
1942	0.8731
1933	0.8742
1924	0.8792
1915	0.8774
1906	0.8718
1897	0.8734
1888	0.8795
1879	0.8833
1870	0.8841
1861	0.8824
1852	0.88
1843	0.8808
1834	0.8818
1825	0.8827
1816	0.8841
1807	0.8854
1798	0.8867
1789	0.8877
1780	0.8898
1771	0.8957
1762	0.8988
1753	0.8967
1744	0.8943
1735	0.8932
1726	0.892
1717	0.8851
1708	0.879
1699	0.8925
1690	0.8897
1681	0.8713
1672	0.8654
1663	0.8659
1654	0.8671
1645	0.8658
1636	0.8613
1627	0.8413
1618	0.8374
1609	0.844
1600	0.8093
1591	0.8321
1582	0.7999
1573	0.8231
1564	0.8537
1555	0.8644
1546	0.8694
1537	0.8709
1528	0.8708
1519	0.867
1510	0.8563
1501	0.8181
1492	0.5779
1483	0.756
1474	0.789
1465	0.7346
1456	0.5978
1447	0.6214
1438	0.6776
1429	0.6458
1420	0.7778
1411	0.8197
1402	0.838
1393	0.8457
1384	0.7883
1375	0.8135
1366	0.7806
1357	0.7892
1348	0.836
1339	0.8157
1330	0.818
1321	0.8096
1312	0.7025
1303	0.8098
1294	0.8153
1285	0.8348
1276	0.8367
1267	0.8289
1258	0.7315
1249	0.7894
1240	0.8381
1231	0.8465
1222	0.8171
1213	0.8108
1204	0.8245
1195	0.804
1186	0.7921
1177	0.8078
1168	0.8165
1159	0.8302
1150	0.8234
1141	0.8288
1132	0.7812
1123	0.5931
1114	0.6133
1105	0.7724
1096	0.8018
1087	0.7961
1078	0.7949
1069	0.8076
1060	0.7946
1051	0.8084
1042	0.837
1033	0.7597
1024	0.8231
1015	0.8384
1006	0.8299
997	0.838
988	0.8112
979	0.8275
970	0.8366
961	0.8174
952	0.7472
943	0.6818
934	0.7065
925	0.7932
916	0.8512
907	0.8609
898	0.8489
889	0.8446
880	0.8275
871	0.8339
862	0.7799
853	0.7521
844	0.754
835	0.6992
826	0.6304
817	0.6861
808	0.6957
799	0.6461
790	0.6315
781	0.6447
772	0.6689
763	0.6658
754	0.5284
745	0.1828
736	0.3753
727	0.6285
718	0.7397
709	0.8171
700	0.7555
691	0.8149
682	0.8405
673	0.8516
664	0.8582
655	0.8617
646	0.8597
637	0.8018
628	0.8026
619	0.8108
610	0.7758
601	0.7724
592	0.7964
583	0.8144
574	0.8335
565	0.8438
556	0.8465
547	0.8461
538	0.8448
529	0.8425
520	0.8356
511	0.8259
502	0.8228
493	0.8195
484	0.8099
475	0.7833
466	0.7361
457	0.7345
448	0.7601
439	0.7365
430	0.6248
421	0.6375
412	0.7
403	0.7058
394	0.7012
385	0.6965
