Infrared Spectrum: 2-Chloro-6-benzyloxybenzonitrile
Formula: C 14 H 10 Cl N O
CAS: 92161-40-5
State: gas
Origin: EPA-IR VAPOR PHASE LIBRARY
1/CM	ABSORBANCE
549.8	0.001854
559.445	0.002594
569.09	0.002834
578.734	0.002964
588.379	0.003304
598.024	0.003604
607.669	0.003114
617.313	0.001904
626.958	0.001954
636.603	0.002454
646.248	0.003104
655.893	0.003324
665.537	0.003934
675.182	0.006644
684.827	0.009434
694.472	0.015574
704.116	0.013604
713.761	0.012224
723.406	0.021344
733.051	0.024174
742.695	0.016614
752.34	0.009754
761.985	0.007994
771.63	0.015584
781.275	0.017564
790.919	0.009564
800.564	0.005154
810.209	0.003524
819.854	0.003254
829.498	0.002484
839.143	0.002584
848.788	0.003804
858.433	0.006144
868.078	0.007834
877.722	0.007014
887.367	0.007754
897.012	0.008934
906.657	0.009794
916.301	0.007654
925.946	0.005964
935.591	0.004824
945.236	0.005714
954.88	0.008474
964.525	0.012494
974.17	0.017124
983.815	0.023234
993.46	0.028884
1003.1	0.031804
1012.75	0.038294
1022.39	0.047434
1032.04	0.042064
1041.68	0.031444
1051.33	0.015584
1060.97	0.010344
1070.62	0.008764
1080.26	0.005344
1089.91	0.003624
1099.55	0.003074
1109.2	0.003954
1118.84	0.002454
1128.49	0.0014376
1138.13	0.001934
1147.78	0.004004
1157.42	0.004044
1167.07	0.004114
1176.71	0.004954
1186.36	0.005924
1196	0.005714
1205.64	0.008454
1215.29	0.007824
1224.93	0.012234
1234.58	0.025154
1244.22	0.027544
1253.87	0.031874
1263.51	0.041284
1273.16	0.048604
1282.8	0.059294
1292.45	0.037994
1302.09	0.017504
1311.74	0.011644
1321.38	0.008144
1331.03	0.006164
1340.67	0.005894
1350.32	0.006114
1359.96	0.007284
1369.61	0.012814
1379.25	0.015244
1388.9	0.006844
1398.54	0.003794
1408.18	0.003874
1417.83	0.005874
1427.47	0.010874
1437.12	0.027284
1446.76	0.071694
1456.41	0.067524
1466.05	0.039384
1475.7	0.020234
1485.34	0.009234
1494.99	0.009784
1504.63	0.007794
1514.28	0.004734
1523.92	0.004724
1533.57	0.005954
1543.21	0.008054
1552.86	0.012734
1562.5	0.025014
1572.15	0.046934
1581.79	0.049634
1591.44	0.032294
1601.08	0.010104
1610.73	0.004324
1620.37	0.003224
1630.01	0.002704
1639.66	0.002544
1649.3	0.002464
1658.95	0.002104
1668.59	0.001854
1678.24	0.001894
1687.88	0.001644
1697.53	0.001464
1707.17	0.0014059
1716.82	0.001288
1726.46	0.001634
1736.11	0.001534
1745.75	0.001514
1755.4	0.001804
1765.04	0.001574
1774.69	0.001594
1784.33	0.001664
1793.98	0.002054
1803.62	0.002284
1813.27	0.001874
1822.91	0.001724
1832.55	0.001924
1842.2	0.001764
1851.84	0.001914
1861.49	0.002024
1871.13	0.001744
1880.78	0.001994
1890.42	0.001824
1900.07	0.001774
1909.71	0.001764
1919.36	0.002334
1929	0.002384
1938.65	0.002314
1948.29	0.002164
1957.94	0.002034
1967.58	0.0014613
1977.23	0.0012561
1986.87	0.0012707
1996.52	0.0011682
2006.16	0.0010119
2015.81	0.0011716
2025.45	0.0013049
2035.1	0.0011104
2044.74	0.001313
2054.38	0.0012247
2064.03	0.0012626
2073.67	0.0010086
2083.32	0.0009085
2092.96	0.0010877
2102.61	0.001229
2112.25	0.00112
2121.9	0.0012943
2131.54	0.001313
2141.19	0.0012843
2150.83	0.0012293
2160.48	0.001514
2170.12	0.0013991
2179.77	0.0012394
2189.41	0.0012179
2199.06	0.0012211
2208.7	0.0013424
2218.35	0.001694
2227.99	0.002514
2237.64	0.002814
2247.28	0.001774
2256.92	0.0012152
2266.57	0.0010105
2276.21	0.0011217
2285.86	0.0009789
2295.5	0.0010472
2305.15	0.0011586
2314.79	0.0013713
2324.44	0.0011446
2334.08	0.0012716
2343.73	0.0014323
2353.37	0.0012348
2363.02	0.0011236
2372.66	0.0010013
2382.31	0.0009922
2391.95	0.0008459
2401.6	0.0009073
2411.24	0.0009503
2420.89	0.0009289
2430.53	0.0008298
2440.18	0.0009903
2449.82	0.0011813
2459.47	0.0010744
2469.11	0.0010902
2478.75	0.0010818
2488.4	0.0010304
2498.04	0.0011712
2507.69	0.0013729
2517.33	0.001494
2526.98	0.001494
2536.62	0.0013353
2546.27	0.001594
2555.91	0.001504
2565.56	0.0013832
2575.2	0.0012709
2584.85	0.0011472
2594.49	0.0009398
2604.14	0.0011901
2613.78	0.0011882
2623.43	0.0012589
2633.07	0.0011182
2642.72	0.0011618
2652.36	0.0011724
2662.01	0.0010666
2671.65	0.0011445
2681.29	0.0010046
2690.94	0.0011162
2700.58	0.0010708
2710.23	0.0011586
2719.87	0.001594
2729.52	0.001534
2739.16	0.001414
2748.81	0.0013857
2758.45	0.0011264
2768.1	0.0012273
2777.74	0.0009342
2787.39	0.0010462
2797.03	0.0010148
2806.68	0.0011825
2816.32	0.001494
2825.97	0.001774
2835.61	0.001784
2845.26	0.002024
2854.9	0.001934
2864.55	0.002804
2874.19	0.003624
2883.84	0.004784
2893.48	0.005034
2903.12	0.004864
2912.77	0.004414
2922.41	0.004544
2932.06	0.004844
2941.7	0.005164
2951.35	0.004964
2960.99	0.004804
2970.64	0.004784
2980.28	0.003704
2989.93	0.002944
2999.57	0.002794
3009.22	0.003114
3018.86	0.004544
3028.51	0.007734
3038.15	0.009764
3047.8	0.007504
3057.44	0.007414
3067.09	0.011444
3076.73	0.013474
3086.38	0.008484
3096.02	0.006414
3105.67	0.004534
3115.31	0.003044
3124.95	0.001854
3134.6	0.001704
3144.24	0.0010277
3153.89	0.0012326
3163.53	0.0010774
3173.18	0.0011709
3182.82	0.0011918
3192.47	0.0005944
3202.11	0.0008416
3211.76	0.0010761
3221.4	0.0005892
3231.05	0.0006612
3240.69	0.0011636
3250.34	0.00050211
3259.98	0.00054946
3269.63	0.0004016
3279.27	0.0008115
3288.92	0.0007806
3298.56	0.00050212
3308.21	0.000824
3317.85	0.0007087
3327.49	0.0006434
3337.14	0.0007993
3346.78	0.0006628
3356.43	0.00047838
3366.07	0.0005865
3375.72	0.000628
3385.36	0.00048342
3395.01	0.000263
3404.65	0.0006857
3414.3	0.000736
3423.94	0.0006954
3433.59	0.0007123
3443.23	0.0005965
3452.88	0.0004319
3462.52	0.000805
3472.17	0.00046222
3481.81	0.000469775
3491.46	0.0008038
3501.1	0.000467878
3510.75	0.0005959
3520.39	0.000868
3530.04	0.0008831
3539.68	0.0008825
3549.32	0.0007445
3558.97	0.0007857
3568.61	0.0006572
3578.26	0.00056133
3587.9	0.0007459
3597.55	0.0008619
3607.19	0.0005907
3616.84	0.0007282
3626.48	0.000655
3636.13	0.0006308
3645.77	0.0008841
3655.42	0.000312
3665.06	0.0010111
3674.71	0.0009768
3684.35	0.0009807
3694	0.0012036
3703.64	0.0006111
3713.29	0.0007223
3722.93	0.0010145
3732.58	0.0008817
3742.22	0.00083
3751.86	0.0007943
3761.51	0.0009286
3771.15	0.0006035
3780.8	0.0007374
3790.44	0.0007631
3800.09	0.0006237
3809.73	0.0007058
3819.38	0.0008359
3829.02	0.0007243
3838.67	0.0006347
3848.31	0.0008148
3857.96	0.0007738
3867.6	0.0011448
3877.25	0.0009531
3886.89	0.0008517
3896.54	0.00048711
3906.18	0.0010727
3915.83	0.0008541
3925.47	0.0012112
3935.12	0.0006395
3944.76	0.000447
3954.41	0.0008593
3964.05	0.0008544
3973.69	0.0007447
3983.34	0.0007087
3992.98	0.0008327
