Infrared Spectrum: 2,3-BENZANTHRACENE
Formula: C18 H12
CAS: 92-24-0
State: SOLID (SPLIT MULL, FLUOROLUBE FOR 3800-1333 AND NUJOL FOR 1333-400 CM ^-^1)
Class: COBLENTZ III
Instrument: DOW KBr FOREPRISM-GRATING
Instrument parameters: BLAZED AT 3.5, 12.0, 20.0 MICRON, CHANGED AT 5.0, 7.5, 14.9 MICRON
Sampling: TRANSMISSION
Resolution: 4
Origin: DOW CHEMICAL COMPANY
1/CM	TRANSMITTANCE
382.427	1.033
390.961	1.026
399.494	1.013
408.028	1.002
416.561	0.994
425.095	0.986
433.628	0.97
442.162	0.963
450.695	0.92
459.229	0.6998
467.762	0.622
476.296	0.9038
484.829	0.97
493.363	0.989
501.896	0.992
510.43	0.991
518.963	0.991
527.497	0.992
536.031	0.991
544.564	0.991
553.098	0.971
561.631	0.988
570.165	0.988
578.698	0.991
587.232	1.01
595.765	0.992
604.299	0.969
612.832	1.001
621.366	0.986
629.899	1.001
638.433	0.998
646.966	0.998
655.5	0.998
664.033	0.997
672.567	0.997
681.1	0.989
689.634	0.982
698.168	0.976
706.701	0.933
715.235	0.815
723.768	0.737
732.302	0.5572
740.835	0.032
749.369	0.5353
757.902	0.7745
766.436	0.955
774.969	0.966
783.503	0.98
792.036	0.991
800.57	0.985
809.103	0.989
817.637	0.982
826.17	0.982
834.704	0.957
843.238	0.97
851.771	0.969
860.305	0.964
868.838	0.954
877.372	0.862
885.905	0.874
894.439	0.5509
902.972	0.1525
911.506	0.9119
920.039	0.949
928.573	0.823
937.106	0.949
945.64	0.926
954.173	0.324
962.707	0.918
971.24	0.932
979.774	0.951
988.307	0.938
996.841	0.948
1005.37	0.955
1013.91	0.955
1022.44	0.952
1030.98	0.946
1039.51	0.945
1048.04	0.948
1056.58	0.942
1065.11	0.942
1073.64	0.936
1082.18	0.936
1090.71	0.933
1099.24	0.932
1107.78	0.923
1116.31	0.825
1124.84	0.912
1133.38	0.914
1141.91	0.898
1150.44	0.882
1158.98	0.842
1167.51	0.87
1176.05	0.893
1184.58	0.887
1193.11	0.853
1201.65	0.884
1210.18	0.884
1218.71	0.877
1227.25	0.873
1235.78	0.865
1244.31	0.856
1252.85	0.851
1261.38	0.839
1269.91	0.814
1278.45	0.759
1286.98	0.582
1295.51	0.589
1304.05	0.802
1312.58	0.817
1321.12	0.812
1329.65	0.793
1338.18	0.774
1346.72	0.794
1355.25	0.834
1363.78	0.843
1372.32	0.845
1380.85	0.803
1389.38	0.8181
1397.92	0.896
1406.45	0.89
1414.98	0.898
1423.52	0.901
1432.05	0.899
1440.58	0.896
1449.12	0.886
1457.65	0.846
1466.19	0.895
1474.72	0.924
1483.25	0.921
1491.79	0.917
1500.32	0.92
1508.85	0.917
1517.39	0.918
1525.92	0.911
1534.45	0.834
1542.99	0.924
1551.52	0.917
1560.05	0.898
1568.59	0.893
1577.12	0.898
1585.65	0.889
1594.19	0.889
1602.72	0.886
1611.26	0.879
1619.79	0.853
1628.32	0.815
1636.86	0.887
1645.39	0.879
1653.92	0.874
1662.46	0.853
1670.99	0.836
1679.52	0.837
1688.06	0.834
1696.59	0.83
1705.12	0.839
1713.66	0.834
1722.19	0.821
1730.72	0.78
1739.26	0.836
1747.79	0.834
1756.32	0.842
1764.86	0.834
1773.39	0.83
1781.93	0.814
1790.46	0.789
1798.99	0.744
1807.53	0.794
1816.06	0.821
1824.59	0.823
1833.13	0.809
1841.66	0.812
1850.19	0.805
1858.73	0.8
1867.26	0.799
1875.79	0.797
1884.33	0.796
1892.86	0.792
1901.39	0.786
1909.93	0.772
1918.46	0.759
1927	0.756
1935.53	0.759
1944.06	0.764
1952.6	0.768
1961.13	0.766
1969.66	0.762
1978.2	0.756
1986.73	0.747
1995.26	0.74
2003.8	0.744
2012.33	0.746
2020.86	0.7441
2029.4	0.743
2037.93	0.7381
2046.46	0.7346
2055	0.7301
2063.53	0.7262
2072.07	0.7222
2080.6	0.7156
2089.13	0.7103
2097.67	0.706
2106.2	0.7022
2114.73	0.6984
2123.27	0.6932
2131.8	0.688
2140.33	0.685
2148.87	0.682
2157.4	0.6783
2165.93	0.674
2174.47	0.6666
2183	0.662
2191.53	0.656
2200.07	0.6508
2208.6	0.6473
2217.14	0.6434
2225.67	0.6331
2234.2	0.6289
2242.74	0.6208
2251.27	0.6159
2259.8	0.6124
2268.34	0.6039
2276.87	0.601
2285.4	0.5939
2293.94	0.588
2302.47	0.585
2311	0.582
2319.54	0.575
2328.07	0.5695
2336.6	0.567
2345.14	0.5651
2353.67	0.563
2362.21	0.563
2370.74	0.563
2379.27	0.563
2387.81	0.564
2396.34	0.561
2404.87	0.56
2413.41	0.558
2421.94	0.556
2430.47	0.5524
2439.01	0.55
2447.54	0.5477
2456.07	0.5442
2464.61	0.542
2473.14	0.542
2481.67	0.539
2490.21	0.539
2498.74	0.5376
2507.28	0.535
2515.81	0.532
2524.34	0.529
2532.88	0.526
2541.41	0.5224
2549.94	0.52
2558.48	0.5178
2567.01	0.5158
2575.54	0.5119
2584.08	0.51
2592.61	0.505
2601.14	0.504
2609.68	0.5015
2618.21	0.5
2626.74	0.498
2635.28	0.494
2643.81	0.491
2652.35	0.489
2660.88	0.4842
2669.41	0.482
2677.95	0.479
2686.48	0.477
2695.01	0.4736
2703.55	0.471
2712.08	0.469
2720.61	0.466
2729.15	0.4624
2737.68	0.46
2746.21	0.4577
2754.75	0.455
2763.28	0.452
2771.81	0.4495
2780.35	0.4475
2788.88	0.4436
2797.42	0.441
2805.95	0.4383
2814.48	0.4346
2823.02	0.43
2831.55	0.4269
2840.08	0.4217
2848.62	0.4118
2857.15	0.4074
2865.68	0.404
2874.22	0.402
2882.75	0.3989
2891.28	0.3913
2899.82	0.387
2908.35	0.3835
2916.88	0.379
2925.42	0.3685
2933.95	0.362
2942.49	0.362
2951.02	0.3669
2959.55	0.365
2968.09	0.365
2976.62	0.362
2985.15	0.361
2993.69	0.356
3002.22	0.3513
3010.75	0.3438
3019.29	0.337
3027.82	0.331
3036.35	0.3254
3044.89	0.3037
3053.42	0.3269
3061.95	0.3465
3070.49	0.3551
3079.02	0.356
3087.56	0.355
3096.09	0.3642
3104.62	0.3619
3113.16	0.3588
3121.69	0.3553
3130.22	0.352
3138.76	0.3497
3147.29	0.3477
3155.82	0.345
3164.36	0.343
3172.89	0.342
3181.42	0.339
3189.96	0.337
3198.49	0.333
3207.02	0.331
3215.56	0.33
3224.09	0.3275
3232.63	0.325
3241.16	0.322
3249.69	0.32
3258.23	0.318
3266.76	0.317
3275.29	0.317
3283.83	0.314
3292.36	0.311
3300.89	0.309
3309.43	0.309
3317.96	0.3063
3326.49	0.305
3335.03	0.302
3343.56	0.302
3352.09	0.2992
3360.63	0.297
3369.16	0.2944
3377.7	0.294
3386.23	0.2933
3394.76	0.292
3403.3	0.2876
3411.83	0.2868
3420.36	0.286
3428.9	0.284
3437.43	0.283
3445.96	0.2808
3454.5	0.278
3463.03	0.277
3471.56	0.275
3480.1	0.274
3488.63	0.272
3497.16	0.2709
3505.7	0.268
3514.23	0.265
3522.77	0.265
3531.3	0.264
3539.83	0.262
3548.37	0.261
3556.9	0.259
3565.43	0.259
3573.97	0.2571
3582.5	0.255
3591.03	0.253
3599.57	0.252
3608.1	0.2496
3616.63	0.249
3625.17	0.2466
3633.7	0.246
3642.23	0.243
3650.77	0.241
3659.3	0.238
3667.84	0.238
3676.37	0.237
3684.9	0.235
3693.44	0.2347
3701.97	0.234
3710.5	0.2325
3719.04	0.2303
3727.57	0.2278
3736.1	0.2256
3744.64	0.2237
3753.17	0.2197
3761.7	0.221
3770.24	0.221
3778.77	0.219
3787.3	0.218
