Infrared Spectrum: BIPHENYL
Formula: C12 H10
CAS: 92-52-4
State: SOLUTION (10% CCl4 FOR 4000-1340, 10% CCl4 FOR 430-200, 10% CS2 FOR 1340-430 CM^-^1)
Class: COBLENTZ III
Instrument: BECKMAN IR-12 (GRATING)
Instrument parameters: FILTERS AT 303, 473, 790, 1036, 1880, 2930 CM^-^1. GRATING CHANGE: 300.5, 650.0, 2000.4 CM^-^1
Sampling: TRANSMISSION
Path length: 0.01 CM, 0.01 CM, AND 0.01 CM
Resolution: 2
Origin: BECKMAN INSTRUMENTS, KENNETH STINE
1/CM	TRANSMITTANCE
3990	0.8715
3980	0.8717
3970	0.8718
3960	0.8718
3950	0.8717
3940	0.8712
3930	0.8707
3920	0.8711
3910	0.8718
3900	0.8743
3890	0.8747
3880	0.8744
3870	0.8737
3860	0.8725
3850	0.8718
3840	0.8717
3830	0.8725
3820	0.8736
3810	0.8747
3800	0.8758
3790	0.8763
3780	0.8767
3770	0.8763
3760	0.8753
3750	0.8737
3740	0.8759
3730	0.8764
3720	0.8754
3710	0.8744
3700	0.8739
3690	0.8763
3680	0.8762
3670	0.8743
3660	0.8756
3650	0.8733
3640	0.8775
3630	0.8813
3620	0.8828
3610	0.8844
3600	0.8847
3590	0.8847
3580	0.8846
3570	0.8843
3560	0.8838
3550	0.8833
3540	0.8827
3530	0.8821
3520	0.8817
3510	0.8809
3500	0.88
3490	0.8793
3480	0.8778
3470	0.8753
3460	0.8725
3450	0.8695
3440	0.8666
3430	0.8641
3420	0.8621
3410	0.8604
3400	0.8628
3390	0.8665
3380	0.8691
3370	0.8718
3360	0.8744
3350	0.8768
3340	0.8789
3330	0.8802
3320	0.8816
3310	0.8833
3300	0.8849
3290	0.8862
3280	0.8875
3270	0.8888
3260	0.8896
3250	0.8902
3240	0.8905
3230	0.8902
3220	0.8899
3210	0.8899
3200	0.8898
3190	0.8898
3180	0.8888
3170	0.8858
3160	0.879
3150	0.878
3140	0.879
3130	0.8721
3120	0.8533
3110	0.7715
3100	0.7701
3090	0.6341
3080	0.5543
3070	0.4954
3060	0.5012
3050	0.6049
3040	0.4353
3030	0.4775
3020	0.615
3010	0.7546
3000	0.8357
2990	0.8671
2980	0.8633
2970	0.8831
2960	0.8888
2950	0.8878
2940	0.8796
2930	0.8837
2920	0.8882
2910	0.8907
2900	0.8923
2890	0.8863
2880	0.8792
2870	0.8908
2860	0.8988
2850	0.9025
2840	0.9047
2830	0.9065
2820	0.908
2810	0.9093
2800	0.9109
2790	0.912
2780	0.9131
2770	0.9115
2760	0.9118
2750	0.9133
2740	0.9123
2730	0.9114
2720	0.9138
2710	0.9156
2700	0.9162
2690	0.9166
2680	0.9167
2670	0.9163
2660	0.9149
2650	0.9128
2640	0.911
2630	0.9086
2620	0.9065
2610	0.9112
2600	0.9101
2590	0.9116
2580	0.9131
2570	0.9146
2560	0.9156
2550	0.9166
2540	0.9173
2530	0.9184
2520	0.9197
2510	0.9173
2500	0.9164
2490	0.9182
2480	0.9201
2470	0.9218
2460	0.919
2450	0.9201
2440	0.9228
2430	0.9228
2420	0.9236
2410	0.924
2400	0.9221
2390	0.9201
2380	0.9206
2370	0.9271
2360	0.9313
2350	0.9281
2340	0.9227
2330	0.9168
2320	0.9157
2310	0.9155
2300	0.9134
2290	0.9086
2280	0.9088
2270	0.9128
2260	0.918
2250	0.9193
2240	0.9228
2230	0.9268
2220	0.9292
2210	0.9271
2200	0.9284
2190	0.9295
2180	0.9303
2170	0.9305
2160	0.9307
2150	0.931
2140	0.9312
2130	0.9314
2120	0.9313
2110	0.9311
2100	0.931
2090	0.9309
2080	0.9309
2070	0.9307
2060	0.9304
2050	0.9301
2040	0.9296
2030	0.9292
2020	0.9293
2010	0.9295
2000	0.9235
1990	0.9227
1980	0.9251
1970	0.8989
1960	0.8762
1950	0.7875
1940	0.9016
1930	0.9259
1920	0.926
1910	0.9125
1900	0.8967
1890	0.8431
1880	0.8901
1870	0.8662
1860	0.9282
1850	0.9259
1840	0.926
1830	0.9098
1820	0.896
1810	0.8628
1800	0.8851
1790	0.9275
1780	0.9267
1770	0.904
1760	0.8933
1750	0.8862
1740	0.9123
1730	0.9294
1720	0.9338
1710	0.9301
1700	0.921
1690	0.9031
1680	0.9139
1670	0.9163
1660	0.8875
1650	0.8971
1640	0.9021
1630	0.8881
1620	0.8545
1610	0.8257
1600	0.4432
1590	0.6537
1580	0.6279
1570	0.5568
1560	0.5525
1550	0.5337
1540	0.6159
1530	0.6972
1520	0.7328
1510	0.7749
1500	0.827
1490	0.5204
1480	0.3999
1470	0.7903
1460	0.7912
1450	0.869
1440	0.8768
1430	0.5703
1420	0.8954
1410	0.9039
1400	0.8867
1390	0.8468
1380	0.8694
1370	0.8997
1360	0.9021
1350	0.8994
1340	0.8875
1330	0.9025
1320	0.893
1310	0.9083
1300	0.9039
1290	0.9107
1280	0.8996
1270	0.868
1260	0.9121
1250	0.9232
1240	0.9192
1230	0.9282
1220	0.9288
1210	0.9227
1200	0.9113
1190	0.8831
1180	0.8618
1170	0.8695
1160	0.8514
1150	0.8807
1140	0.9106
1130	0.9189
1120	0.9168
1110	0.8903
1100	0.9001
1090	0.8984
1080	0.75
1070	0.7683
1060	0.899
1050	0.8004
1040	0.8584
1030	0.8906
1020	0.8818
1010	0.6121
1000	0.8777
990	0.8778
980	0.8895
970	0.8847
960	0.9011
950	0.9166
940	0.919
930	0.9031
920	0.8425
910	0.7495
900	0.7246
890	0.8671
880	0.8349
870	0.8053
860	0.7732
850	0.8096
840	0.8285
830	0.8927
820	0.8977
810	0.8925
800	0.8849
790	0.8444
780	0.5427
770	0.8561
760	0.8468
750	0.6375
740	0.0147
730	0.6449
720	0.7825
710	0.6242
700	0.0506
690	0.7287
680	0.8385
670	0.8521
660	0.8649
650	0.8661
640	0.8862
630	0.8984
620	0.9003
610	0.7444
600	0.9218
590	0.9236
580	0.9223
570	0.9208
560	0.9162
550	0.7818
540	0.8678
530	0.9078
520	0.906
510	0.8871
500	0.811
490	0.7218
480	0.788
470	0.8481
460	0.8455
450	0.8299
440	0.7903
430	0.9053
420	0.9253
410	0.9238
400	0.9177
390	0.9308
380	0.9304
370	0.9236
360	0.9277
350	0.9152
340	0.8965
330	0.8701
320	0.8431
310	0.8263
300	0.8095
290	0.7798
280	0.7137
270	0.63
260	0.5555
250	0.4186
240	0.3125
230	0.1766
220	0.0919
