Infrared Spectrum: P-PHENYLPHENOL
Formula: C12 H10 O
CAS: 92-69-3
State: SOLID (MINERAL OIL MULL)
Melting point: 164-165 C
Class: COBLENTZ
Instrument: Not specified, most likely a prism, grating, or hybrid spectrometer.
Sampling: TRANSMISSION
Resolution: 4
Origin: WYANDOTTE CHEMICALS CORP., WYANDOTTE, MICHIGAN, USA
MICROMETERS	TRANSMITTANCE
2.014	0.336
2.05489	0.336
2.09579	0.345
2.13668	0.351
2.17757	0.358
2.21847	0.36
2.25936	0.372
2.30025	0.379
2.34115	0.382
2.38204	0.384
2.42294	0.399
2.46383	0.416
2.50472	0.411
2.54562	0.423
2.58651	0.428
2.6274	0.436
2.6683	0.463
2.70919	0.47
2.75008	0.478
2.79098	0.46
2.83187	0.395
2.87276	0.301
2.91366	0.186
2.95455	0.153
2.99545	0.167
3.03634	0.243
3.07723	0.323
3.11813	0.338
3.15902	0.357
3.19991	0.37
3.24081	0.331
3.2817	0.299
3.32259	0.216
3.36349	0.06
3.40438	0.067
3.44527	0.143
3.48617	0.125
3.52706	0.402
3.56796	0.502
3.60885	0.521
3.64974	0.521
3.69064	0.522
3.73153	0.534
3.77242	0.543
3.81332	0.543
3.85421	0.548
3.8951	0.565
3.936	0.573
3.97689	0.585
4.01778	0.595
4.05868	0.588
4.09957	0.592
4.14047	0.595
4.18136	0.598
4.22225	0.619
4.26315	0.6
4.30404	0.622
4.34493	0.639
4.38583	0.651
4.42672	0.658
4.46761	0.67
4.50851	0.678
4.5494	0.685
4.59029	0.69
4.63119	0.7
4.67208	0.703
4.71298	0.712
4.75387	0.722
4.79476	0.729
4.83566	0.727
4.87655	0.725
4.91744	0.736
4.95834	0.741
4.99923	0.741
5.04012	0.756
5.08102	0.761
5.12191	0.759
5.1628	0.746
5.2037	0.754
5.24459	0.771
5.28549	0.751
5.32638	0.727
5.36727	0.763
5.40817	0.807
5.44906	0.813
5.48995	0.818
5.53085	0.812
5.57174	0.813
5.61263	0.822
5.65353	0.818
5.69442	0.82
5.73531	0.82
5.77621	0.849
5.8171	0.84
5.858	0.842
5.89889	0.84
5.93978	0.82
5.98068	0.817
6.02157	0.803
6.06246	0.859
6.10336	0.869
6.14425	0.489
6.18514	0.424
6.22604	0.477
6.26693	0.575
6.30782	0.661
6.34872	0.764
6.38961	0.84
6.43051	0.839
6.4714	0.849
6.51229	0.456
6.55319	0.576
6.59408	0.752
6.63497	0.707
6.67587	0.189
6.71676	0.346
6.75765	0.358
6.79855	0.17
6.83944	0.343
6.88033	0.456
6.92123	0.546
6.96212	0.451
7.00302	0.411
7.04391	0.607
7.0848	0.715
7.1257	0.734
7.16659	0.656
7.20748	0.423
7.24838	0.263
7.28927	0.439
7.33016	0.526
7.37106	0.57
7.41195	0.615
7.45284	0.568
7.49374	0.676
7.53463	0.752
7.57553	0.8
7.61642	0.759
7.65731	0.686
7.69821	0.658
7.7391	0.7
7.77999	0.71
7.82089	0.497
7.86178	0.561
7.90267	0.225
7.94357	0.197
7.98446	0.301
8.02535	0.194
8.06625	0.255
8.10714	0.36
8.14804	0.455
8.18893	0.526
8.22982	0.568
8.27072	0.541
8.31161	0.341
8.3525	0.492
8.3934	0.571
8.43429	0.602
8.47518	0.561
8.51608	0.582
8.55697	0.6
8.59786	0.664
8.63876	0.666
8.67965	0.671
8.72055	0.734
8.76144	0.737
8.80233	0.685
8.84323	0.612
8.88412	0.631
8.92501	0.499
8.96591	0.495
9.0068	0.631
9.04769	0.666
9.08859	0.681
9.12948	0.673
9.17037	0.673
9.21127	0.668
9.25216	0.631
9.29305	0.651
9.33395	0.686
9.37484	0.712
9.41574	0.73
9.45663	0.742
9.49752	0.758
9.53842	0.754
9.57931	0.659
9.6202	0.71
9.6611	0.736
9.70199	0.746
9.74288	0.758
9.78378	0.764
9.82467	0.754
9.86556	0.786
9.90646	0.769
9.94735	0.612
9.98825	0.759
10.0291	0.795
10.07	0.807
10.1109	0.815
10.1518	0.822
10.1927	0.827
10.2336	0.824
10.2745	0.824
10.3154	0.824
10.3563	0.825
10.3972	0.829
10.4381	0.82
10.479	0.832
10.5199	0.834
10.5608	0.844
10.6016	0.844
10.6425	0.849
10.6834	0.849
10.7243	0.846
10.7652	0.851
10.8061	0.862
10.847	0.868
10.8879	0.864
10.9288	0.864
10.9697	0.869
11.0106	0.796
11.0515	0.785
11.0924	0.844
11.1333	0.883
11.1742	0.89
11.2151	0.898
11.2559	0.898
11.2968	0.9
11.3377	0.906
11.3786	0.903
11.4195	0.903
11.4604	0.906
11.5013	0.903
11.5422	0.91
11.5831	0.905
11.624	0.912
11.6649	0.896
11.7058	0.896
11.7467	0.879
11.7876	0.849
11.8285	0.8
11.8693	0.722
11.9102	0.56
11.9511	0.357
11.992	0.15
12.0329	0.104
12.0738	0.296
12.1147	0.473
12.1556	0.595
12.1965	0.651
12.2374	0.693
12.2783	0.749
12.3192	0.78
12.3601	0.825
12.401	0.857
12.4419	0.884
12.4828	0.898
12.5236	0.903
12.5645	0.91
12.6054	0.912
12.6463	0.913
12.6872	0.912
12.7281	0.908
12.769	0.895
12.8099	0.888
12.8508	0.884
12.8917	0.847
12.9326	0.818
12.9735	0.769
13.0144	0.648
13.0553	0.495
13.0962	0.274
13.1371	0.116
13.1779	0.076
13.2188	0.152
13.2597	0.373
13.3006	0.619
13.3415	0.749
13.3824	0.815
13.4233	0.847
13.4642	0.884
13.5051	0.893
13.546	0.908
13.5869	0.91
13.6278	0.918
13.6687	0.917
13.7096	0.922
13.7505	0.922
13.7913	0.925
13.8322	0.913
13.8731	0.917
13.914	0.908
13.9549	0.906
13.9958	0.849
14.0367	0.675
14.0776	0.554
14.1185	0.592
14.1594	0.686
14.2003	0.763
14.2412	0.807
14.2821	0.817
14.323	0.805
14.3639	0.79
14.4048	0.739
14.4456	0.658
14.4865	0.509
14.5274	0.433
14.5683	0.367
14.6092	0.34
14.6501	0.341
14.691	0.382
14.7319	0.473
14.7728	0.568
14.8137	0.637
14.8546	0.69
14.8955	0.729
14.9364	0.759
14.9773	0.763
15.0182	0.739
15.059	0.732
15.0999	0.793
15.1408	0.82
15.1817	0.827
15.2226	0.815
15.2635	0.8
15.3044	0.781
15.3453	0.776
15.3862	0.754
15.4271	0.747
15.468	0.732
15.5089	0.715
15.5498	0.702
15.5907	0.686
15.6316	0.668
15.6725	0.653
15.7133	0.644
15.7542	0.636
15.7951	0.609
15.836	0.604
15.8769	0.59
15.9178	0.576
15.9587	0.561
15.9996	0.549
