Infrared Spectrum: BIPHENYL, 4-BROMO-
Formula: C12 H9 Br
CAS: 92-66-0
State: SOLUTION (5% IN CCl4 FOR 3800-1300, 2% IN CS2 FOR 1300-650, AND 5% IN CCl4 FOR 650-250 CM^-^1) VS. SOLVENT
Class: COBLENTZ III
Instrument: PERKIN-ELMER 521 (GRATING)
Instrument parameters: FILTERS AT 3150, 2500, 2000, 1150, 700, 410 AND GRATING CHANGES AT 2000, 630 CM^-^1
Sampling: TRANSMISSION
Path length: 0.011, 0.011, AND 0.020CM (CsBr CELL)
Resolution: 4
Origin: DOW CORNING CORP.
1/CM	TRANSMITTANCE
236.322	0.926
245.517	0.924
254.713	0.925
263.908	0.922
273.104	0.924
282.299	0.921
291.495	0.921
300.69	0.923
309.885	0.924
319.081	0.923
328.276	0.924
337.472	0.91
346.667	0.902
355.863	0.878
365.058	0.869
374.253	0.864
383.449	0.845
392.644	0.803
401.84	0.794
411.035	0.788
420.23	0.802
429.426	0.837
438.621	0.846
447.817	0.821
457.012	0.834
466.208	0.831
475.403	0.797
484.598	0.701
493.794	0.55
502.989	0.568
512.185	0.651
521.38	0.701
530.576	0.719
539.771	0.6469
548.966	0.719
558.162	0.735
567.357	0.803
576.553	0.805
585.748	0.839
594.944	0.846
604.139	0.846
613.334	0.838
622.53	0.858
631.725	0.79
640.921	0.787
650.116	0.821
659.312	0.837
668.507	0.816
677.702	0.832
686.898	0.797
696.093	0.6161
705.289	0.815
714.484	0.867
723.68	0.871
732.875	0.852
742.07	0.823
751.266	0.5679
760.461	0.799
769.657	0.851
778.852	0.852
788.047	0.869
797.243	0.876
806.438	0.843
815.634	0.851
824.829	0.512
834.025	0.877
843.22	0.886
852.415	0.891
861.611	0.889
870.806	0.885
880.002	0.883
889.197	0.877
898.393	0.869
907.588	0.869
916.783	0.877
925.979	0.874
935.174	0.874
944.37	0.87
953.565	0.859
962.761	0.871
971.956	0.871
981.151	0.87
990.347	0.853
999.542	0.798
1008.74	0.814
1017.93	0.843
1027.13	0.842
1036.32	0.837
1045.52	0.838
1054.71	0.819
1063.91	0.776
1073.11	0.625
1082.3	0.773
1091.5	0.806
1100.69	0.803
1109.89	0.823
1119.08	0.827
1128.28	0.85
1137.47	0.874
1146.67	0.877
1155.86	0.876
1165.06	0.877
1174.26	0.883
1183.45	0.885
1192.65	0.898
1201.84	0.9
1211.04	0.899
1220.23	0.899
1229.43	0.901
1238.62	0.897
1247.82	0.891
1257.01	0.891
1266.21	0.89
1275.4	0.89
1284.6	0.889
1293.8	0.89
1302.99	0.889
1312.19	0.887
1321.38	0.887
1330.58	0.891
1339.77	0.886
1348.97	0.885
1358.16	0.871
1367.36	0.86
1376.55	0.813
1385.75	0.778
1394.95	0.814
1404.14	0.859
1413.34	0.861
1422.53	0.851
1431.73	0.835
1440.92	0.813
1450.12	0.816
1459.31	0.767
1468.51	0.6229
1477.7	0.439
1486.9	0.7011
1496.1	0.831
1505.29	0.84
1514.49	0.883
1523.68	0.889
1532.88	0.89
1542.07	0.89
1551.27	0.889
1560.46	0.883
1569.66	0.876
1578.85	0.839
1588.05	0.82
1597.24	0.7909
1606.44	0.864
1615.64	0.884
1624.83	0.881
1634.03	0.875
1643.22	0.87
1652.42	0.87
1661.61	0.878
1670.81	0.882
1680	0.89
1689.2	0.885
1698.39	0.89
1707.59	0.887
1716.79	0.884
1725.98	0.883
1735.18	0.882
1744.37	0.879
1753.57	0.881
1762.76	0.879
1771.96	0.879
1781.15	0.878
1790.35	0.882
1799.54	0.875
1808.74	0.879
1817.94	0.881
1827.13	0.889
1836.33	0.892
1845.52	0.892
1854.72	0.887
1863.91	0.882
1873.11	0.872
1882.3	0.872
1891.5	0.854
1900.69	0.844
1909.89	0.879
1919.08	0.879
1928.28	0.882
1937.48	0.877
1946.67	0.87
1955.87	0.879
1965.06	0.876
1974.26	0.891
1983.45	0.893
1992.65	0.897
2001.84	0.909
2011.04	0.914
2020.23	0.914
2029.43	0.913
2038.63	0.914
2047.82	0.914
2057.02	0.914
2066.21	0.914
2075.41	0.913
2084.6	0.9131
2093.8	0.914
2102.99	0.911
2112.19	0.911
2121.38	0.9131
2130.58	0.913
2139.77	0.913
2148.97	0.911
2158.17	0.913
2167.36	0.913
2176.56	0.9114
2185.75	0.911
2194.95	0.911
2204.14	0.9126
2213.34	0.913
2222.53	0.9108
2231.73	0.911
2240.92	0.911
2250.12	0.909
2259.32	0.909
2268.51	0.91
2277.71	0.909
2286.9	0.9083
2296.1	0.91
2305.29	0.911
2314.49	0.911
2323.68	0.913
2332.88	0.911
2342.07	0.913
2351.27	0.9123
2360.47	0.91
2369.66	0.91
2378.86	0.908
2388.05	0.909
2397.25	0.911
2406.44	0.911
2415.64	0.909
2424.83	0.909
2434.03	0.9076
2443.22	0.906
2452.42	0.9039
2461.61	0.8996
2470.81	0.903
2480.01	0.9055
2489.2	0.901
2498.4	0.901
2507.59	0.902
2516.79	0.9015
2525.98	0.902
2535.18	0.901
2544.37	0.9
2553.57	0.899
2562.76	0.899
2571.96	0.899
2581.16	0.898
2590.35	0.898
2599.55	0.899
2608.74	0.8984
2617.94	0.899
2627.13	0.899
2636.33	0.898
2645.52	0.898
2654.72	0.898
2663.91	0.897
2673.11	0.899
2682.3	0.899
2691.5	0.8987
2700.7	0.8956
2709.89	0.897
2719.09	0.897
2728.28	0.897
2737.48	0.897
2746.67	0.895
2755.87	0.8937
2765.06	0.893
2774.26	0.892
2783.45	0.8938
2792.65	0.8908
2801.85	0.889
2811.04	0.887
2820.24	0.8858
2829.43	0.8838
2838.63	0.8768
2847.82	0.87
2857.02	0.866
2866.21	0.8585
2875.41	0.8519
2884.6	0.8457
2893.8	0.845
2903	0.8467
2912.19	0.8396
2921.39	0.829
2930.58	0.834
2939.78	0.8403
2948.97	0.8418
2958.17	0.8336
2967.36	0.8158
2976.56	0.8061
2985.75	0.8322
2994.95	0.8481
3004.14	0.85
3013.34	0.8349
3022.54	0.7979
3031.73	0.713
3040.93	0.7947
3050.12	0.7791
3059.32	0.7501
3068.51	0.7486
3077.71	0.7879
3086.9	0.8038
3096.1	0.8445
3105.29	0.8619
3114.49	0.8689
3123.69	0.8768
3132.88	0.882
3142.08	0.881
3151.27	0.8819
3160.47	0.8849
3169.66	0.889
3178.86	0.889
3188.05	0.889
3197.25	0.8898
3206.44	0.887
3215.64	0.889
3224.84	0.8908
3234.03	0.89
3243.23	0.891
3252.42	0.89
3261.62	0.8902
3270.81	0.89
3280.01	0.889
3289.2	0.889
3298.4	0.889
3307.59	0.89
3316.79	0.8903
3325.98	0.8876
3335.18	0.89
3344.38	0.8867
3353.57	0.887
3362.77	0.8847
3371.96	0.889
3381.16	0.8907
3390.35	0.889
3399.55	0.8854
3408.74	0.887
3417.94	0.89
3427.13	0.89
3436.33	0.8864
3445.53	0.8904
3454.72	0.889
3463.92	0.887
3473.11	0.8896
3482.31	0.891
3491.5	0.8915
3500.7	0.8915
3509.89	0.89
3519.09	0.892
3528.28	0.893
3537.48	0.8915
3546.67	0.8935
3555.87	0.893
3565.07	0.8945
3574.26	0.892
3583.46	0.8924
3592.65	0.895
3601.85	0.8914
3611.04	0.8963
3620.24	0.892
3629.43	0.897
3638.63	0.892
3647.82	0.8922
3657.02	0.8928
3666.22	0.8904
3675.41	0.8946
3684.61	0.89
3693.8	0.8906
3703	0.8917
3712.19	0.894
3721.39	0.893
3730.58	0.8956
3739.78	0.9003
3748.97	0.8997
3758.17	0.8964
3767.37	0.893
3776.56	0.893
3785.76	0.8943
3794.95	0.8937
