Infrared Spectrum: 4-BIPHENYLAMINE
Formula: C12 H11 N
CAS: 92-67-1
State: SOLUTION (10% CCl4 FOR 3800-1335, 10% CS2 FOR 1335-450 CM^-^1)
Class: COBLENTZ III
Instrument: DOW KBr FOREPRISM-GRATING
Instrument parameters: BLAZED AT 3.5, 12.0, 20.0 MICRON AND CHANGED AT 5.0, 7.5, 14.9 MICRON
Sampling: TRANSMISSION
Path length: 0.011 CM, 0.011 CM
Resolution: 2
Origin: DOW CHEMICAL COMPANY
1/CM	TRANSMITTANCE
446	0.4822
455	0.4689
464	0.4517
473	0.4296
482	0.3862
491	0.3176
500	0.2025
509	0.3374
518	0.4683
527	0.4708
536	0.4127
545	0.2933
554	0.3937
563	0.4616
572	0.6551
581	0.6151
590	0.5968
599	0.5859
608	0.5786
617	0.5699
626	0.5623
635	0.5386
644	0.5268
653	0.5467
662	0.5517
671	0.53
680	0.5231
689	0.3804
698	0.0116
707	0.4116
716	0.3388
725	0.5678
734	0.6104
743	0.5992
752	0.3468
761	0.0075
770	0.54
779	0.6597
788	0.6847
797	0.6865
806	0.6491
815	0.5668
824	0.03
833	0.3384
842	0.4757
851	0.5371
860	0.5862
869	0.6348
878	0.6921
887	0.7404
896	0.7553
905	0.6094
914	0.7678
923	0.7765
932	0.7653
941	0.7901
950	0.786
959	0.7967
968	0.8101
977	0.8125
986	0.8181
995	0.7291
1004	0.7203
1013	0.8131
1022	0.8244
1031	0.815
1040	0.6235
1049	0.8271
1058	0.7945
1067	0.7204
1076	0.6525
1085	0.82
1094	0.8253
1103	0.8117
1112	0.78
1121	0.6751
1130	0.6493
1139	0.7604
1148	0.7685
1157	0.751
1166	0.7499
1175	0.2937
1184	0.3543
1193	0.6678
1202	0.7571
1211	0.811
1220	0.8208
1229	0.8169
1238	0.7731
1247	0.7548
1256	0.6615
1265	0.3874
1274	0.1904
1283	0.0437
1292	0.2703
1301	0.6239
1310	0.7418
1319	0.7656
1328	0.7847
1337	0.8046
1346	0.813
1355	0.8006
1364	0.8036
1373	0.8121
1382	0.8081
1391	0.8182
1400	0.8165
1409	0.7891
1418	0.7243
1427	0.7074
1436	0.7725
1445	0.7414
1454	0.6195
1463	0.7455
1472	0.5662
1481	0.0683
1490	0.0162
1499	0.5673
1508	0.5826
1517	0.348
1526	0.0941
1535	0.4481
1544	0.4047
1553	0.4126
1562	0.4603
1571	0.47
1580	0.4087
1589	0.3944
1598	0.264
1607	0.1774
1616	0.0233
1625	0.019
1634	0.2923
1643	0.5335
1652	0.6925
1661	0.7167
1670	0.7633
1679	0.7951
1688	0.8202
1697	0.8248
1706	0.8282
1715	0.8325
1724	0.8258
1733	0.8235
1742	0.8062
1751	0.8115
1760	0.8207
1769	0.8325
1778	0.8368
1787	0.8371
1796	0.8221
1805	0.8111
1814	0.8165
1823	0.8278
1832	0.8307
1841	0.8303
1850	0.8292
1859	0.8175
1868	0.7925
1877	0.7548
1886	0.7215
1895	0.8131
1904	0.8345
1913	0.8409
1922	0.8411
1931	0.8223
1940	0.7861
1949	0.8175
1958	0.8212
1967	0.8467
1976	0.8545
1985	0.8518
1994	0.8444
2003	0.8444
2012	0.8463
2021	0.8488
2030	0.8516
2039	0.854
2048	0.8558
2057	0.8571
2066	0.8573
2075	0.8563
2084	0.8552
2093	0.8537
2102	0.8502
2111	0.8494
2120	0.8528
2129	0.8549
2138	0.8566
2147	0.8578
2156	0.8586
2165	0.8581
2174	0.8571
2183	0.8573
2192	0.8603
2201	0.8607
2210	0.8601
2219	0.8593
2228	0.8585
2237	0.8571
2246	0.8561
2255	0.8543
2264	0.8523
2273	0.8498
2282	0.8474
2291	0.845
2300	0.8428
2309	0.8409
2318	0.846
2327	0.8524
2336	0.8536
2345	0.8534
2354	0.8641
2363	0.8649
2372	0.8653
2381	0.8652
2390	0.8651
2399	0.8655
2408	0.8657
2417	0.8646
2426	0.863
2435	0.8613
2444	0.8604
2453	0.862
2462	0.866
2471	0.8675
2480	0.8675
2489	0.8675
2498	0.8677
2507	0.8663
2516	0.8642
2525	0.8603
2534	0.8598
2543	0.8587
2552	0.857
2561	0.8549
2570	0.8521
2579	0.8485
2588	0.846
2597	0.8474
2606	0.8515
2615	0.8534
2624	0.8547
2633	0.8549
2642	0.8554
2651	0.8557
2660	0.8562
2669	0.8582
2678	0.8616
2687	0.8664
2696	0.869
2705	0.8688
2714	0.8686
2723	0.8683
2732	0.868
2741	0.868
2750	0.868
2759	0.8675
2768	0.8668
2777	0.8661
2786	0.8653
2795	0.8644
2804	0.8647
2813	0.867
2822	0.8681
2831	0.8683
2840	0.8683
2849	0.867
2858	0.8597
2867	0.8521
2876	0.8452
2885	0.8386
2894	0.8396
2903	0.8502
2912	0.8589
2921	0.8608
2930	0.853
2939	0.8496
2948	0.854
2957	0.8468
2966	0.825
2975	0.7988
2984	0.7639
2993	0.7015
3002	0.6828
3011	0.6425
3020	0.4942
3029	0.3564
3038	0.2744
3047	0.4926
3056	0.5552
3065	0.486
3074	0.5907
3083	0.5666
3092	0.6958
3101	0.7064
3110	0.8106
3119	0.826
3128	0.819
3137	0.8235
3146	0.8331
3155	0.8375
3164	0.8501
3173	0.8471
3182	0.8412
3191	0.8282
3200	0.8025
3209	0.7943
3218	0.8046
3227	0.8157
3236	0.8433
3245	0.8544
3254	0.8598
3263	0.8616
3272	0.8611
3281	0.8602
3290	0.8551
3299	0.8493
3308	0.8416
3317	0.8282
3326	0.8125
3335	0.796
3344	0.7728
3353	0.7365
3362	0.6812
3371	0.5842
3380	0.4678
3389	0.3986
3398	0.3908
3407	0.6259
3416	0.7565
3425	0.7661
3434	0.7541
3443	0.7174
3452	0.6699
3461	0.6224
3470	0.5724
3479	0.5625
3488	0.5922
3497	0.6741
3506	0.8075
3515	0.8368
3524	0.8484
3533	0.8544
3542	0.8595
3551	0.8631
3560	0.8643
3569	0.8639
3578	0.8638
3587	0.8638
3596	0.8639
3605	0.8649
3614	0.865
3623	0.865
3632	0.8625
3641	0.8646
3650	0.8617
3659	0.8623
3668	0.8621
3677	0.8575
3686	0.8567
3695	0.8595
3704	0.8591
3713	0.861
3722	0.8625
3731	0.8628
3740	0.8594
3749	0.8553
3758	0.8542
3767	0.8556
3776	0.8585
3785	0.8597
3794	0.8547
