Infrared Spectrum: 3-DECANONE
Formula: C10 H20 O
CAS: 928-80-3
State: LIQUID (NEAT) VS. KBr PLATE
Class: COBLENTZ II
Instrument: PERKIN-ELMER 521 (GRATING)
Instrument parameters: FILTERS AT 3150, 2500, 2000, 1150, 700, 410. GRATING CHANGES: 2000, 630 CM^-^1
Sampling: TRANSMISSION
Path length: CAPILLARY
Resolution: 2
Origin: STANDARD OIL OF OHIO
1/CM	TRANSMITTANCE
330.972	0.587
340.216	0.633
349.459	0.717
358.703	0.788
367.947	0.826
377.191	0.856
386.434	0.866
395.678	0.87
404.922	0.877
414.165	0.902
423.409	0.908
432.653	0.943
441.896	0.957
451.14	0.968
460.384	0.975
469.628	0.975
478.871	0.975
488.115	0.968
497.359	0.96
506.602	0.947
515.846	0.939
525.09	0.937
534.333	0.951
543.577	0.979
552.821	0.994
562.065	1
571.308	1
580.552	1
589.796	0.998
599.039	0.988
608.283	0.971
617.527	0.936
626.77	0.933
636.014	0.92
645.258	0.94
654.502	0.997
663.745	1.006
672.989	1.002
682.233	0.991
691.476	0.971
700.72	0.893
709.964	0.76
719.207	0.52
728.451	0.608
737.695	0.808
746.939	0.816
756.182	0.813
765.426	0.805
774.67	0.768
783.913	0.776
793.157	0.855
802.401	0.849
811.645	0.809
820.888	0.802
830.132	0.806
839.376	0.833
848.619	0.863
857.863	0.896
867.107	0.902
876.35	0.902
885.594	0.857
894.838	0.823
904.082	0.842
913.325	0.82
922.569	0.786
931.813	0.732
941.056	0.63
950.3	0.597
959.544	0.6
968.787	0.576
978.031	0.557
987.275	0.584
996.519	0.656
1005.76	0.624
1015.01	0.604
1024.25	0.616
1033.49	0.557
1042.74	0.543
1051.98	0.627
1061.22	0.63
1070.47	0.68
1079.71	0.717
1088.96	0.652
1098.2	0.266
1107.44	0.153
1116.69	0.347
1125.93	0.248
1135.17	0.257
1144.42	0.467
1153.66	0.468
1162.91	0.46
1172.15	0.529
1181.39	0.537
1190.64	0.546
1199.88	0.553
1209.12	0.631
1218.37	0.682
1227.61	0.721
1236.85	0.697
1246.1	0.667
1255.34	0.587
1264.59	0.561
1273.83	0.627
1283.07	0.612
1292.32	0.566
1301.56	0.571
1310.8	0.551
1320.05	0.522
1329.29	0.444
1338.54	0.313
1347.78	0.202
1357.02	0.136
1366.27	0.113
1375.51	0.071
1384.75	0.303
1394	0.386
1403.24	0.198
1412.49	0.113
1421.73	0.194
1430.97	0.292
1440.22	0.222
1449.46	0.099
1458.7	0.041
1467.95	0.068
1477.19	0.473
1486.43	0.684
1495.68	0.762
1504.92	0.83
1514.17	0.867
1523.41	0.891
1532.65	0.907
1541.9	0.921
1551.14	0.928
1560.38	0.933
1569.63	0.935
1578.87	0.933
1588.12	0.929
1597.36	0.926
1606.6	0.915
1615.85	0.904
1625.09	0.891
1634.33	0.871
1643.58	0.849
1652.82	0.802
1662.07	0.751
1671.31	0.622
1680.55	0.537
1689.8	0.408
1699.04	0.209
1708.28	0.011
1717.53	0.011
1726.77	0.033
1736.01	0.27
1745.26	0.507
1754.5	0.653
1763.75	0.754
1772.99	0.846
1782.23	0.889
1791.48	0.922
1800.72	0.946
1809.96	0.96
1819.21	0.969
1828.45	0.975
1837.7	0.977
1846.94	0.983
1856.18	0.986
1865.43	0.988
1874.67	0.99
1883.91	0.99
1893.16	0.99
1902.4	0.99
1911.65	0.99
1920.89	0.99
1930.13	0.99
1939.38	0.99
1948.62	0.99
1957.86	0.99
1967.11	0.99
1976.35	0.99
1985.59	0.991
1994.84	0.99
2004.08	0.987
2013.33	0.983
2022.57	0.982
2031.81	0.982
2041.06	0.984
2050.3	0.984
2059.54	0.984
2068.79	0.984
2078.03	0.983
2087.28	0.98
2096.52	0.98
2105.76	0.979
2115.01	0.977
2124.25	0.977
2133.49	0.977
2142.74	0.976
2151.98	0.976
2161.23	0.973
2170.47	0.973
2179.71	0.975
2188.96	0.977
2198.2	0.977
2207.44	0.977
2216.69	0.977
2225.93	0.977
2235.17	0.976
2244.42	0.976
2253.66	0.976
2262.91	0.976
2272.15	0.975
2281.39	0.975
2290.64	0.975
2299.88	0.972
2309.12	0.969
2318.37	0.968
2327.61	0.968
2336.86	0.968
2346.1	0.968
2355.34	0.969
2364.59	0.971
2373.83	0.972
2383.07	0.973
2392.32	0.975
2401.56	0.976
2410.81	0.977
2420.05	0.977
2429.29	0.977
2438.54	0.977
2447.78	0.977
2457.02	0.977
2466.27	0.976
2475.51	0.976
2484.75	0.976
2494	0.977
2503.24	0.977
2512.49	0.976
2521.73	0.973
2530.97	0.969
2540.22	0.968
2549.46	0.968
2558.7	0.961
2567.95	0.954
2577.19	0.946
2586.44	0.943
2595.68	0.94
2604.92	0.936
2614.17	0.931
2623.41	0.922
2632.65	0.915
2641.9	0.907
2651.14	0.892
2660.38	0.877
2669.63	0.868
2678.87	0.87
2688.12	0.871
2697.36	0.873
2706.6	0.868
2715.85	0.845
2725.09	0.801
2734.33	0.791
2743.58	0.815
2752.82	0.817
2762.07	0.804
2771.31	0.777
2780.55	0.729
2789.8	0.674
2799.04	0.606
2808.28	0.524
2817.53	0.47
2826.77	0.379
2836.02	0.235
2845.26	0.063
2854.5	0.012
2863.75	0.012
2872.99	0.013
2882.23	0.013
2891.48	0.013
2900.72	0.013
2909.96	0.013
2919.21	0.012
2928.45	0.012
2937.7	0.012
2946.94	0.012
2956.18	0.013
2965.43	0.015
2974.67	0.024
2983.91	0.045
2993.16	0.188
3002.4	0.413
3011.65	0.526
3020.89	0.62
3030.13	0.689
3039.38	0.74
3048.62	0.787
3057.86	0.815
3067.11	0.855
3076.35	0.873
3085.6	0.891
3094.84	0.906
3104.08	0.918
3113.33	0.926
3122.57	0.932
3131.81	0.937
3141.06	0.937
3150.3	0.935
3159.54	0.933
3168.79	0.937
3178.03	0.94
3187.28	0.944
3196.52	0.951
3205.76	0.962
3215.01	0.972
3224.25	0.976
3233.49	0.983
3242.74	0.987
3251.98	0.99
3261.23	0.991
3270.47	0.993
3279.71	0.993
3288.96	0.991
3298.2	0.993
3307.44	0.991
3316.69	0.99
3325.93	0.987
3335.18	0.984
3344.42	0.982
3353.66	0.979
3362.91	0.975
3372.15	0.969
3381.39	0.958
3390.64	0.937
3399.88	0.892
3409.12	0.856
3418.37	0.852
3427.61	0.906
3436.86	0.958
3446.1	0.982
3455.34	0.991
3464.59	0.994
3473.83	0.995
3483.07	0.995
3492.32	0.995
3501.56	0.993
3510.81	0.99
3520.05	0.99
3529.29	0.99
3538.54	0.99
3547.78	0.99
3557.02	0.991
3566.27	0.994
3575.51	0.997
3584.76	0.997
3594	0.993
3603.24	0.987
3612.49	0.982
3621.73	0.98
3630.97	0.983
3640.22	0.986
3649.46	0.988
3658.7	0.993
3667.95	0.993
3677.19	0.993
3686.44	0.993
3695.68	1.001
3704.92	1.004
3714.17	1.004
3723.41	1.004
3732.65	1.001
3741.9	1.002
3751.14	1.002
3760.39	1.004
3769.63	1.004
3778.87	1.002
3788.12	1.001
3797.36	1.001
3806.6	0.998
3815.85	0.998
3825.09	0.998
3834.34	1
3843.58	0.998
3852.82	0.997
3862.07	0.993
3871.31	0.993
3880.55	0.991
3889.8	0.99
