Infrared Spectrum: BENZIDINE
Formula: C12 H12 N2
CAS: 92-87-5
State: SOLID (KBr DISC)
Class: COBLENTZ III
Instrument: PERKIN-ELMER 521 (GRATING)
Instrument parameters: FILTERS AT 3150, 2500, 2000, 1150, 700, 410. GRATING CHANGES: 2000, 630
Sampling: TRANSMISSION
Resolution: 2
Origin: DOW CORNING CORP.
1/CM	TRANSMITTANCE
3805.17	0.7917
3796.21	0.7971
3787.24	0.8038
3778.28	0.8064
3769.32	0.8071
3760.36	0.8065
3751.39	0.805
3742.43	0.7949
3733.47	0.7925
3724.51	0.7938
3715.54	0.7971
3706.58	0.8
3697.62	0.8022
3688.66	0.8025
3679.69	0.8001
3670.73	0.7974
3661.77	0.7951
3652.8	0.8003
3643.84	0.7979
3634.88	0.7903
3625.92	0.7862
3616.95	0.7776
3607.99	0.7642
3599.03	0.7504
3590.07	0.7379
3581.1	0.7257
3572.14	0.7147
3563.18	0.7033
3554.22	0.6912
3545.25	0.6793
3536.29	0.669
3527.33	0.6595
3518.36	0.6501
3509.4	0.6429
3500.44	0.6367
3491.48	0.6269
3482.51	0.6156
3473.55	0.6059
3464.59	0.5949
3455.63	0.5825
3446.66	0.5636
3437.7	0.5381
3428.74	0.5271
3419.77	0.52
3410.81	0.492
3401.85	0.4063
3392.89	0.3802
3383.92	0.3842
3374.96	0.4269
3366	0.4674
3357.04	0.463
3348.07	0.4622
3339.11	0.4397
3330.15	0.3297
3321.19	0.3384
3312.22	0.3839
3303.26	0.4075
3294.3	0.4589
3285.33	0.5044
3276.37	0.5315
3267.41	0.5508
3258.45	0.5619
3249.48	0.5633
3240.52	0.5602
3231.56	0.5345
3222.6	0.5083
3213.63	0.4787
3204.67	0.4349
3195.71	0.4441
3186.75	0.4753
3177.78	0.5089
3168.82	0.5417
3159.86	0.5673
3150.89	0.6032
3141.93	0.6374
3132.97	0.6699
3124.01	0.6928
3115.04	0.711
3106.08	0.7223
3097.12	0.7313
3088.16	0.7389
3079.19	0.7452
3070.23	0.7536
3061.27	0.749
3052.31	0.7482
3043.34	0.7163
3034.38	0.6381
3025.42	0.6493
3016.45	0.7199
3007.49	0.7303
2998.53	0.7489
2989.57	0.7602
2980.6	0.7642
2971.64	0.7742
2962.68	0.7796
2953.72	0.7807
2944.75	0.7801
2935.79	0.7784
2926.83	0.7699
2917.87	0.7622
2908.9	0.7711
2899.94	0.7826
2890.98	0.7931
2882.01	0.8018
2873.05	0.808
2864.09	0.8088
2855.13	0.8029
2846.16	0.805
2837.2	0.8129
2828.24	0.829
2819.28	0.8348
2810.31	0.8363
2801.35	0.8381
2792.39	0.8385
2783.42	0.8388
2774.46	0.8392
2765.5	0.8395
2756.54	0.8398
2747.57	0.8402
2738.61	0.8407
2729.65	0.8416
2720.69	0.8424
2711.72	0.8432
2702.76	0.8439
2693.8	0.8447
2684.84	0.8455
2675.87	0.8462
2666.91	0.8476
2657.95	0.852
2648.98	0.8573
2640.02	0.8584
2631.06	0.8583
2622.1	0.8591
2613.13	0.861
2604.17	0.8633
2595.21	0.8655
2586.25	0.8663
2577.28	0.8669
2568.32	0.867
2559.36	0.8646
2550.4	0.8631
2541.43	0.8632
2532.47	0.8646
2523.51	0.8662
2514.54	0.8677
2505.58	0.8693
2496.62	0.8708
2487.66	0.8722
2478.69	0.8743
2469.73	0.8764
2460.77	0.8759
2451.81	0.8761
2442.84	0.8766
2433.88	0.8775
2424.92	0.8784
2415.96	0.8793
2406.99	0.8805
2398.03	0.8818
2389.07	0.8828
2380.1	0.8837
2371.14	0.8845
2362.18	0.8851
2353.22	0.8857
2344.25	0.8862
2335.29	0.8866
2326.33	0.8871
2317.37	0.8869
2308.4	0.8862
2299.44	0.8861
2290.48	0.886
2281.52	0.8862
2272.55	0.8865
2263.59	0.8868
2254.63	0.8875
2245.66	0.8885
2236.7	0.8894
2227.74	0.8905
2218.78	0.8917
2209.81	0.893
2200.85	0.8941
2191.89	0.895
2182.93	0.8954
2173.96	0.896
2165	0.8964
2156.04	0.8968
2147.07	0.897
2138.11	0.8971
2129.15	0.8974
2120.19	0.8971
2111.22	0.8968
2102.26	0.8965
2093.3	0.8961
2084.34	0.8955
2075.37	0.8949
2066.41	0.8948
2057.45	0.8959
2048.49	0.8977
2039.52	0.8991
2030.56	0.8956
2021.6	0.8942
2012.63	0.8931
2003.67	0.8934
1994.71	0.9013
1985.75	0.9011
1976.78	0.9009
1967.82	0.9026
1958.86	0.9041
1949.9	0.9059
1940.93	0.9068
1931.97	0.9061
1923.01	0.9053
1914.05	0.9057
1905.08	0.9071
1896.12	0.902
1887.16	0.8783
1878.19	0.8773
1869.23	0.9011
1860.27	0.9111
1851.31	0.9197
1842.34	0.9258
1833.38	0.9254
1824.42	0.9251
1815.46	0.9248
1806.49	0.9246
1797.53	0.9243
1788.57	0.9241
1779.61	0.9237
1770.64	0.9233
1761.68	0.9231
1752.72	0.9233
1743.75	0.9242
1734.79	0.925
1725.83	0.9249
1716.87	0.9224
1707.9	0.9171
1698.94	0.9128
1689.98	0.9049
1681.02	0.8936
1672.05	0.8769
1663.09	0.8397
1654.13	0.78
1645.17	0.6877
1636.2	0.5932
1627.24	0.4997
1618.28	0.3548
1609.31	0.3745
1600.35	0.3496
1591.39	0.6005
1582.43	0.7277
1573.46	0.8007
1564.5	0.8361
1555.54	0.8551
1546.58	0.8666
1537.61	0.872
1528.65	0.874
1519.69	0.8672
1510.72	0.839
1501.76	0.4185
1492.8	0.1264
1483.84	0.4848
1474.87	0.6338
1465.91	0.7502
1456.95	0.7784
1447.99	0.7968
1439.02	0.814
1430.06	0.8494
1421.1	0.8659
1412.14	0.86
1403.17	0.8366
1394.21	0.8591
1385.25	0.876
1376.28	0.8766
1367.32	0.8761
1358.36	0.8753
1349.4	0.8747
1340.43	0.8762
1331.47	0.8819
1322.51	0.8889
1313.55	0.8878
1304.58	0.8835
1295.62	0.8633
1286.66	0.8037
1277.7	0.6248
1268.73	0.3202
1259.77	0.2008
1250.81	0.503
1241.84	0.69
1232.88	0.7561
1223.92	0.7952
1214.96	0.8175
1205.99	0.8245
1197.03	0.8457
1188.07	0.849
1179.11	0.8465
1170.14	0.432
1161.18	0.7917
1152.22	0.8353
1143.26	0.8345
1134.29	0.7817
1125.33	0.7779
1116.37	0.8084
1107.4	0.8168
1098.44	0.8151
1089.48	0.8013
1080.52	0.8149
1071.55	0.8274
1062.59	0.8392
1053.63	0.8489
1044.67	0.8567
1035.7	0.8617
1026.74	0.8644
1017.78	0.8573
1008.82	0.858
999.852	0.8649
990.89	0.8468
981.927	0.8828
972.964	0.8807
964.002	0.877
955.039	0.865
946.076	0.8538
937.114	0.8611
928.151	0.849
919.188	0.8569
910.226	0.8544
901.263	0.8435
892.3	0.8295
883.338	0.8135
874.375	0.7893
865.412	0.7455
856.45	0.6944
847.487	0.5922
838.524	0.6191
829.562	0.4405
820.599	0.2125
811.636	0.3256
802.674	0.661
793.711	0.693
784.748	0.6532
775.786	0.6081
766.823	0.5581
757.86	0.5165
748.898	0.4964
739.935	0.5264
730.972	0.6016
722.01	0.5271
713.047	0.5655
704.084	0.4802
695.121	0.4986
686.159	0.537
677.196	0.5857
668.233	0.6062
659.271	0.6108
650.308	0.6449
641.345	0.6422
632.383	0.6585
623.42	0.6777
614.457	0.7021
605.495	0.7108
596.532	0.725
587.569	0.7375
578.607	0.75
569.644	0.7619
560.681	0.7695
551.719	0.753
542.756	0.7418
533.793	0.7792
524.831	0.4308
515.868	0.5478
506.905	0.4202
497.943	0.5994
488.98	0.6832
480.017	0.7283
471.055	0.7498
462.092	0.758
453.129	0.7489
444.167	0.7664
435.204	0.7829
426.241	0.7861
417.279	0.7833
408.316	0.7564
399.353	0.7471
390.391	0.7883
381.428	0.7826
372.465	0.7779
363.502	0.7762
354.54	0.7675
345.577	0.7447
336.614	0.7355
327.652	0.7431
318.689	0.7487
309.726	0.7474
300.764	0.7464
291.801	0.7395
282.838	0.714
273.876	0.6738
264.913	0.6387
255.95	0.5838
246.988	0.5284
