Infrared Spectrum: PHENOTHIAZINE
Formula: C12 H9 N S
CAS: 92-84-2
State: SOLID (KBr PELLET)
Class: COBLENTZ
Instrument: Not specified, most likely a prism, grating, or hybrid spectrometer.
Sampling: TRANSMISSION
Resolution: 4
Origin: TENNESSEE EASTMAN COMPANY, RESEARCH LABORATORIES
MICROMETERS	TRANSMITTANCE
2.02	0.468
2.05979	0.476
2.09958	0.5
2.13937	0.508
2.17916	0.519
2.21895	0.541
2.25874	0.561
2.29853	0.572
2.33832	0.581
2.37811	0.596
2.41791	0.605
2.4577	0.609
2.49749	0.624
2.53728	0.634
2.57707	0.64
2.61686	0.642
2.65665	0.658
2.69644	0.672
2.73623	0.685
2.77602	0.685
2.81581	0.683
2.8556	0.675
2.89539	0.67
2.93518	0.663
2.97497	0.597
3.01476	0.142
3.05455	0.362
3.09434	0.605
3.13413	0.668
3.17393	0.675
3.21372	0.716
3.25351	0.692
3.2933	0.635
3.33309	0.677
3.37288	0.698
3.41267	0.751
3.45246	0.748
3.49225	0.779
3.53204	0.788
3.57183	0.799
3.61162	0.812
3.65141	0.806
3.6912	0.811
3.73099	0.812
3.77078	0.836
3.81057	0.841
3.85036	0.834
3.89015	0.844
3.92995	0.852
3.96974	0.832
4.00953	0.847
4.04932	0.864
4.08911	0.865
4.1289	0.87
4.16869	0.879
4.20848	0.884
4.24827	0.885
4.28806	0.89
4.32785	0.895
4.36764	0.897
4.40743	0.903
4.44722	0.92
4.48701	0.928
4.5268	0.933
4.56659	0.935
4.60638	0.937
4.64617	0.933
4.68596	0.937
4.72576	0.943
4.76555	0.948
4.80534	0.953
4.84513	0.96
4.88492	0.96
4.92471	0.96
4.9645	0.961
5.00429	0.965
5.04408	0.971
5.08387	0.965
5.12366	0.965
5.16345	0.965
5.20324	0.908
5.24303	0.947
5.28282	0.899
5.32261	0.895
5.3624	0.951
5.40219	0.943
5.44198	0.963
5.48178	0.968
5.52157	0.96
5.56136	0.947
5.60115	0.963
5.64094	0.884
5.68073	0.947
5.72052	0.963
5.76031	0.958
5.8001	0.961
5.83989	0.958
5.87968	0.94
5.91947	0.933
5.95926	0.905
5.99905	0.892
6.03884	0.937
6.07863	0.937
6.11842	0.935
6.15821	0.928
6.198	0.918
6.2378	0.819
6.27759	0.177
6.31738	0.761
6.35717	0.478
6.39696	0.73
6.43675	0.826
6.47654	0.862
6.51633	0.889
6.55612	0.89
6.59591	0.768
6.6357	0.639
6.67549	0.562
6.71528	0.539
6.75507	0.22
6.79486	0.076
6.83465	0.384
6.87444	0.701
6.91423	0.298
6.95402	0.447
6.99382	0.839
7.03361	0.877
7.0734	0.827
7.11319	0.867
7.15298	0.877
7.19277	0.842
7.23256	0.839
7.27235	0.882
7.31214	0.932
7.35193	0.951
7.39172	0.965
7.43151	0.961
7.4713	0.958
7.51109	0.943
7.55088	0.879
7.59067	0.624
7.63046	0.168
7.67025	0.304
7.71004	0.468
7.74984	0.764
7.78963	0.718
7.82942	0.653
7.86921	0.884
7.909	0.895
7.94879	0.801
7.98858	0.877
8.02837	0.778
8.06816	0.718
8.10795	0.872
8.14774	0.905
8.18753	0.922
8.22732	0.925
8.26711	0.927
8.3069	0.907
8.34669	0.935
8.38648	0.933
8.42627	0.927
8.46606	0.923
8.50585	0.915
8.54565	0.925
8.58544	0.918
8.62523	0.773
8.66502	0.67
8.70481	0.807
8.7446	0.844
8.78439	0.836
8.82418	0.753
8.86397	0.695
8.90376	0.62
8.94355	0.68
8.98334	0.786
9.02313	0.849
9.06292	0.86
9.10271	0.882
9.1425	0.884
9.18229	0.879
9.22208	0.857
9.26187	0.801
9.30167	0.855
9.34146	0.872
9.38125	0.854
9.42104	0.869
9.46083	0.884
9.50062	0.887
9.54041	0.9
9.5802	0.892
9.61999	0.738
9.65978	0.639
9.69957	0.806
9.73936	0.859
9.77915	0.884
9.81894	0.89
9.85873	0.903
9.89852	0.915
9.93831	0.913
9.9781	0.915
10.0179	0.927
10.0577	0.927
10.0975	0.93
10.1373	0.945
10.1771	0.947
10.2168	0.943
10.2566	0.947
10.2964	0.947
10.3362	0.928
10.376	0.913
10.4158	0.94
10.4556	0.948
10.4954	0.955
10.5352	0.966
10.575	0.973
10.6148	0.973
10.6545	0.97
10.6943	0.973
10.7341	0.963
10.7739	0.897
10.8137	0.543
10.8535	0.41
10.8933	0.894
10.9331	0.961
10.9729	0.986
11.0127	0.995
11.0524	0.995
11.0922	1
11.132	1.004
11.1718	1.004
11.2116	0.99
11.2514	0.928
11.2912	0.846
11.331	0.905
11.3708	0.947
11.4106	0.956
11.4504	0.963
11.4901	0.976
11.5299	0.98
11.5697	0.925
11.6095	0.675
11.6493	0.759
11.6891	0.814
11.7289	0.865
11.7687	0.817
11.8085	0.728
11.8483	0.811
11.888	0.912
11.9278	0.961
11.9676	0.983
12.0074	0.993
12.0472	0.998
12.087	1.001
12.1268	1.004
12.1666	1.004
12.2064	1.004
12.2462	1.004
12.286	1.003
12.3257	1.001
12.3655	1.001
12.4053	1
12.4451	0.996
12.4849	0.995
12.5247	0.995
12.5645	0.995
12.6043	0.995
12.6441	0.995
12.6839	0.991
12.7237	0.99
12.7634	0.99
12.8032	0.978
12.843	0.973
12.8828	0.965
12.9226	0.961
12.9624	0.95
13.0022	0.928
13.042	0.908
13.0818	0.877
13.1216	0.811
13.1613	0.692
13.2011	0.461
13.2409	0.14
13.2807	0.081
13.3205	0.203
13.3603	0.306
13.4001	0.281
13.4399	0.13
13.4797	0.057
13.5195	0.046
13.5593	0.061
13.599	0.157
13.6388	0.354
13.6786	0.529
13.7184	0.619
13.7582	0.662
13.798	0.667
13.8378	0.572
13.8776	0.379
13.9174	0.208
13.9572	0.307
13.9969	0.569
14.0367	0.743
14.0765	0.806
14.1163	0.847
14.1561	0.865
14.1959	0.877
14.2357	0.882
14.2755	0.882
14.3153	0.882
14.3551	0.88
14.3949	0.877
14.4346	0.859
14.4744	0.841
14.5142	0.809
14.554	0.769
14.5938	0.721
14.6336	0.682
14.6734	0.695
14.7132	0.738
14.753	0.789
14.7928	0.814
14.8325	0.827
14.8723	0.831
14.9121	0.829
14.9519	0.819
14.9917	0.794
15.0315	0.743
15.0713	0.697
15.1111	0.652
15.1509	0.597
15.1907	0.549
15.2305	0.518
15.2702	0.516
15.31	0.549
15.3498	0.607
15.3896	0.657
15.4294	0.697
15.4692	0.726
15.509	0.748
15.5488	0.756
15.5886	0.759
15.6284	0.761
15.6681	0.761
15.7079	0.759
15.7477	0.758
15.7875	0.754
15.8273	0.751
15.8671	0.751
15.9069	0.741
15.9467	0.735
15.9865	0.733
