Infrared Spectrum: 4,4'-Diaminobiphenyl
Formula: C12 H12 N2
CAS: 92-87-5
State: SOLID (SPLIT MULL)
Class: COBLENTZ III
Instrument: BECKMAN IR-9 (GRATING)
Instrument parameters: ORDER CHANGES: 670, 1200, 2000 CM^-^1
Sampling: TRANSMISSION
Resolution: 2
Origin: DOW CHEMICAL COMPANY
1/CM	TRANSMITTANCE
3810	0.56
3801	0.5614
3792	0.5629
3783	0.5644
3774	0.5658
3765	0.5669
3756	0.5682
3747	0.5698
3738	0.5715
3729	0.5729
3720	0.5742
3711	0.5754
3702	0.5767
3693	0.578
3684	0.5794
3675	0.5807
3666	0.5824
3657	0.5842
3648	0.586
3639	0.5877
3630	0.5893
3621	0.5909
3612	0.5926
3603	0.5942
3594	0.5959
3585	0.598
3576	0.6005
3567	0.6029
3558	0.6045
3549	0.6058
3540	0.607
3531	0.6076
3522	0.6083
3513	0.6086
3504	0.609
3495	0.6091
3486	0.6087
3477	0.6051
3468	0.5962
3459	0.5624
3450	0.5212
3441	0.5192
3432	0.5637
3423	0.5644
3414	0.5092
3405	0.4406
3396	0.4338
3387	0.514
3378	0.5652
3369	0.5484
3360	0.5267
3351	0.4939
3342	0.4269
3333	0.3746
3324	0.4009
3315	0.4498
3306	0.4856
3297	0.5096
3288	0.5279
3279	0.5397
3270	0.5475
3261	0.5493
3252	0.5484
3243	0.5415
3234	0.5218
3225	0.5041
3216	0.4953
3207	0.5125
3198	0.5321
3189	0.5489
3180	0.5639
3171	0.5781
3162	0.5909
3153	0.6015
3144	0.6109
3135	0.6181
3126	0.6236
3117	0.6268
3108	0.6286
3099	0.63
3090	0.6303
3081	0.631
3072	0.6319
3063	0.6316
3054	0.6265
3045	0.593
3036	0.5898
3027	0.6134
3018	0.6277
3009	0.6353
3000	0.6442
2991	0.6518
2982	0.6574
2973	0.6593
2964	0.6596
2955	0.6601
2946	0.6608
2937	0.6621
2928	0.6639
2919	0.6669
2910	0.6701
2901	0.6738
2892	0.6776
2883	0.6801
2874	0.6818
2865	0.6832
2856	0.6872
2847	0.69
2838	0.6926
2829	0.6934
2820	0.6941
2811	0.6947
2802	0.6954
2793	0.6968
2784	0.6986
2775	0.7008
2766	0.7033
2757	0.7046
2748	0.7058
2739	0.7071
2730	0.7078
2721	0.7082
2712	0.7086
2703	0.7098
2694	0.7111
2685	0.7126
2676	0.7143
2667	0.716
2658	0.718
2649	0.72
2640	0.7219
2631	0.7245
2622	0.7271
2613	0.7297
2604	0.7319
2595	0.7342
2586	0.736
2577	0.7371
2568	0.7386
2559	0.7399
2550	0.7412
2541	0.7426
2532	0.7442
2523	0.7456
2514	0.7468
2505	0.748
2496	0.7493
2487	0.7504
2478	0.7514
2469	0.7524
2460	0.7535
2451	0.7546
2442	0.7558
2433	0.7568
2424	0.7575
2415	0.7583
2406	0.7589
2397	0.7592
2388	0.7595
2379	0.7598
2370	0.7598
2361	0.7597
2352	0.7597
2343	0.7599
2334	0.7605
2325	0.7632
2316	0.7657
2307	0.7682
2298	0.7705
2289	0.7726
2280	0.7749
2271	0.7771
2262	0.7795
2253	0.7818
2244	0.7842
2235	0.7867
2226	0.7899
2217	0.7928
2208	0.7961
2199	0.799
2190	0.8015
2181	0.8039
2172	0.8065
2163	0.8082
2154	0.8099
2145	0.8115
2136	0.8133
2127	0.8151
2118	0.8171
2109	0.8192
2100	0.8215
2091	0.8245
2082	0.8274
2073	0.8292
2064	0.8297
2055	0.8301
2046	0.8306
2037	0.831
2028	0.8316
2019	0.8321
2010	0.8328
2001	0.8337
1992	0.8354
1983	0.8385
1974	0.8414
1965	0.8435
1956	0.8444
1947	0.8448
1938	0.8453
1929	0.8458
1920	0.8463
1911	0.844
1902	0.8397
1893	0.8397
1884	0.8414
1875	0.8489
1866	0.8553
1857	0.8603
1848	0.8639
1839	0.8673
1830	0.8696
1821	0.8707
1812	0.8706
1803	0.8701
1794	0.8699
1785	0.8715
1776	0.8763
1767	0.8786
1758	0.8827
1749	0.8851
1740	0.8861
1731	0.8873
1722	0.8889
1713	0.8899
1704	0.8906
1695	0.8905
1686	0.8889
1677	0.8848
1668	0.8795
1659	0.8705
1650	0.8412
1641	0.7662
1632	0.556
1623	0.5742
1614	0.6097
1605	0.549
1596	0.6751
1587	0.7871
1578	0.8362
1569	0.8534
1560	0.8647
1551	0.8733
1542	0.8802
1533	0.8877
1524	0.8907
1515	0.8711
1506	0.2627
1497	0.2569
1488	0.5908
1479	0.6951
1470	0.7593
1461	0.789
1452	0.8096
1443	0.8238
1434	0.8335
1425	0.8354
1416	0.8271
1407	0.8332
1398	0.8433
1389	0.8473
1380	0.8464
1371	0.8416
1362	0.8342
1353	0.8161
1344	0.7824
1335	0.7934
1326	0.7921
1317	0.8108
1308	0.8111
1299	0.7811
1290	0.7646
1281	0.5497
1272	0.3923
1263	0.3197
1254	0.4256
1245	0.6148
1236	0.6667
1227	0.706
1218	0.7428
1209	0.7642
1200	0.7791
1191	0.7917
1182	0.8334
1173	0.4396
1164	0.7144
1155	0.7532
1146	0.7454
1137	0.7276
1128	0.7645
1119	0.7915
1110	0.8064
1101	0.8007
1092	0.8
1083	0.8125
1074	0.8261
1065	0.8375
1056	0.8477
1047	0.8567
1038	0.8645
1029	0.8677
1020	0.861
1011	0.8611
1002	0.8751
993	0.8775
984	0.8865
975	0.8816
966	0.8781
957	0.8628
948	0.8663
939	0.884
930	0.8878
921	0.9048
912	0.9063
903	0.9061
894	0.8955
885	0.8911
876	0.8923
867	0.8748
858	0.8271
849	0.7082
840	0.7398
831	0.5421
822	0.3721
813	0.3648
804	0.6678
795	0.7997
786	0.7726
777	0.7142
768	0.6636
759	0.6372
750	0.6122
741	0.6534
732	0.6937
723	0.5658
714	0.6262
705	0.5697
696	0.6501
687	0.7078
678	0.7321
669	0.7178
660	0.7371
651	0.7532
642	0.7717
633	0.7665
624	0.8015
615	0.8191
606	0.8292
597	0.8324
588	0.8311
579	0.8652
570	0.8758
561	0.8871
552	0.8524
543	0.8562
534	0.932
525	0.495
516	0.6994
507	0.533
498	0.6447
489	0.7549
480	0.7837
471	0.7843
462	0.7712
453	0.7503
444	0.7508
435	0.7417
426	0.7332
417	0.7318
408	0.7384
399	0.7501
