Infrared Spectrum: NAPHTHALENE, 2-METHOXY-
Formula: C11 H10 O
CAS: 93-04-9
State: SOLUTION (10% CCl4 FOR 3800-1340, 10% CS2 FOR 1340-450 CM^-^1)
Melting point: 73-74.5 C
Class: COBLENTZ III
Instrument: DOW KBr FOREPRISM-GRATING
Instrument parameters: BLAZED AT 3.5, 12.0, 20.0 MICRON AND CHANGED AT 5.0, 7.5, 14.9 MICRON
Sampling: TRANSMISSION
Path length: 0.011 CM, 0.011 CM
Resolution: 2
Origin: DOW CHEMICAL COMPANY
1/CM	TRANSMITTANCE
450	0.7437
459	0.7275
468	0.5524
477	0.0882
486	0.8048
495	0.822
504	0.7782
513	0.7757
522	0.8396
531	0.8478
540	0.8525
549	0.855
558	0.8731
567	0.8902
576	0.8984
585	0.9028
594	0.9045
603	0.9018
612	0.877
621	0.4049
630	0.8671
639	0.8137
648	0.8271
657	0.8228
666	0.8744
675	0.8821
684	0.8703
693	0.7844
702	0.8105
711	0.8607
720	0.8534
729	0.7718
738	0.4032
747	0.5494
756	0.7222
765	0.8336
774	0.854
783	0.8421
792	0.8021
801	0.4375
810	0.1752
819	0.7032
828	0.3791
837	0.0861
846	0.4542
855	0.6582
864	0.6367
873	0.7294
882	0.7942
891	0.7794
900	0.8281
909	0.8671
918	0.8677
927	0.8558
936	0.6796
945	0.6658
954	0.551
963	0.8421
972	0.8668
981	0.8765
990	0.8736
999	0.8482
1008	0.7865
1017	0.3693
1026	0.4403
1035	0.0365
1044	0.5834
1053	0.8008
1062	0.844
1071	0.8531
1080	0.8598
1089	0.8568
1098	0.8449
1107	0.8068
1116	0.2373
1125	0.5245
1134	0.6465
1143	0.6471
1152	0.6501
1161	0.328
1170	0.0523
1179	0.4604
1188	0.5149
1197	0.5307
1206	0.4399
1215	0.0246
1224	0.3558
1233	0.6374
1242	0.6493
1251	0.3984
1260	0.0113
1269	0.036
1278	0.6182
1287	0.7919
1296	0.842
1305	0.8501
1314	0.8505
1323	0.8448
1332	0.8007
1341	0.689
1350	0.6651
1359	0.3025
1368	0.5093
1377	0.7349
1386	0.3752
1395	0.3066
1404	0.5025
1413	0.7636
1422	0.7767
1431	0.6865
1440	0.1719
1449	0.4447
1458	0.4633
1467	0.2699
1476	0.0605
1485	0.5935
1494	0.6377
1503	0.419
1512	0.0412
1521	0.494
1530	0.5337
1539	0.4646
1548	0.4021
1557	0.4242
1566	0.487
1575	0.3872
1584	0.353
1593	0.2494
1602	0.0609
1611	0.425
1620	0.5372
1629	0.0463
1638	0.2534
1647	0.575
1656	0.7261
1665	0.7651
1674	0.7525
1683	0.7715
1692	0.7858
1701	0.7669
1710	0.8068
1719	0.8225
1728	0.8153
1737	0.8201
1746	0.8121
1755	0.8178
1764	0.8208
1773	0.815
1782	0.8143
1791	0.8274
1800	0.8139
1809	0.8064
1818	0.7848
1827	0.8071
1836	0.8128
1845	0.8366
1854	0.8367
1863	0.8247
1872	0.8035
1881	0.8105
1890	0.7935
1899	0.7718
1908	0.746
1917	0.7786
1926	0.8011
1935	0.7811
1944	0.8107
1953	0.816
1962	0.8232
1971	0.8381
1980	0.844
1989	0.8397
1998	0.8486
2007	0.8381
2016	0.8324
2025	0.8328
2034	0.8367
2043	0.8277
2052	0.8161
2061	0.7971
2070	0.7901
2079	0.8189
2088	0.839
2097	0.8411
2106	0.8402
2115	0.8324
2124	0.8375
2133	0.8421
2142	0.8393
2151	0.8192
2160	0.8205
2169	0.8225
2178	0.8341
2187	0.848
2196	0.8456
2205	0.8435
2214	0.8446
2223	0.8492
2232	0.847
2241	0.8434
2250	0.8392
2259	0.8353
2268	0.829
2277	0.8237
2286	0.8178
2295	0.8164
2304	0.8284
2313	0.8317
2322	0.8253
2331	0.8294
2340	0.8394
2349	0.8461
2358	0.8446
2367	0.8425
2376	0.8428
2385	0.8407
2394	0.8459
2403	0.8456
2412	0.8428
2421	0.8391
2430	0.8401
2439	0.8497
2448	0.8521
2457	0.8513
2466	0.8511
2475	0.852
2484	0.8531
2493	0.8532
2502	0.8555
2511	0.8564
2520	0.8548
2529	0.8536
2538	0.8575
2547	0.8575
2556	0.8544
2565	0.8509
2574	0.8488
2583	0.8485
2592	0.8413
2601	0.8344
2610	0.8346
2619	0.8502
2628	0.8537
2637	0.8502
2646	0.8457
2655	0.8485
2664	0.855
2673	0.8594
2682	0.861
2691	0.8597
2700	0.8575
2709	0.8553
2718	0.8534
2727	0.8515
2736	0.8504
2745	0.8503
2754	0.8592
2763	0.8586
2772	0.8568
2781	0.8528
2790	0.8462
2799	0.8336
2808	0.8125
2817	0.7678
2826	0.6765
2835	0.5914
2844	0.5465
2853	0.8131
2862	0.8089
2871	0.8015
2880	0.7541
2889	0.6007
2898	0.6632
2907	0.6264
2916	0.6601
2925	0.6175
2934	0.4423
2943	0.4907
2952	0.4103
2961	0.488
2970	0.7
2979	0.7049
2988	0.6734
2997	0.5846
3006	0.4762
3015	0.5781
3024	0.5845
3033	0.6394
3042	0.559
3051	0.3991
3060	0.3666
3069	0.456
3078	0.6678
3087	0.764
3096	0.7767
3105	0.8408
3114	0.8503
3123	0.8553
3132	0.8586
3141	0.8612
3150	0.8637
3159	0.8655
3168	0.8674
3177	0.8688
3186	0.8702
3195	0.8714
3204	0.8724
3213	0.8736
3222	0.8756
3231	0.8775
3240	0.8788
3249	0.8799
3258	0.8806
3267	0.8823
3276	0.8858
3285	0.8884
3294	0.8885
3303	0.8881
3312	0.8878
3321	0.8878
3330	0.8883
3339	0.8887
3348	0.8892
3357	0.8895
3366	0.8893
3375	0.8891
3384	0.889
3393	0.8888
3402	0.8887
3411	0.8887
3420	0.8889
3429	0.889
3438	0.8892
3447	0.8894
3456	0.8895
3465	0.8896
3474	0.8897
3483	0.8897
3492	0.8898
3501	0.8898
3510	0.8898
3519	0.8893
3528	0.8887
3537	0.8881
3546	0.8875
3555	0.887
3564	0.8865
3573	0.8865
3582	0.8866
3591	0.8867
3600	0.8868
3609	0.8868
3618	0.8868
3627	0.8868
3636	0.8868
3645	0.887
3654	0.8875
3663	0.888
3672	0.8886
3681	0.8884
3690	0.8881
3699	0.8877
3708	0.8874
3717	0.8875
3726	0.888
3735	0.8883
3744	0.8884
3753	0.8885
