Infrared Spectrum: 2-ACETONAPHTHONE
Formula: C12 H10 O
CAS: 93-08-3
State: SOLID (1.0% IN KBr PELLET)
Class: COBLENTZ
Instrument: Not specified, most likely a prism, grating, or hybrid spectrometer.
Sampling: TRANSMISSION
Path length: 0.0355 CM THICK
Resolution: 4
Origin: ANDERSON PHYSICAL LABORATORY
1/CM	TRANSMITTANCE
672.897	0.916
681.308	0.914
689.719	0.904
698.131	0.908
706.542	0.911
714.953	0.902
723.364	0.889
731.775	0.857
740.187	0.752
748.598	0.637
757.009	0.17
765.42	0.8146
773.831	0.7161
782.243	0.9438
790.654	0.949
799.065	0.925
807.476	0.89
815.888	0.827
824.299	0.701
832.71	0.445
841.121	0.161
849.532	0.8538
857.944	0.907
866.355	0.6532
874.766	0.271
883.177	0.8889
891.588	0.91
900	0.7511
908.411	0.5799
916.822	0.884
925.233	0.865
933.644	0.7901
942.056	0.5202
950.467	0.7306
958.878	0.7932
967.289	0.608
975.7	0.8468
984.112	0.857
992.523	0.854
1000.93	0.848
1009.35	0.844
1017.76	0.7631
1026.17	0.6679
1034.58	0.841
1042.99	0.841
1051.4	0.823
1059.81	0.788
1068.22	0.727
1076.63	0.686
1085.05	0.773
1093.46	0.758
1101.87	0.734
1110.28	0.704
1118.69	0.6461
1127.1	0.4901
1135.51	0.316
1143.92	0.5891
1152.34	0.709
1160.75	0.671
1169.16	0.703
1177.57	0.628
1185.98	0.5151
1194.39	0.3342
1202.8	0.3996
1211.21	0.859
1219.63	0.6551
1228.04	0.3861
1236.45	0.448
1244.86	0.6469
1253.27	0.614
1261.68	0.574
1270.09	0.4071
1278.5	0.266
1286.92	0.1701
1295.33	0.5407
1303.74	0.877
1312.15	0.91
1320.56	0.892
1328.97	0.832
1337.38	0.757
1345.79	0.668
1354.2	0.5441
1362.62	0.3041
1371.03	0.224
1379.44	0.4179
1387.85	0.694
1396.26	0.5602
1404.67	0.6469
1413.08	0.695
1421.49	0.629
1429.91	0.539
1438.32	0.484
1446.73	0.6368
1455.14	0.685
1463.55	0.593
1471.96	0.449
1480.37	0.7279
1488.78	0.851
1497.2	0.824
1505.61	0.77
1514.02	0.743
1522.43	0.731
1530.84	0.715
1539.25	0.704
1547.66	0.682
1556.07	0.676
1564.48	0.647
1572.9	0.625
1581.31	0.556
1589.72	0.598
1598.13	0.497
1606.54	0.5479
1614.95	0.535
1623.36	0.454
1631.77	0.392
1640.19	0.449
1648.6	0.428
1657.01	0.329
1665.42	0.215
1673.83	0.116
1682.24	0.088
1690.65	0.4307
1699.06	0.7538
1707.48	0.934
1715.89	0.938
1724.3	0.922
1732.71	0.895
1741.12	0.878
1749.53	0.862
1757.94	0.842
1766.35	0.817
1774.77	0.806
1783.18	0.803
1791.59	0.758
1800	0.742
1808.41	0.742
1816.82	0.734
1825.23	0.718
1833.64	0.727
1842.05	0.719
1850.47	0.713
1858.88	0.709
1867.29	0.707
1875.7	0.703
1884.11	0.691
1892.52	0.688
1900.93	0.686
1909.34	0.682
1917.76	0.671
1926.17	0.658
1934.58	0.655
1942.99	0.643
1951.4	0.628
1959.81	0.629
1968.22	0.632
1976.63	0.631
1985.05	0.626
1993.46	0.637
2001.87	0.641
2010.28	0.64
2018.69	0.637
2027.1	0.6313
2035.51	0.6245
2043.92	0.6223
2052.33	0.619
2060.75	0.6185
2069.16	0.617
2077.57	0.6145
2085.98	0.611
2094.39	0.6063
2102.8	0.6
2111.21	0.5965
2119.62	0.595
2128.04	0.592
2136.45	0.588
2144.86	0.5808
2153.27	0.575
2161.68	0.5733
2170.09	0.5685
2178.5	0.566
2186.91	0.565
2195.33	0.5615
2203.74	0.5595
2212.15	0.5575
2220.56	0.5541
2228.97	0.5495
2237.38	0.547
2245.79	0.545
2254.2	0.542
2262.62	0.5373
2271.03	0.533
2279.44	0.5298
2287.85	0.524
2296.26	0.5208
2304.67	0.516
2313.08	0.5098
2321.49	0.508
2329.9	0.506
2338.32	0.5055
2346.73	0.5035
2355.14	0.497
2363.55	0.488
2371.96	0.486
2380.37	0.485
2388.78	0.485
2397.19	0.485
2405.61	0.485
2414.02	0.487
2422.43	0.487
2430.84	0.487
2439.25	0.485
2447.66	0.485
2456.07	0.485
2464.48	0.4818
2472.9	0.4785
2481.31	0.4753
2489.72	0.473
2498.13	0.4715
2506.54	0.4695
2514.95	0.469
2523.36	0.467
2531.77	0.4655
2540.18	0.464
2548.6	0.4615
2557.01	0.4581
2565.42	0.457
2573.83	0.455
2582.24	0.4525
2590.65	0.451
2599.06	0.4483
2607.47	0.4425
2615.89	0.44
2624.3	0.44
2632.71	0.439
2641.12	0.4365
2649.53	0.434
2657.94	0.433
2666.35	0.4308
2674.76	0.429
2683.18	0.4255
2691.59	0.422
2700	0.4188
2708.41	0.418
2716.82	0.418
2725.23	0.418
2733.64	0.416
2742.05	0.414
2750.47	0.41
2758.88	0.407
2767.29	0.403
2775.7	0.401
2784.11	0.4
2792.52	0.398
2800.93	0.397
2809.34	0.395
2817.75	0.394
2826.17	0.392
2834.58	0.392
2842.99	0.3915
2851.4	0.3895
2859.81	0.385
2868.22	0.3793
2876.63	0.3765
2885.04	0.374
2893.46	0.371
2901.87	0.3678
2910.28	0.365
2918.69	0.367
2927.1	0.365
2935.51	0.3613
2943.92	0.357
2952.33	0.3523
2960.75	0.347
2969.16	0.3401
2977.57	0.33
2985.98	0.3253
2994.39	0.323
3002.8	0.325
3011.21	0.326
3019.62	0.328
3028.03	0.328
3036.45	0.3253
3044.86	0.318
3053.27	0.3085
3061.68	0.305
3070.09	0.3072
3078.5	0.3125
3086.91	0.3237
3095.32	0.331
3103.74	0.3342
3112.15	0.337
3120.56	0.3355
3128.97	0.335
3137.38	0.335
3145.79	0.3345
3154.2	0.334
3162.61	0.331
3171.03	0.3288
3179.44	0.326
3187.85	0.3275
3196.26	0.328
3204.67	0.3253
3213.08	0.323
3221.49	0.325
3229.9	0.323
3238.32	0.3213
3246.73	0.317
3255.14	0.317
3263.55	0.319
3271.96	0.3185
3280.37	0.3165
3288.78	0.313
3297.19	0.311
3305.6	0.3078
3314.02	0.305
3322.43	0.304
3330.84	0.301
3339.25	0.301
3347.66	0.302
3356.07	0.302
3364.48	0.304
3372.89	0.302
3381.31	0.302
3389.72	0.302
3398.13	0.301
3406.54	0.2988
3414.95	0.298
3423.36	0.2965
3431.77	0.293
3440.18	0.292
3448.6	0.291
3457.01	0.2875
3465.42	0.286
3473.83	0.284
3482.24	0.283
3490.65	0.283
3499.06	0.281
3507.47	0.281
3515.88	0.28
3524.3	0.2785
3532.71	0.278
3541.12	0.278
3549.53	0.278
3557.94	0.2773
3566.35	0.277
3574.76	0.275
3583.17	0.275
3591.59	0.275
3600	0.274
3608.41	0.271
3616.82	0.27
3625.23	0.2683
3633.64	0.266
3642.05	0.266
3650.46	0.265
3658.88	0.2635
3667.29	0.263
3675.7	0.263
3684.11	0.263
3692.52	0.263
3700.93	0.262
3709.34	0.262
3717.75	0.261
3726.17	0.2593
3734.58	0.257
3742.99	0.257
3751.4	0.2565
3759.81	0.256
3768.22	0.256
3776.63	0.256
3785.04	0.256
3793.45	0.256
3801.87	0.254
3810.28	0.253
3818.69	0.251
3827.1	0.251
3835.51	0.25
3843.92	0.25
3852.33	0.248
3860.74	0.248
3869.16	0.247
3877.57	0.2465
3885.98	0.243
3894.39	0.239
3902.8	0.238
3911.21	0.238
3919.62	0.238
3928.03	0.238
3936.45	0.238
3944.86	0.238
3953.27	0.238
3961.68	0.238
3970.09	0.236
3978.5	0.236
3986.91	0.236
