Infrared Spectrum: Beta-NAPHTHALENE-SULFONYL-CHLORIDE
Formula: C10 H7 Cl O2 S
CAS: 93-11-8
State: SOLID (1.0% IN KBr PELLET)
Class: COBLENTZ
Instrument: Not specified, most likely a prism, grating, or hybrid spectrometer.
Sampling: TRANSMISSION
Path length: 0.0355 CM THICK
Resolution: 4
Origin: ANDERSON PHYSICAL LABORATORY
1/CM	TRANSMITTANCE
667.603	0.799
676.03	0.811
684.457	0.829
692.884	0.887
701.311	0.929
709.738	0.932
718.165	0.914
726.592	0.886
735.019	0.823
743.446	0.681
751.873	0.434
760.3	0.6087
768.727	0.8178
777.154	0.886
785.581	0.895
794.008	0.866
802.434	0.803
810.861	0.634
819.288	0.446
827.715	0.687
836.142	0.802
844.569	0.8
852.996	0.7031
861.423	0.7658
869.85	0.755
878.277	0.836
886.704	0.838
895.131	0.82
903.558	0.761
911.985	0.678
920.412	0.785
928.839	0.788
937.266	0.775
945.693	0.752
954.12	0.72
962.547	0.69
970.974	0.727
979.401	0.709
987.828	0.724
996.255	0.718
1004.68	0.687
1013.11	0.64
1021.54	0.606
1029.96	0.64
1038.39	0.619
1046.82	0.619
1055.24	0.618
1063.67	0.568
1072.1	0.489
1080.52	0.6
1088.95	0.598
1097.38	0.55
1105.81	0.537
1114.23	0.537
1122.66	0.489
1131.09	0.449
1139.51	0.407
1147.94	0.408
1156.37	0.363
1164.79	0.226
1173.22	0.161
1181.65	0.2169
1190.08	0.3809
1198.5	0.511
1206.93	0.559
1215.36	0.586
1223.78	0.586
1232.21	0.597
1240.64	0.61
1249.06	0.627
1257.49	0.67
1265.92	0.681
1274.34	0.657
1282.77	0.706
1291.2	0.711
1299.63	0.696
1308.05	0.663
1316.48	0.634
1324.91	0.598
1333.33	0.57
1341.76	0.523
1350.19	0.3481
1358.61	0.3479
1367.04	0.428
1375.47	0.344
1383.9	0.263
1392.32	0.365
1400.75	0.684
1409.18	0.799
1417.6	0.821
1426.03	0.821
1434.46	0.812
1442.88	0.8
1451.31	0.784
1459.74	0.755
1468.16	0.814
1476.59	0.824
1485.02	0.806
1493.45	0.794
1501.87	0.726
1510.3	0.693
1518.73	0.8
1527.15	0.79
1535.58	0.785
1544.01	0.769
1552.43	0.755
1560.86	0.741
1569.29	0.721
1577.72	0.694
1586.14	0.624
1594.57	0.58
1603	0.7019
1611.42	0.717
1619.85	0.646
1628.28	0.633
1636.7	0.717
1645.13	0.717
1653.56	0.709
1661.99	0.705
1670.41	0.7
1678.84	0.7
1687.27	0.699
1695.69	0.697
1704.12	0.696
1712.55	0.688
1720.97	0.687
1729.4	0.69
1737.83	0.697
1746.25	0.696
1754.68	0.694
1763.11	0.684
1771.54	0.679
1779.96	0.684
1788.39	0.687
1796.82	0.685
1805.24	0.679
1813.67	0.666
1822.1	0.681
1830.52	0.685
1838.95	0.691
1847.38	0.691
1855.81	0.691
1864.23	0.688
1872.66	0.687
1881.09	0.687
1889.51	0.684
1897.94	0.678
1906.37	0.673
1914.79	0.67
1923.22	0.658
1931.65	0.661
1940.08	0.66
1948.5	0.669
1956.93	0.669
1965.36	0.666
1973.78	0.666
1982.21	0.672
1990.64	0.675
1999.06	0.669
2007.49	0.666
2015.92	0.661
2024.34	0.66
2032.77	0.66
2041.2	0.66
2049.63	0.6565
2058.05	0.655
2066.48	0.6543
2074.91	0.654
2083.33	0.6503
2091.76	0.6445
2100.19	0.6405
2108.61	0.6361
2117.04	0.6338
2125.47	0.633
2133.9	0.633
2142.32	0.633
2150.75	0.633
2159.18	0.631
2167.6	0.6288
2176.03	0.625
2184.46	0.624
2192.88	0.624
2201.31	0.624
2209.74	0.624
2218.17	0.6218
2226.59	0.6165
2235.02	0.6098
2243.45	0.609
2251.87	0.6056
2260.3	0.601
2268.73	0.601
2277.15	0.601
2285.58	0.6
2294.01	0.6
2302.43	0.5973
2310.86	0.597
2319.29	0.597
2327.72	0.597
2336.14	0.5943
2344.57	0.586
2353	0.585
2361.42	0.583
2369.85	0.583
2378.28	0.582
2386.7	0.582
2395.13	0.5825
2403.56	0.582
2411.99	0.58
2420.41	0.5768
2428.84	0.5735
2437.27	0.573
2445.69	0.573
2454.12	0.571
2462.55	0.571
2470.97	0.571
2479.4	0.573
2487.83	0.573
2496.26	0.572
2504.68	0.5658
2513.11	0.561
2521.54	0.559
2529.96	0.559
2538.39	0.559
2546.82	0.559
2555.24	0.5558
2563.67	0.5525
2572.1	0.55
2580.52	0.549
2588.95	0.5455
2597.38	0.5435
2605.81	0.5415
2614.23	0.541
2622.66	0.5378
2631.09	0.536
2639.51	0.5343
2647.94	0.534
2656.37	0.532
2664.79	0.532
2673.22	0.534
2681.65	0.531
2690.08	0.5228
2698.5	0.5195
2706.93	0.517
2715.36	0.517
2723.78	0.5168
2732.21	0.515
2740.64	0.513
2749.06	0.511
2757.49	0.504
2765.92	0.5015
2774.34	0.5
2782.77	0.5
2791.2	0.5
2799.63	0.499
2808.05	0.498
2816.48	0.498
2824.91	0.4965
2833.33	0.492
2841.76	0.4913
2850.19	0.485
2858.61	0.4815
2867.04	0.4795
2875.47	0.479
2883.9	0.479
2892.32	0.479
2900.75	0.479
2909.18	0.479
2917.6	0.479
2926.03	0.477
2934.46	0.4765
2942.88	0.4723
2951.31	0.467
2959.74	0.465
2968.17	0.4645
2976.59	0.462
2985.02	0.456
2993.45	0.4515
3001.87	0.4425
3010.3	0.4373
3018.73	0.435
3027.15	0.4305
3035.58	0.424
3044.01	0.42
3052.43	0.419
3060.86	0.419
3069.29	0.42
3077.72	0.4215
3086.14	0.429
3094.57	0.4377
3103	0.443
3111.42	0.443
3119.85	0.44
3128.28	0.4363
3136.7	0.4315
3145.13	0.4295
3153.56	0.426
3161.99	0.425
3170.41	0.425
3178.84	0.4257
3187.27	0.426
3195.69	0.425
3204.12	0.423
3212.55	0.4205
3220.97	0.419
3229.4	0.414
3237.83	0.412
3246.26	0.4103
3254.68	0.408
3263.11	0.4065
3271.54	0.404
3279.96	0.4013
3288.39	0.399
3296.82	0.396
3305.24	0.394
3313.67	0.3868
3322.1	0.381
3330.52	0.377
3338.95	0.374
3347.38	0.372
3355.81	0.372
3364.23	0.372
3372.66	0.372
3381.09	0.372
3389.51	0.372
3397.94	0.3688
3406.37	0.366
3414.79	0.366
3423.22	0.366
3431.65	0.3665
3440.08	0.369
3448.5	0.369
3456.93	0.369
3465.36	0.3695
3473.78	0.373
3482.21	0.3802
3490.64	0.383
3499.06	0.3863
3507.49	0.389
3515.92	0.39
3524.35	0.39
3532.77	0.3952
3541.2	0.399
3549.63	0.401
3558.05	0.404
3566.48	0.4115
3574.91	0.4135
3583.33	0.414
3591.76	0.422
3600.19	0.4295
3608.61	0.432
3617.04	0.432
3625.47	0.432
3633.9	0.4342
3642.32	0.4375
3650.75	0.44
3659.18	0.441
3667.6	0.441
3676.03	0.441
3684.46	0.441
3692.88	0.441
3701.31	0.441
3709.74	0.44
3718.17	0.44
3726.59	0.438
3735.02	0.438
3743.45	0.438
3751.87	0.438
3760.3	0.44
3768.73	0.441
3777.15	0.441
3785.58	0.443
3794.01	0.443
3802.44	0.4395
3810.86	0.435
3819.29	0.435
3827.72	0.434
3836.14	0.432
3844.57	0.4315
3853	0.4283
3861.42	0.428
3869.85	0.4275
3878.28	0.4255
3886.7	0.4205
3895.13	0.42
3903.56	0.419
3911.99	0.419
3920.41	0.419
3928.84	0.419
3937.27	0.419
3945.69	0.419
3954.12	0.419
3962.55	0.416
3970.97	0.416
3979.4	0.416
3987.83	0.416
