Infrared Spectrum: BICYCLO[2.2.2]OCT-2-ENE
Formula: C8 H12
CAS: 931-64-6
State: SOLUTION (10% WT/VOL IN CCl4 FOR 4000-1570, 10% WT/VOL IN CS2 FOR 1570-450 CM^-^1) VS. SOLVENT
Class: COBLENTZ III
Instrument: CARY 90 (GRATING)
Instrument parameters: GRATING CHANGES AT 3000, 2000, 1200 CM^-^1
Sampling: TRANSMISSION
Path length: 0.010, 0.011 CM
Resolution: 4
Origin: WESTERN REGIONAL RES. USDA
1/CM	TRANSMITTANCE
452.918	0.543
461.997	0.561
471.076	0.583
480.155	0.604
489.235	0.622
498.314	0.639
507.393	0.653
516.472	0.667
525.551	0.682
534.63	0.696
543.709	0.706
552.789	0.716
561.868	0.725
570.947	0.735
580.026	0.746
589.105	0.764
598.184	0.778
607.263	0.786
616.342	0.797
625.422	0.802
634.501	0.805
643.58	0.819
652.659	0.821
661.738	0.807
670.817	0.785
679.896	0.711
688.976	0.168
698.055	0.197
707.134	0.455
716.213	0.666
725.292	0.781
734.371	0.809
743.45	0.82
752.53	0.845
761.609	0.853
770.688	0.85
779.767	0.853
788.846	0.84
797.925	0.676
807.004	0.632
816.084	0.829
825.163	0.828
834.242	0.762
843.321	0.867
852.4	0.868
861.479	0.759
870.558	0.507
879.637	0.835
888.717	0.871
897.796	0.87
906.875	0.87
915.954	0.862
925.033	0.847
934.112	0.84
943.191	0.724
952.271	0.807
961.35	0.779
970.429	0.867
979.508	0.872
988.587	0.873
997.666	0.873
1006.75	0.862
1015.82	0.789
1024.9	0.863
1033.98	0.85
1043.06	0.769
1052.14	0.854
1061.22	0.871
1070.3	0.87
1079.38	0.868
1088.46	0.855
1097.54	0.757
1106.62	0.837
1115.7	0.821
1124.77	0.813
1133.85	0.811
1142.93	0.832
1152.01	0.816
1161.09	0.6399
1170.17	0.774
1179.25	0.696
1188.33	0.81
1197.41	0.837
1206.49	0.833
1215.57	0.824
1224.64	0.784
1233.72	0.814
1242.8	0.833
1251.88	0.835
1260.96	0.837
1270.04	0.83
1279.12	0.844
1288.2	0.847
1297.28	0.845
1306.36	0.842
1315.44	0.801
1324.52	0.792
1333.59	0.807
1342.67	0.845
1351.75	0.837
1360.83	0.847
1369.91	0.6239
1378.99	0.803
1388.07	0.842
1397.15	0.857
1406.23	0.866
1415.31	0.865
1424.39	0.859
1433.46	0.839
1442.54	0.803
1451.62	0.595
1460.7	0.771
1469.78	0.7
1478.86	0.841
1487.94	0.857
1497.02	0.864
1506.1	0.871
1515.18	0.875
1524.26	0.879
1533.34	0.879
1542.41	0.871
1551.49	0.868
1560.57	0.879
1569.65	0.88
1578.73	0.876
1587.81	0.872
1596.89	0.876
1605.97	0.837
1615.05	0.7049
1624.13	0.8
1633.21	0.829
1642.29	0.85
1651.36	0.879
1660.44	0.891
1669.52	0.897
1678.6	0.898
1687.68	0.899
1696.76	0.902
1705.84	0.903
1714.92	0.899
1724	0.892
1733.08	0.897
1742.16	0.898
1751.23	0.899
1760.31	0.899
1769.39	0.902
1778.47	0.906
1787.55	0.901
1796.63	0.9
1805.71	0.902
1814.79	0.906
1823.87	0.907
1832.95	0.908
1842.03	0.906
1851.11	0.905
1860.18	0.901
1869.26	0.905
1878.34	0.905
1887.42	0.906
1896.5	0.906
1905.58	0.909
1914.66	0.909
1923.74	0.91
1932.82	0.91
1941.9	0.91
1950.98	0.91
1960.05	0.909
1969.13	0.907
1978.21	0.906
1987.29	0.903
1996.37	0.901
2005.45	0.899
2014.53	0.898
2023.61	0.898
2032.69	0.899
2041.77	0.8999
2050.85	0.9
2059.93	0.9
2069	0.8981
2078.08	0.897
2087.16	0.8989
2096.24	0.9002
2105.32	0.896
2114.4	0.893
2123.48	0.897
2132.56	0.9
2141.64	0.901
2150.72	0.9
2159.8	0.9007
2168.88	0.902
2177.95	0.905
2187.03	0.905
2196.11	0.905
2205.19	0.905
2214.27	0.902
2223.35	0.902
2232.43	0.901
2241.51	0.9
2250.59	0.899
2259.67	0.898
2268.75	0.897
2277.82	0.897
2286.9	0.897
2295.98	0.897
2305.06	0.898
2314.14	0.898
2323.22	0.899
2332.3	0.8995
2341.38	0.9
2350.46	0.9
2359.54	0.901
2368.62	0.9024
2377.7	0.903
2386.77	0.905
2395.85	0.905
2404.93	0.905
2414.01	0.905
2423.09	0.9027
2432.17	0.901
2441.25	0.8997
2450.33	0.898
2459.41	0.8993
2468.49	0.902
2477.57	0.902
2486.64	0.902
2495.72	0.901
2504.8	0.9
2513.88	0.9
2522.96	0.901
2532.04	0.902
2541.12	0.903
2550.2	0.9029
2559.28	0.901
2568.36	0.899
2577.44	0.8969
2586.52	0.896
2595.59	0.8981
2604.67	0.8999
2613.75	0.8919
2622.83	0.856
2631.91	0.882
2640.99	0.888
2650.07	0.89
2659.15	0.89
2668.23	0.888
2677.31	0.885
2686.39	0.9019
2695.46	0.9069
2704.54	0.8992
2713.62	0.8694
2722.7	0.8839
2731.78	0.8939
2740.86	0.897
2749.94	0.897
2759.02	0.893
2768.1	0.8882
2777.18	0.8768
2786.26	0.8654
2795.34	0.8514
2804.41	0.8503
2813.49	0.8553
2822.57	0.8426
2831.65	0.7887
2840.73	0.676
2849.81	0.3823
2858.89	0.0627
2867.97	0.1306
2877.05	0.438
2886.13	0.3592
2895.21	0.3625
2904.29	0.1213
2913.36	0.1368
2922.44	0.054
2931.52	0.0105
2940.6	0
2949.68	0.0036
2958.76	0.1142
2967.84	0.2522
2976.92	0.4731
2986	0.6524
2995.08	0.7331
3004.16	0.7632
3013.23	0.7696
3022.31	0.7299
3031.39	0.5718
3040.47	0.2406
3049.55	0.4159
3058.63	0.6769
3067.71	0.7731
3076.79	0.8237
3085.87	0.8526
3094.95	0.8709
3104.03	0.8852
3113.11	0.8963
3122.18	0.9013
3131.26	0.9053
3140.34	0.9068
3149.42	0.902
3158.5	0.9012
3167.58	0.902
3176.66	0.905
3185.74	0.903
3194.82	0.9009
3203.9	0.8957
3212.98	0.8825
3222.05	0.8797
3231.13	0.8922
3240.21	0.898
3249.29	0.9011
3258.37	0.907
3267.45	0.908
3276.53	0.907
3285.61	0.905
3294.69	0.902
3303.77	0.901
3312.85	0.899
3321.93	0.9
3331	0.902
3340.08	0.903
3349.16	0.9059
3358.24	0.906
3367.32	0.906
3376.4	0.906
3385.48	0.906
3394.56	0.907
3403.64	0.908
3412.72	0.9098
3421.8	0.9118
3430.88	0.9148
3439.95	0.916
3449.03	0.916
3458.11	0.916
3467.19	0.916
3476.27	0.915
3485.35	0.914
3494.43	0.912
3503.51	0.911
3512.59	0.909
3521.67	0.908
3530.75	0.9064
3539.82	0.905
3548.9	0.905
3557.98	0.903
3567.06	0.903
3576.14	0.903
3585.22	0.903
3594.3	0.903
3603.38	0.903
3612.46	0.902
3621.54	0.902
3630.62	0.902
3639.7	0.902
3648.77	0.903
3657.85	0.905
3666.93	0.905
3676.01	0.9042
3685.09	0.9026
3694.17	0.9016
3703.25	0.9
3712.33	0.9
3721.41	0.899
3730.49	0.898
3739.57	0.898
3748.64	0.898
3757.72	0.899
3766.8	0.899
3775.88	0.899
3784.96	0.899
3794.04	0.899
3803.12	0.901
3812.2	0.903
3821.28	0.906
3830.36	0.9072
3839.44	0.909
3848.52	0.909
3857.59	0.909
3866.67	0.908
3875.75	0.908
3884.83	0.907
3893.91	0.9059
3902.99	0.903
3912.07	0.901
3921.15	0.899
3930.23	0.899
3939.31	0.899
3948.39	0.899
3957.47	0.898
3966.54	0.897
3975.62	0.896
3984.7	0.896
