Infrared Spectrum: BICYCLO[2.2.2]OCT-2-ENE
Formula: C8 H12
CAS: 931-64-6
State: SOLUTION (30% WT/VOL IN CCl4 FOR 4000-1590, 30% WT/VOL IN CS2 FOR 1590-450 CM^-^1) VS. SOLVENT
Class: COBLENTZ III
Instrument: CARY 90 (GRATING)
Instrument parameters: GRATING CHANGES AT 3000, 2000, 1200 CM^-^1
Sampling: TRANSMISSION
Path length: 0.010, 0.010 CM
Resolution: 4
Origin: WESTERN REGIONAL RES. USDA
1/CM	TRANSMITTANCE
459.365	0.713
468.438	0.729
477.512	0.759
486.585	0.782
495.658	0.797
504.731	0.812
513.805	0.823
522.878	0.834
531.951	0.845
541.024	0.857
550.098	0.867
559.171	0.877
568.244	0.883
577.317	0.889
586.391	0.903
595.464	0.91
604.537	0.915
613.61	0.915
622.684	0.912
631.757	0.896
640.83	0.908
649.903	0.908
658.977	0.878
668.05	0.834
677.123	0.733
686.196	0.311
695.27	0
704.343	0.185
713.416	0.3641
722.489	0.741
731.563	0.835
740.636	0.848
749.709	0.912
758.782	0.939
767.856	0.933
776.929	0.947
786.002	0.921
795.075	0.667
804.149	0.335
813.222	0.84
822.295	0.883
831.368	0.631
840.442	0.935
849.515	0.952
858.588	0.7839
867.661	0.093
876.735	0.791
885.808	0.935
894.881	0.952
903.954	0.95
913.028	0.938
922.101	0.9
931.174	0.872
940.247	0.785
949.321	0.715
958.394	0.634
967.467	0.904
976.54	0.932
985.614	0.93
994.687	0.926
1003.76	0.899
1012.83	0.768
1021.91	0.864
1030.98	0.858
1040.05	0.673
1049.13	0.821
1058.2	0.874
1067.27	0.879
1076.35	0.877
1085.42	0.857
1094.49	0.672
1103.57	0.797
1112.64	0.787
1121.71	0.759
1130.79	0.73
1139.86	0.788
1148.93	0.778
1158.01	0.671
1167.08	0.4761
1176.15	0.5329
1185.23	0.699
1194.3	0.843
1203.37	0.87
1212.45	0.868
1221.52	0.825
1230.59	0.738
1239.66	0.855
1248.74	0.874
1257.81	0.872
1266.88	0.86
1275.96	0.864
1285.03	0.882
1294.1	0.886
1303.18	0.875
1312.25	0.808
1321.32	0.728
1330.4	0.69
1339.47	0.838
1348.54	0.759
1357.62	0.87
1366.69	0.7619
1375.76	0.2271
1384.84	0.792
1393.91	0.852
1402.98	0.878
1412.06	0.882
1421.13	0.869
1430.2	0.844
1439.28	0.788
1448.35	0.4428
1457.42	0.3532
1466.5	0.4568
1475.57	0.767
1484.64	0.861
1493.72	0.886
1502.79	0.909
1511.86	0.924
1520.94	0.934
1530.01	0.949
1539.08	0.953
1548.16	0.942
1557.23	0.947
1566.3	0.96
1575.38	0.946
1584.45	0.933
1593.52	0.918
1602.59	0.8609
1611.67	0.7029
1620.74	0.5341
1629.81	0.761
1638.89	0.781
1647.96	0.875
1657.03	0.916
1666.11	0.912
1675.18	0.916
1684.25	0.929
1693.33	0.937
1702.4	0.951
1711.47	0.943
1720.55	0.916
1729.62	0.915
1738.69	0.93
1747.77	0.934
1756.84	0.942
1765.91	0.947
1774.99	0.952
1784.06	0.952
1793.13	0.945
1802.21	0.949
1811.28	0.954
1820.35	0.96
1829.43	0.956
1838.5	0.951
1847.57	0.947
1856.65	0.941
1865.72	0.944
1874.79	0.947
1883.87	0.946
1892.94	0.946
1902.01	0.951
1911.09	0.951
1920.16	0.953
1929.23	0.954
1938.31	0.953
1947.38	0.951
1956.45	0.949
1965.53	0.943
1974.6	0.943
1983.67	0.949
1992.74	0.955
2001.82	0.959
2010.89	0.96
2019.96	0.96
2029.04	0.96
2038.11	0.96
2047.18	0.959
2056.26	0.958
2065.33	0.9541
2074.4	0.9442
2083.48	0.9457
2092.55	0.961
2101.62	0.9376
2110.7	0.9214
2119.77	0.9389
2128.84	0.9467
2137.92	0.951
2146.99	0.951
2156.06	0.9502
2165.14	0.946
2174.21	0.9484
2183.28	0.9548
2192.36	0.958
2201.43	0.9552
2210.5	0.9512
2219.58	0.9438
2228.65	0.9485
2237.72	0.9443
2246.8	0.9325
2255.87	0.9003
2264.94	0.9313
2274.02	0.939
2283.09	0.9373
2292.16	0.935
2301.24	0.935
2310.31	0.935
2319.38	0.935
2328.46	0.926
2337.53	0.9218
2346.6	0.934
2355.68	0.9312
2364.75	0.9286
2373.82	0.9398
2382.89	0.9436
2391.97	0.945
2401.04	0.946
2410.11	0.946
2419.19	0.9444
2428.26	0.9399
2437.33	0.936
2446.41	0.931
2455.48	0.925
2464.55	0.9205
2473.63	0.9255
2482.7	0.928
2491.77	0.9245
2500.85	0.925
2509.92	0.927
2518.99	0.9188
2528.07	0.9064
2537.14	0.9188
2546.21	0.925
2555.29	0.9216
2564.36	0.9186
2573.43	0.9078
2582.51	0.8956
2591.58	0.892
2600.65	0.8809
2609.73	0.8961
2618.8	0.8849
2627.87	0.7969
2636.95	0.8882
2646.02	0.9011
2655.09	0.8655
2664.17	0.9093
2673.24	0.8812
2682.31	0.8815
2691.39	0.9165
2700.46	0.9225
2709.53	0.9165
2718.61	0.7949
2727.68	0.8657
2736.75	0.9108
2745.82	0.9056
2754.9	0.904
2763.97	0.9056
2773.04	0.8826
2782.12	0.8423
2791.19	0.8182
2800.26	0.7953
2809.34	0.813
2818.41	0.7859
2827.48	0.7084
2836.56	0.5929
2845.63	0.3646
2854.7	0.0806
2863.78	0.0029
2872.85	0.0055
2881.92	0.1438
2891	0.0643
2900.07	0.0307
2909.14	0.012
2918.22	0.007
2927.29	0
2936.36	0
2945.44	0
2954.51	0.002
2963.58	0.005
2972.66	0.0158
2981.73	0.1997
2990.8	0.4218
2999.88	0.5064
3008.95	0.5728
3018.02	0.5531
3027.1	0.4472
3036.17	0.2305
3045.24	0.0331
3054.32	0.1178
3063.39	0.4677
3072.46	0.6302
3081.54	0.7338
3090.61	0.785
3099.68	0.844
3108.76	0.8733
3117.83	0.8894
3126.9	0.9034
3135.97	0.9118
3145.05	0.9158
3154.12	0.9127
3163.19	0.9068
3172.27	0.9165
3181.34	0.916
3190.41	0.9177
3199.49	0.9106
3208.56	0.8797
3217.63	0.84
3226.71	0.8711
3235.78	0.8947
3244.85	0.9143
3253.93	0.9193
3263	0.9233
3272.07	0.9266
3281.15	0.9264
3290.22	0.9228
3299.29	0.9174
3308.37	0.9154
3317.44	0.9074
3326.51	0.9036
3335.59	0.9121
3344.66	0.9186
3353.73	0.9275
3362.81	0.933
3371.88	0.934
3380.95	0.932
3390.03	0.9265
3399.1	0.9255
3408.17	0.9295
3417.25	0.935
3426.32	0.936
3435.39	0.937
3444.47	0.937
3453.54	0.936
3462.61	0.935
3471.69	0.9336
3480.76	0.93
3489.83	0.928
3498.9	0.9264
3507.98	0.927
3517.05	0.926
3526.12	0.924
3535.2	0.919
3544.27	0.9167
3553.34	0.917
3562.42	0.9183
3571.49	0.921
3580.56	0.9243
3589.64	0.925
3598.71	0.924
3607.78	0.9197
3616.86	0.9177
3625.93	0.917
3635	0.92
3644.08	0.922
3653.15	0.921
3662.22	0.92
3671.3	0.919
3680.37	0.917
3689.44	0.916
3698.52	0.9128
3707.59	0.9087
3716.66	0.9018
3725.74	0.899
3734.81	0.9001
3743.88	0.9043
3752.96	0.9101
3762.03	0.9132
3771.1	0.916
3780.18	0.917
3789.25	0.9171
3798.32	0.92
3807.4	0.922
3816.47	0.9251
3825.54	0.927
3834.62	0.928
3843.69	0.928
3852.76	0.925
3861.84	0.922
3870.91	0.918
3879.98	0.916
3889.05	0.912
3898.13	0.907
3907.2	0.9001
3916.27	0.8901
3925.35	0.883
3934.42	0.8781
3943.49	0.877
3952.57	0.876
3961.64	0.877
3970.71	0.877
3979.79	0.8789
3988.86	0.881
