Infrared Spectrum: BICYCLO[2.2.2]OCT-2-ENE
Formula: C8 H12
CAS: 931-64-6
State: GAS (6 TORR VS. EVACUATED CELL)
Class: COBLENTZ
Instrument: CARY 90 (GRATING)
Instrument parameters: GRATING CHANGES: 3000, 2000, 1200 CM^-^1
Sampling: TRANSMISSION
Path length: 20 CM CELL
Resolution: 2
Origin: WESTERN REGIONAL RES. USDA
1/CM	TRANSMITTANCE
452.505	0.913
461.623	0.914
470.742	0.914
479.86	0.914
488.978	0.916
498.096	0.916
507.215	0.916
516.333	0.916
525.451	0.916
534.57	0.916
543.688	0.916
552.806	0.918
561.924	0.919
571.043	0.919
580.161	0.921
589.279	0.922
598.397	0.922
607.516	0.922
616.634	0.921
625.752	0.921
634.871	0.919
643.989	0.919
653.107	0.919
662.225	0.916
671.344	0.893
680.462	0.7541
689.58	0.639
698.699	0.6205
707.817	0.6549
716.935	0.801
726.053	0.896
735.172	0.906
744.29	0.909
753.408	0.916
762.527	0.916
771.645	0.914
780.763	0.911
789.881	0.888
799	0.839
808.118	0.862
817.236	0.89
826.355	0.906
835.473	0.909
844.591	0.906
853.709	0.881
862.828	0.85
871.946	0.844
881.064	0.8629
890.182	0.906
899.301	0.911
908.419	0.909
917.537	0.911
926.656	0.909
935.774	0.895
944.892	0.875
954.01	0.88
963.129	0.898
972.247	0.906
981.365	0.911
990.484	0.914
999.602	0.911
1008.72	0.901
1017.84	0.891
1026.96	0.89
1036.07	0.893
1045.19	0.888
1054.31	0.895
1063.43	0.908
1072.55	0.913
1081.67	0.911
1090.78	0.909
1099.9	0.896
1109.02	0.906
1118.14	0.913
1127.26	0.919
1136.38	0.918
1145.49	0.911
1154.61	0.888
1163.73	0.85
1172.85	0.867
1181.97	0.852
1191.09	0.885
1200.2	0.908
1209.32	0.921
1218.44	0.914
1227.56	0.903
1236.68	0.913
1245.8	0.921
1254.91	0.922
1264.03	0.922
1273.15	0.922
1282.27	0.919
1291.39	0.922
1300.51	0.921
1309.62	0.914
1318.74	0.911
1327.86	0.909
1336.98	0.906
1346.1	0.914
1355.21	0.919
1364.33	0.909
1373.45	0.888
1382.57	0.886
1391.69	0.893
1400.81	0.913
1409.92	0.919
1419.04	0.919
1428.16	0.919
1437.28	0.918
1446.4	0.865
1455.52	0.793
1464.63	0.8178
1473.75	0.788
1482.87	0.89
1491.99	0.916
1501.11	0.919
1510.23	0.919
1519.34	0.921
1528.46	0.921
1537.58	0.921
1546.7	0.921
1555.82	0.919
1564.94	0.919
1574.05	0.921
1583.17	0.924
1592.29	0.922
1601.41	0.918
1610.53	0.886
1619.64	0.867
1628.76	0.854
1637.88	0.8751
1647	0.908
1656.12	0.914
1665.24	0.921
1674.35	0.929
1683.47	0.922
1692.59	0.926
1701.71	0.926
1710.83	0.922
1719.95	0.919
1729.06	0.924
1738.18	0.927
1747.3	0.926
1756.42	0.919
1765.54	0.926
1774.66	0.921
1783.77	0.926
1792.89	0.927
1802.01	0.927
1811.13	0.921
1820.25	0.926
1829.37	0.921
1838.48	0.927
1847.6	0.921
1856.72	0.924
1865.84	0.916
1874.96	0.922
1884.08	0.918
1893.19	0.913
1902.31	0.918
1911.43	0.919
1920.55	0.914
1929.67	0.916
1938.78	0.921
1947.9	0.921
1957.02	0.921
1966.14	0.921
1975.26	0.914
1984.38	0.913
1993.49	0.918
2002.61	0.919
2011.73	0.919
2020.85	0.921
2029.97	0.921
2039.09	0.921
2048.2	0.921
2057.32	0.9198
2066.44	0.919
2075.56	0.921
2084.68	0.919
2093.8	0.919
2102.91	0.919
2112.03	0.918
2121.15	0.9187
2130.27	0.921
2139.39	0.921
2148.51	0.921
2157.62	0.9214
2166.74	0.9237
2175.86	0.926
2184.98	0.927
2194.1	0.9257
2203.21	0.924
2212.33	0.922
2221.45	0.922
2230.57	0.921
2239.69	0.9203
2248.81	0.918
2257.92	0.916
2267.04	0.916
2276.16	0.918
2285.28	0.918
2294.4	0.918
2303.52	0.918
2312.63	0.916
2321.75	0.914
2330.87	0.914
2339.99	0.914
2349.11	0.914
2358.23	0.914
2367.34	0.916
2376.46	0.916
2385.58	0.916
2394.7	0.918
2403.82	0.918
2412.94	0.918
2422.05	0.916
2431.17	0.916
2440.29	0.916
2449.41	0.916
2458.53	0.916
2467.64	0.916
2476.76	0.916
2485.88	0.916
2495	0.916
2504.12	0.916
2513.24	0.917
2522.35	0.918
2531.47	0.919
2540.59	0.919
2549.71	0.919
2558.83	0.919
2567.95	0.919
2577.06	0.9169
2586.18	0.916
2595.3	0.9136
2604.42	0.911
2613.54	0.9087
2622.66	0.9065
2631.77	0.906
2640.89	0.906
2650.01	0.908
2659.13	0.91
2668.25	0.9139
2677.37	0.913
2686.48	0.913
2695.6	0.9165
2704.72	0.918
2713.84	0.9158
2722.96	0.911
2732.08	0.908
2741.19	0.908
2750.31	0.909
2759.43	0.911
2768.55	0.911
2777.67	0.9088
2786.78	0.904
2795.9	0.901
2805.02	0.8905
2814.14	0.9004
2823.26	0.9067
2832.38	0.909
2841.49	0.9078
2850.61	0.8584
2859.73	0.5903
2868.85	0.3538
2877.97	0.1857
2887.09	0.3809
2896.2	0.6559
2905.32	0.5905
2914.44	0.5227
2923.56	0.4414
2932.68	0.2354
2941.8	0.1361
2950.91	0.021
2960.03	0.0012
2969.15	0.0804
2978.27	0.4896
2987.39	0.75
2996.51	0.8443
3005.62	0.8907
3014.74	0.901
3023.86	0.904
3032.98	0.8985
3042.1	0.7508
3051.21	0.5512
3060.33	0.201
3069.45	0.5737
3078.57	0.8072
3087.69	0.8903
3096.81	0.902
3105.92	0.9079
3115.04	0.909
3124.16	0.911
3133.28	0.911
3142.4	0.911
3151.52	0.909
3160.63	0.9099
3169.75	0.909
3178.87	0.909
3187.99	0.909
3197.11	0.909
3206.23	0.908
3215.34	0.9025
3224.46	0.8904
3233.58	0.9002
3242.7	0.908
3251.82	0.911
3260.94	0.9147
3270.05	0.918
3279.17	0.919
3288.29	0.9183
3297.41	0.918
3306.53	0.916
3315.65	0.914
3324.76	0.913
3333.88	0.911
3343	0.9116
3352.12	0.914
3361.24	0.916
3370.35	0.918
3379.47	0.9191
3388.59	0.922
3397.71	0.922
3406.83	0.922
3415.95	0.924
3425.06	0.924
3434.18	0.924
3443.3	0.924
3452.42	0.924
3461.54	0.924
3470.66	0.922
3479.77	0.9211
3488.89	0.921
3498.01	0.921
3507.13	0.919
3516.25	0.918
3525.37	0.9159
3534.48	0.913
3543.6	0.9159
3552.72	0.916
3561.84	0.918
3570.96	0.919
3580.08	0.9196
3589.19	0.918
3598.31	0.916
3607.43	0.914
3616.55	0.914
3625.67	0.9157
3634.78	0.918
3643.9	0.919
3653.02	0.919
3662.14	0.921
3671.26	0.921
3680.38	0.922
3689.49	0.922
3698.61	0.921
3707.73	0.9194
3716.85	0.918
3725.97	0.916
3735.09	0.9139
3744.2	0.913
3753.32	0.916
3762.44	0.919
3771.56	0.919
3780.68	0.921
3789.8	0.921
3798.91	0.9212
3808.03	0.922
3817.15	0.922
3826.27	0.922
3835.39	0.922
3844.51	0.922
3853.62	0.922
3862.74	0.921
3871.86	0.921
3880.98	0.919
3890.1	0.918
3899.22	0.918
3908.33	0.9171
3917.45	0.916
3926.57	0.914
3935.69	0.913
3944.81	0.909
3953.92	0.909
3963.04	0.909
3972.16	0.909
3981.28	0.911
