Infrared Spectrum: Benzofuranone, 2(3H)-, 3-(3-bromopropyl)-3-phenyl-,
Formula: C17 H15 Br O2
CAS: 93323-03-6
State: SOLUTION 7% (CHCl3 FOR 2-15 microns)
Class: COBLENTZ
Instrument: PERKIN-ELMER 21 (GRATING)
Instrument parameters: FILTER AT ABOUT 10 MICRONS
Path length: 0.01 CM
Resolution: 2
Origin: ABBOTT LABORATORIES
1/CM	TRANSMITTANCE
797	0.8798
806	0.8948
815	0.917
824	0.9245
833	0.9111
842	0.9193
851	0.9053
860	0.8629
869	0.7151
878	0.8157
887	0.7845
896	0.7827
905	0.7324
914	0.67
923	0.7947
932	0.7854
941	0.8606
950	0.9151
959	0.9132
968	0.9046
977	0.8658
986	0.7872
995	0.724
1004	0.7674
1013	0.632
1022	0.473
1031	0.4803
1040	0.3996
1049	0.4076
1058	0.3513
1067	0.4222
1076	0.5698
1085	0.7394
1094	0.8575
1103	0.8526
1112	0.7969
1121	0.4673
1130	0.658
1139	0.7889
1148	0.7454
1157	0.7523
1166	0.7851
1175	0.7843
1184	0.7691
1193	0.7086
1202	0.6366
1211	0.5658
1220	0.5026
1229	0.5158
1238	0.7004
1247	0.743
1256	0.7446
1265	0.8085
1274	0.779
1283	0.6367
1292	0.7223
1301	0.7947
1310	0.7985
1319	0.7959
1328	0.8255
1337	0.8998
1346	0.9033
1355	0.9017
1364	0.8993
1373	0.9002
1382	0.9035
1391	0.9028
1400	0.8982
1409	0.8829
1418	0.8653
1427	0.805
1436	0.7021
1445	0.6555
1454	0.504
1463	0.2452
1472	0.564
1481	0.5323
1490	0.7015
1499	0.7041
1508	0.88
1517	0.9152
1526	0.9347
1535	0.948
1544	0.9565
1553	0.9622
1562	0.9649
1571	0.9667
1580	0.9668
1589	0.9668
1598	0.9688
1607	0.9715
1616	0.9731
1625	0.9744
1634	0.9745
1643	0.9746
1652	0.9747
1661	0.9752
1670	0.976
1679	0.9769
1688	0.9776
1697	0.9785
1706	0.9793
1715	0.9797
1724	0.9801
1733	0.9806
1742	0.981
1751	0.9815
1760	0.982
1769	0.9819
1778	0.9815
1787	0.981
1796	0.9805
1805	0.9802
1814	0.9801
1823	0.9802
1832	0.9803
1841	0.9804
1850	0.9805
1859	0.9806
1868	0.9807
1877	0.9804
1886	0.9801
1895	0.9797
1904	0.9794
1913	0.979
1922	0.9787
1931	0.9784
1940	0.978
1949	0.9776
1958	0.9772
1967	0.9768
1976	0.9765
1985	0.9761
1994	0.977
2003	0.978
2012	0.979
2021	0.98
2030	0.9809
2039	0.9816
2048	0.9823
2057	0.983
2066	0.9836
2075	0.9842
2084	0.9838
2093	0.9835
2102	0.9831
2111	0.9827
2120	0.9823
2129	0.9819
2138	0.9816
2147	0.9814
2156	0.9814
2165	0.9813
2174	0.9813
2183	0.9812
2192	0.9812
2201	0.9811
2210	0.981
2219	0.9806
2228	0.9802
2237	0.9798
2246	0.9794
2255	0.979
2264	0.9787
2273	0.9773
2282	0.9756
2291	0.9738
2300	0.9721
2309	0.9704
2318	0.9667
2327	0.963
2336	0.9613
2345	0.9599
2354	0.9584
2363	0.9568
2372	0.955
2381	0.9532
2390	0.9515
2399	0.9497
2408	0.9566
2417	0.9669
2426	0.9702
2435	0.9718
2444	0.9733
2453	0.9741
2462	0.9747
2471	0.9752
2480	0.9753
2489	0.9752
2498	0.975
2507	0.9748
2516	0.9742
2525	0.9737
2534	0.9732
2543	0.9725
2552	0.9712
2561	0.97
2570	0.9688
2579	0.9681
2588	0.9675
2597	0.967
2606	0.9665
2615	0.966
2624	0.9654
2633	0.9649
2642	0.9644
2651	0.9639
2660	0.9633
2669	0.9629
2678	0.9624
2687	0.9618
2696	0.9614
2705	0.9609
2714	0.9604
2723	0.9599
2732	0.9595
2741	0.9586
2750	0.9566
2759	0.9544
2768	0.9511
2777	0.9479
2786	0.9437
2795	0.9396
2804	0.9353
2813	0.9296
2822	0.9236
2831	0.9178
2840	0.9097
2849	0.9018
2858	0.8993
2867	0.9
2876	0.9003
2885	0.8961
2894	0.8835
2903	0.8746
2912	0.8623
2921	0.853
2930	0.8457
2939	0.8408
2948	0.8377
2957	0.8357
2966	0.8359
2975	0.8394
2984	0.8395
2993	0.8323
3002	0.8181
3011	0.8114
3020	0.8087
3029	0.8085
3038	0.8103
3047	0.8135
3056	0.8253
3065	0.844
3074	0.8628
3083	0.8761
3092	0.889
3101	0.8996
3110	0.9098
3119	0.9188
3128	0.9229
3137	0.9261
3146	0.9281
3155	0.9297
3164	0.9308
3173	0.9313
3182	0.9317
3191	0.9318
3200	0.932
3209	0.9314
3218	0.93
3227	0.9285
3236	0.9275
3245	0.9266
3254	0.9257
3263	0.9254
3272	0.9252
3281	0.9249
3290	0.9251
3299	0.9253
3308	0.9255
3317	0.926
3326	0.9272
3335	0.9283
3344	0.9294
3353	0.9305
3362	0.9318
3371	0.9332
3380	0.9346
3389	0.936
3398	0.9374
3407	0.939
3416	0.9407
3425	0.9423
3434	0.9431
3443	0.9433
3452	0.9434
3461	0.9427
3470	0.9415
3479	0.9404
3488	0.9393
3497	0.9381
3506	0.9369
3515	0.9357
3524	0.9345
3533	0.9333
3542	0.9321
3551	0.9317
3560	0.9318
3569	0.9319
3578	0.9322
3587	0.9338
3596	0.9355
3605	0.9378
3614	0.9406
3623	0.9434
3632	0.9452
3641	0.9467
3650	0.9477
3659	0.9484
3668	0.949
3677	0.9495
3686	0.9492
3695	0.9489
3704	0.9489
3713	0.9489
3722	0.9488
3731	0.9487
3740	0.9486
3749	0.9484
3758	0.9482
3767	0.948
3776	0.9479
3785	0.9476
3794	0.9473
3803	0.9472
3812	0.9469
3821	0.9467
3830	0.9465
3839	0.9463
3848	0.946
3857	0.9458
3866	0.9456
3875	0.9454
3884	0.9451
3893	0.9449
3902	0.9447
3911	0.9444
3920	0.9442
3929	0.9437
3938	0.9432
3947	0.9426
3956	0.9421
3965	0.9416
3974	0.9411
3983	0.9406
3992	0.9401
