Infrared Spectrum: PROPANOIC ACID, 2-(2,4,5-TRICHLOROPHENOXY)-
Formula: C9 H7 Cl3 O3
CAS: 93-72-1
State: SOLID (KBr DISC)
Melting point: 180 C
Class: COBLENTZ III
Instrument: PERKIN-ELMER 283
Sampling: TRANSMISSION
Resolution: 4
Origin: DOW CHEMICAL COMPANY
1/CM	TRANSMITTANCE
403.707	0.625
412.732	0.6959
421.757	0.744
430.782	0.774
439.807	0.722
448.832	0.863
457.857	0.888
466.882	0.888
475.907	0.91
484.932	0.937
493.957	0.97
502.982	0.978
512.007	0.984
521.032	0.993
530.057	0.998
539.082	0.992
548.107	0.9202
557.132	0.9919
566.157	1.004
575.182	1.001
584.207	1
593.232	0.981
602.257	0.932
611.282	0.938
620.307	0.942
629.332	0.938
638.357	0.938
647.382	0.927
656.407	0.888
665.432	0.748
674.457	0.824
683.482	0.7297
692.507	0.93
701.532	0.956
710.557	0.95
719.582	0.928
728.607	0.8611
737.632	0.842
746.657	0.686
755.682	0.772
764.707	0.92
773.732	0.936
782.757	0.933
791.782	0.94
800.807	0.931
809.832	0.931
818.857	0.89
827.882	0.667
836.907	0.868
845.932	0.925
854.957	0.921
863.982	0.8641
873.007	0.5073
882.032	0.842
891.057	0.791
900.082	0.718
909.107	0.67
918.132	0.6999
927.157	0.79
936.182	0.833
945.207	0.877
954.232	0.88
963.257	0.802
972.282	0.881
981.307	0.921
990.332	0.916
999.357	0.916
1008.38	0.907
1017.41	0.894
1026.43	0.877
1035.46	0.831
1044.48	0.6951
1053.51	0.7599
1062.53	0.811
1071.56	0.74
1080.58	0.3842
1089.61	0.6881
1098.63	0.4861
1107.66	0.5639
1116.68	0.738
1125.71	0.5739
1134.73	0.3111
1143.76	0.43
1152.78	0.857
1161.81	0.881
1170.83	0.894
1179.86	0.893
1188.88	0.874
1197.91	0.857
1206.93	0.803
1215.96	0.73
1224.98	0.6351
1234.01	0.3711
1243.03	0.153
1252.06	0.565
1261.08	0.777
1270.11	0.812
1279.13	0.6751
1288.16	0.562
1297.18	0.817
1306.21	0.804
1315.23	0.806
1324.26	0.853
1333.28	0.79
1342.31	0.664
1351.33	0.66
1360.36	0.5399
1369.38	0.83
1378.41	0.86
1387.43	0.887
1396.46	0.883
1405.48	0.845
1414.51	0.768
1423.53	0.788
1432.56	0.78
1441.58	0.6459
1450.61	0.5498
1459.63	0.535
1468.66	0.388
1477.68	0.353
1486.71	0.6711
1495.73	0.7729
1504.76	0.863
1513.78	0.888
1522.81	0.892
1531.83	0.898
1540.86	0.9
1549.88	0.881
1558.91	0.862
1567.93	0.851
1576.96	0.783
1585.98	0.678
1595.01	0.84
1604.03	0.865
1613.06	0.865
1622.08	0.863
1631.11	0.862
1640.13	0.862
1649.16	0.861
1658.18	0.863
1667.21	0.858
1676.23	0.843
1685.26	0.823
1694.28	0.748
1703.31	0.581
1712.33	0.651
1721.36	0.608
1730.38	0.4211
1739.41	0.284
1748.43	0.3621
1757.46	0.7011
1766.48	0.8
1775.51	0.843
1784.53	0.86
1793.56	0.867
1802.58	0.87
1811.61	0.873
1820.63	0.882
1829.66	0.891
1838.68	0.898
1847.71	0.9
1856.73	0.9
1865.76	0.9
1874.78	0.902
1883.81	0.903
1892.83	0.903
1901.86	0.905
1910.88	0.908
1919.91	0.906
1928.93	0.908
1937.96	0.906
1946.98	0.907
1956.01	0.906
1965.03	0.904
1974.06	0.904
1983.08	0.906
1992.11	0.9
2001.13	0.8805
2010.16	0.8855
2019.18	0.886
2028.21	0.881
2037.23	0.8845
2046.26	0.8875
2055.28	0.888
2064.31	0.8875
2073.33	0.885
2082.36	0.8906
2091.38	0.892
2100.41	0.8877
2109.43	0.885
2118.46	0.8856
2127.48	0.885
2136.51	0.8824
2145.53	0.88
2154.56	0.882
2163.58	0.8804
2172.61	0.878
2181.63	0.8776
2190.66	0.8816
2199.68	0.882
2208.71	0.884
2217.73	0.8823
2226.76	0.88
2235.78	0.878
2244.81	0.878
2253.83	0.8709
2262.86	0.867
2271.88	0.867
2280.91	0.8663
2289.93	0.865
2298.96	0.8635
2307.98	0.8603
2317.01	0.857
2326.03	0.8542
2335.06	0.8522
2344.08	0.8502
2353.11	0.8442
2362.13	0.842
2371.16	0.841
2380.18	0.8352
2389.21	0.8332
2398.23	0.8264
2407.26	0.824
2416.28	0.8202
2425.31	0.818
2434.33	0.8083
2443.36	0.8002
2452.38	0.788
2461.41	0.7937
2470.43	0.7901
2479.46	0.7824
2488.48	0.7782
2497.51	0.7751
2506.53	0.7655
2515.56	0.7503
2524.58	0.7302
2533.61	0.7237
2542.63	0.7349
2551.66	0.7341
2560.68	0.7278
2569.71	0.7399
2578.73	0.7322
2587.76	0.726
2596.78	0.723
2605.81	0.723
2614.83	0.724
2623.86	0.721
2632.88	0.721
2641.91	0.73
2650.93	0.734
2659.96	0.737
2668.98	0.731
2678.01	0.727
2687.03	0.726
2696.06	0.7219
2705.08	0.7098
2714.11	0.7051
2723.13	0.71
2732.16	0.7081
2741.18	0.7109
2750.21	0.7071
2759.23	0.71
2768.26	0.7028
2777.28	0.6918
2786.31	0.688
2795.33	0.6835
2804.36	0.6757
2813.38	0.6693
2822.41	0.6529
2831.43	0.648
2840.46	0.6408
2849.48	0.6327
2858.51	0.6268
2867.53	0.622
2876.56	0.621
2885.58	0.622
2894.61	0.623
2903.63	0.624
2912.66	0.624
2921.68	0.622
2930.71	0.6232
2939.73	0.623
2948.76	0.6222
2957.78	0.6257
2966.81	0.6335
2975.83	0.6373
2984.86	0.641
2993.88	0.641
3002.91	0.6423
3011.93	0.646
3020.96	0.648
3029.98	0.6477
3039.01	0.6467
3048.03	0.644
3057.06	0.647
3066.08	0.65
3075.11	0.6467
3084.13	0.6524
3093.16	0.6496
3102.18	0.6505
3111.21	0.6687
3120.23	0.678
3129.26	0.6846
3138.28	0.6974
3147.31	0.7032
3156.33	0.7114
3165.36	0.7222
3174.38	0.7274
3183.41	0.731
3192.43	0.7334
3201.46	0.7374
3210.48	0.7434
3219.51	0.7475
3228.53	0.751
3237.56	0.756
3246.58	0.757
3255.61	0.76
3264.63	0.761
3273.66	0.7655
3282.68	0.767
3291.71	0.768
3300.73	0.768
3309.76	0.7675
3318.78	0.766
3327.81	0.7655
3336.83	0.7635
3345.86	0.7583
3354.88	0.7534
3363.91	0.7489
3372.93	0.7404
3381.96	0.7322
3390.98	0.7254
3400.01	0.7214
3409.03	0.716
3418.06	0.715
3427.08	0.716
3436.11	0.716
3445.13	0.718
3454.16	0.7223
3463.18	0.7256
3472.21	0.728
3481.23	0.7327
3490.26	0.7393
3499.28	0.7407
3508.31	0.7461
3517.33	0.7527
3526.36	0.757
3535.38	0.7594
3544.41	0.764
3553.43	0.7707
3562.46	0.7772
3571.48	0.7817
3580.51	0.788
3589.53	0.7927
3598.56	0.798
3607.58	0.8063
3616.61	0.8103
3625.63	0.8158
3634.66	0.8168
3643.68	0.8196
3652.71	0.822
3661.73	0.8238
3670.76	0.825
3679.78	0.8252
3688.81	0.824
3697.83	0.825
3706.86	0.8258
3715.88	0.8252
3724.91	0.825
3733.93	0.8301
3742.96	0.826
3751.98	0.825
3761.01	0.826
3770.03	0.823
3779.06	0.823
3788.08	0.8211
3797.11	0.8219
3806.13	0.823
3815.16	0.8248
3824.18	0.827
3833.21	0.825
3842.23	0.8269
3851.26	0.826
3860.28	0.823
3869.31	0.822
3878.33	0.823
3887.36	0.822
3896.38	0.818
3905.41	0.817
3914.43	0.816
3923.46	0.817
3932.48	0.818
3941.51	0.821
3950.53	0.825
3959.56	0.83
3968.58	0.837
3977.61	0.8422
3986.63	0.8552
3995.66	0.8631
4004.68	0.8621
