Infrared Spectrum: BENZOIC ACID, ETHYL ESTER
Formula: C9 H10 O2
CAS: 93-89-0
State: SOLUTION (10% IN CCl4 FOR 3800-1300, 10% IN CS2 FOR 1300-650, 10% IN CCl4 FOR 650-230 CM^-^1) VERSUS SOLVENT
Class: COBLENTZ III
Instrument: PERKIN-ELMER 521 (GRATING)
Instrument parameters: FILTERS AT 3150, 2500, 2000, 1150, 700, 410; GRATING CHANGES AT 2000, 630 CM^-^1
Sampling: TRANSMISSION
Path length: 0.011, 0.010, AND 0.010 CM (CsBr CELL)
Resolution: 4
Origin: DOW CORNING CORP.
1/CM	TRANSMITTANCE
218.719	0.826
228.571	0.825
238.423	0.822
248.276	0.819
258.128	0.819
267.98	0.819
277.832	0.818
287.685	0.821
297.537	0.821
307.389	0.817
317.241	0.795
327.094	0.755
336.946	0.737
346.798	0.798
356.65	0.841
366.503	0.846
376.355	0.844
386.207	0.833
396.059	0.774
405.912	0.827
415.764	0.862
425.616	0.864
435.468	0.866
445.321	0.881
455.173	0.893
465.025	0.899
474.877	0.904
484.73	0.893
494.582	0.875
504.434	0.877
514.286	0.883
524.139	0.913
533.991	0.909
543.843	0.911
553.695	0.907
563.548	0.915
573.4	0.92
583.252	0.919
593.104	0.93
602.957	0.923
612.809	0.907
622.661	0.955
632.513	0.952
642.366	0.931
652.218	0.901
662.07	0.876
671.922	0.743
681.775	0.748
691.627	0.697
701.479	0.495
711.331	0.021
721.184	0.5521
731.036	0.834
740.888	0.887
750.74	0.884
760.593	0.911
770.445	0.903
780.297	0.836
790.149	0.895
800.002	0.895
809.854	0.895
819.706	0.897
829.558	0.922
839.411	0.896
849.263	0.731
859.115	0.885
868.967	0.834
878.82	0.827
888.672	0.971
898.524	1.025
908.376	1.032
918.229	1.028
928.081	0.961
937.933	0.974
947.785	1.013
957.638	1.009
967.49	0.967
977.342	0.973
987.194	0.935
997.047	0.844
1006.9	0.799
1016.75	0.696
1026.6	0.063
1036.46	0.8361
1046.31	0.938
1056.16	0.849
1066.01	0.3069
1075.86	0.755
1085.72	0.6099
1095.57	0.071
1105.42	0.017
1115.27	0.115
1125.13	0.3971
1134.98	0.712
1144.83	0.758
1154.68	0.654
1164.53	0.5518
1174.39	0.2522
1184.24	0.744
1194.09	0.819
1203.94	0.857
1213.8	0.864
1223.65	0.797
1233.5	0.5899
1243.35	0.141
1253.21	0.212
1263.06	0.005
1272.91	0.006
1282.76	0.108
1292.61	0.3791
1302.47	0.443
1312.32	0.38
1322.17	0.1868
1332.02	0.723
1341.88	0.755
1351.73	0.762
1361.58	0.6799
1371.43	0.2278
1381.28	0.674
1391.14	0.6079
1400.99	0.6451
1410.84	0.77
1420.69	0.766
1430.55	0.736
1440.4	0.599
1450.25	0.3999
1460.1	0.4482
1469.95	0.4661
1479.81	0.549
1489.66	0.698
1499.51	0.6661
1509.36	0.72
1519.22	0.684
1529.07	0.651
1538.92	0.599
1548.77	0.541
1558.62	0.54
1568.48	0.594
1578.33	0.615
1588.18	0.4358
1598.03	0.641
1607.89	0.325
1617.74	0.694
1627.59	0.793
1637.44	0.803
1647.3	0.784
1657.15	0.783
1667	0.775
1676.85	0.715
1686.7	0.62
1696.56	0.565
1706.41	0.3949
1716.26	0.026
1726.11	0
1735.97	0.018
1745.82	0.2231
1755.67	0.5631
1765.52	0.724
1775.37	0.741
1785.23	0.728
1795.08	0.798
1804.93	0.818
1814.78	0.817
1824.64	0.783
1834.49	0.845
1844.34	0.868
1854.19	0.877
1864.04	0.88
1873.9	0.872
1883.75	0.862
1893.6	0.856
1903.45	0.849
1913.31	0.806
1923.16	0.83
1933.01	0.854
1942.86	0.854
1952.71	0.846
1962.57	0.805
1972.42	0.809
1982.27	0.83
1992.12	0.862
2001.98	0.889
2011.83	0.905
2021.68	0.905
2031.53	0.9069
2041.38	0.905
2051.24	0.903
2061.09	0.9029
2070.94	0.9069
2080.79	0.9071
2090.65	0.9001
2100.5	0.8951
2110.35	0.893
2120.2	0.8854
2130.06	0.881
2139.91	0.8925
2149.76	0.9027
2159.61	0.904
2169.46	0.904
2179.32	0.9049
2189.17	0.9042
2199.02	0.9032
2208.87	0.8962
2218.73	0.893
2228.58	0.892
2238.43	0.8918
2248.28	0.888
2258.13	0.8918
2267.99	0.892
2277.84	0.892
2287.69	0.8912
2297.54	0.891
2307.4	0.8917
2317.25	0.892
2327.1	0.892
2336.95	0.892
2346.8	0.891
2356.66	0.892
2366.51	0.891
2376.36	0.8883
2386.21	0.883
2396.07	0.884
2405.92	0.8917
2415.77	0.892
2425.62	0.893
2435.47	0.893
2445.33	0.892
2455.18	0.892
2465.03	0.8902
2474.88	0.893
2484.74	0.891
2494.59	0.8898
2504.44	0.8914
2514.29	0.889
2524.15	0.888
2534	0.887
2543.85	0.889
2553.7	0.885
2563.55	0.887
2573.41	0.887
2583.26	0.885
2593.11	0.8875
2602.96	0.888
2612.82	0.888
2622.67	0.889
2632.52	0.892
2642.37	0.8925
2652.22	0.893
2662.08	0.895
2671.93	0.8939
2681.78	0.893
2691.63	0.892
2701.49	0.893
2711.34	0.8916
2721.19	0.889
2731.04	0.888
2740.89	0.8846
2750.75	0.8822
2760.6	0.8803
2770.45	0.873
2780.3	0.8803
2790.16	0.884
2800.01	0.8823
2809.86	0.8763
2819.71	0.8647
2829.56	0.8591
2839.42	0.8488
2849.27	0.842
2859.12	0.8387
2868.97	0.7908
2878.83	0.7334
2888.68	0.753
2898.53	0.7003
2908.38	0.592
2918.24	0.705
2928.09	0.7084
2937.94	0.6053
2947.79	0.5961
2957.64	0.5728
2967.5	0.5336
2977.35	0.4784
2987.2	0.2858
2997.05	0.3653
3006.91	0.5538
3016.76	0.6912
3026.61	0.7497
3036.46	0.6849
3046.31	0.7273
3056.17	0.7567
3066.02	0.611
3075.87	0.6427
3085.72	0.744
3095.58	0.7247
3105.43	0.8331
3115.28	0.8667
3125.13	0.883
3134.98	0.8831
3144.84	0.887
3154.69	0.883
3164.54	0.8749
3174.39	0.8791
3184.25	0.892
3194.1	0.893
3203.95	0.896
3213.8	0.897
3223.65	0.899
3233.51	0.899
3243.36	0.897
3253.21	0.897
3263.06	0.896
3272.92	0.895
3282.77	0.895
3292.62	0.893
3302.47	0.891
3312.33	0.8871
3322.18	0.8831
3332.03	0.8849
3341.88	0.8908
3351.73	0.889
3361.59	0.888
3371.44	0.8853
3381.29	0.884
3391.14	0.88
3401	0.8762
3410.85	0.8644
3420.7	0.8452
3430.55	0.8496
3440.4	0.8692
3450.26	0.8842
3460.11	0.891
3469.96	0.893
3479.81	0.8922
3489.67	0.893
3499.52	0.8912
3509.37	0.8927
3519.22	0.892
3529.07	0.889
3538.93	0.888
3548.78	0.8917
3558.63	0.8944
3568.48	0.896
3578.34	0.8997
3588.19	0.903
3598.04	0.904
3607.89	0.904
3617.74	0.9047
3627.6	0.9034
3637.45	0.901
3647.3	0.8994
3657.15	0.895
3667.01	0.897
3676.86	0.895
3686.71	0.8982
3696.56	0.9006
3706.41	0.904
3716.27	0.9061
3726.12	0.9086
3735.97	0.9116
3745.82	0.9115
3755.68	0.907
3765.53	0.907
3775.38	0.908
3785.23	0.911
