Infrared Spectrum: BENZOIC ANHYDRIDE
Formula: C14 H10 O3
CAS: 93-97-0
State: SOLID (NUJOL MULL)
Class: COBLENTZ III
Instrument: BECKMAN IR-7 (GRATING)
Instrument parameters: GRATING CHANGES AT 3000, 2200, 1150 CM^-^1
Sampling: TRANSMISSION
Resolution: 4
Origin: WESTERN REGIONAL RES. USDA
1/CM	TRANSMITTANCE
598.712	0.892
607.728	0.7451
616.743	0.4667
625.759	0.872
634.775	0.892
643.79	0.886
652.806	0.856
661.821	0.716
670.837	0.723
679.853	0.3921
688.868	0.5
697.884	0.1961
706.9	0.018
715.915	0.562
724.931	0.734
733.947	0.778
742.962	0.794
751.978	0.803
760.993	0.782
770.009	0.665
779.025	0.235
788.04	0.6987
797.056	0.726
806.072	0.746
815.087	0.806
824.103	0.827
833.119	0.826
842.134	0.815
851.15	0.773
860.166	0.743
869.181	0.703
878.197	0.757
887.212	0.795
896.228	0.776
905.244	0.729
914.259	0.677
923.275	0.639
932.291	0.5221
941.306	0.364
950.322	0.592
959.338	0.56
968.353	0.483
977.369	0.265
986.384	0.189
995.4	0.033
1004.42	0.152
1013.43	0.016
1022.45	0.2477
1031.46	0.017
1040.48	0.012
1049.49	0.057
1058.51	0.263
1067.53	0.323
1076.54	0.316
1085.56	0.4529
1094.57	0.597
1103.59	0.625
1112.6	0.707
1121.62	0.708
1130.63	0.713
1139.65	0.647
1148.67	0.651
1157.68	0.525
1166.7	0.081
1175.71	0.29
1184.73	0.598
1193.74	0.536
1202.76	0.0511
1211.78	0.01
1220.79	0.111
1229.81	0.249
1238.82	0.397
1247.84	0.456
1256.85	0.426
1265.87	0.492
1274.88	0.424
1283.9	0.27
1292.92	0.412
1301.93	0.52
1310.95	0.472
1319.96	0.451
1328.98	0.548
1337.99	0.662
1347.01	0.684
1356.03	0.748
1365.04	0.733
1374.06	0.66
1383.07	0.715
1392.09	0.755
1401.1	0.702
1410.12	0.698
1419.14	0.629
1428.15	0.63
1437.17	0.663
1446.18	0.224
1455.2	0.3931
1464.21	0.589
1473.23	0.712
1482.24	0.703
1491.26	0.686
1500.28	0.781
1509.29	0.776
1518.31	0.788
1527.32	0.783
1536.34	0.769
1545.35	0.757
1554.37	0.722
1563.39	0.719
1572.4	0.682
1581.42	0.457
1590.43	0.5667
1599.45	0.454
1608.46	0.708
1617.48	0.684
1626.49	0.729
1635.51	0.73
1644.53	0.68
1653.54	0.641
1662.56	0.625
1671.57	0.541
1680.59	0.411
1689.6	0.304
1698.62	0.333
1707.64	0.221
1716.65	0.084
1725.67	0.29
1734.68	0.382
1743.7	0.345
1752.71	0.259
1761.73	0.106
1770.75	0.019
1779.76	0.024
1788.78	0.088
1797.79	0.172
1806.81	0.462
1815.82	0.619
1824.84	0.665
1833.85	0.709
1842.87	0.771
1851.89	0.806
1860.9	0.823
1869.92	0.828
1878.93	0.823
1887.95	0.817
1896.96	0.819
1905.98	0.817
1915	0.791
1924.01	0.759
1933.03	0.807
1942.04	0.805
1951.06	0.828
1960.07	0.837
1969.09	0.834
1978.1	0.789
1987.12	0.796
1996.14	0.796
2005.15	0.805
2014.17	0.8086
2023.18	0.8132
2032.2	0.815
2041.21	0.8163
2050.23	0.8179
2059.25	0.8195
2068.26	0.821
2077.28	0.823
2086.29	0.823
2095.31	0.823
2104.32	0.821
2113.34	0.821
2122.35	0.8175
2131.37	0.815
2140.39	0.8144
2149.4	0.814
2158.42	0.815
2167.43	0.816
2176.45	0.817
2185.46	0.817
2194.48	0.8159
2203.5	0.815
2212.51	0.814
2221.53	0.813
2230.54	0.8076
2239.56	0.8051
2248.57	0.8035
2257.59	0.801
2266.61	0.8
2275.62	0.7988
2284.64	0.798
2293.65	0.796
2302.67	0.7951
2311.68	0.794
2320.7	0.7888
2329.71	0.784
2338.73	0.782
2347.75	0.782
2356.76	0.782
2365.78	0.782
2374.79	0.7815
2383.81	0.7799
2392.82	0.7773
2401.84	0.7746
2410.86	0.7712
2419.87	0.7686
2428.89	0.767
2437.9	0.766
2446.92	0.7619
2455.93	0.7577
2464.95	0.7528
2473.96	0.7464
2482.98	0.743
2492	0.7411
2501.01	0.74
2510.03	0.7378
2519.04	0.7297
2528.06	0.7228
2537.07	0.7146
2546.09	0.7029
2555.11	0.7
2564.12	0.7015
2573.14	0.7111
2582.15	0.713
2591.17	0.714
2600.18	0.714
2609.2	0.713
2618.22	0.711
2627.23	0.7105
2636.25	0.7069
2645.26	0.701
2654.28	0.6937
2663.29	0.693
2672.31	0.6934
2681.32	0.7029
2690.34	0.7111
2699.36	0.7151
2708.37	0.718
2717.39	0.72
2726.4	0.7218
2735.42	0.722
2744.43	0.72
2753.45	0.718
2762.47	0.716
2771.48	0.716
2780.5	0.7147
2789.51	0.7038
2798.53	0.6858
2807.54	0.683
2816.56	0.6794
2825.57	0.6624
2834.59	0.5792
2843.61	0.5171
2852.62	0.463
2861.64	0.4604
2870.65	0.467
2879.67	0.5016
2888.68	0.4964
2897.7	0.4557
2906.72	0.413
2915.73	0.3467
2924.75	0.315
2933.76	0.352
2942.78	0.3616
2951.79	0.3399
2960.81	0.3497
2969.82	0.397
2978.84	0.4527
2987.86	0.4775
2996.87	0.5
3005.89	0.5127
3014.9	0.5202
3023.92	0.523
3032.93	0.5263
3041.95	0.5264
3050.97	0.5
3059.98	0.4831
3069	0.5061
3078.01	0.5286
3087.03	0.5504
3096.04	0.5683
3105.06	0.5719
3114.08	0.5818
3123.09	0.594
3132.11	0.5994
3141.12	0.6033
3150.14	0.6057
3159.15	0.6073
3168.17	0.6099
3177.18	0.6125
3186.2	0.614
3195.22	0.6182
3204.23	0.6262
3213.25	0.629
3222.26	0.6316
3231.28	0.634
3240.29	0.6355
3249.31	0.637
3258.33	0.639
3267.34	0.641
3276.36	0.642
3285.37	0.642
3294.39	0.64
3303.4	0.6375
3312.42	0.635
3321.43	0.6356
3330.45	0.637
3339.47	0.637
3348.48	0.638
3357.5	0.638
3366.51	0.64
3375.53	0.641
3384.54	0.641
3393.56	0.6398
3402.58	0.6337
3411.59	0.619
3420.61	0.6159
3429.62	0.6334
3438.64	0.642
3447.65	0.642
3456.67	0.6378
3465.69	0.6251
3474.7	0.621
3483.72	0.6278
3492.73	0.637
3501.75	0.638
3510.76	0.638
3519.78	0.636
3528.79	0.6332
3537.81	0.6182
3546.83	0.6139
3555.84	0.6315
3564.86	0.637
3573.87	0.638
3582.89	0.6392
3591.9	0.639
3600.92	0.638
3609.94	0.637
3618.95	0.635
3627.97	0.6329
3636.98	0.6314
3646	0.63
3655.01	0.6282
3664.03	0.628
3673.04	0.626
3682.06	0.624
3691.08	0.623
3700.09	0.6213
3709.11	0.619
3718.12	0.619
3727.14	0.618
3736.15	0.618
3745.17	0.619
3754.19	0.617
3763.2	0.617
3772.22	0.615
3781.23	0.6142
3790.25	0.613
3799.26	0.612
3808.28	0.61
3817.3	0.609
3826.31	0.608
3835.33	0.6068
3844.34	0.605
3853.36	0.604
3862.37	0.603
3871.39	0.602
3880.4	0.601
3889.42	0.6
3898.44	0.599
3907.45	0.598
3916.47	0.597
3925.48	0.596
3934.5	0.596
3943.51	0.5949
3952.53	0.594
3961.55	0.592
3970.56	0.592
3979.58	0.591
3988.59	0.59
