Infrared Spectrum: p-AMINOBENZOIC ACID, ETHYL ESTER
Formula: C9 H11 N O2
CAS: 94-09-7
State: SOLUTION (3% CCl4)
Class: COBLENTZ III
Instrument: PERKIN-ELMER 521 (GRATING)
Instrument parameters: FILTERS AT 3150, 2500, 2000, 1150, 700, 410. GRATING CHANGES: 2000, 630 CM^-^1
Sampling: TRANSMISSION
Path length: 0.011 CM (CsBr CELL)
Resolution: 2
Origin: SOUTHERN RESEARCH INSTITUTE
1/CM	TRANSMITTANCE
259.18	0.646
268.116	0.6889
277.052	0.7079
285.988	0.7041
294.925	0.697
303.861	0.6929
312.797	0.7193
321.733	0.7498
330.669	0.7622
339.605	0.8043
348.542	0.8418
357.478	0.8617
366.414	0.8663
375.35	0.8617
384.286	0.8746
393.222	0.879
402.159	0.9019
411.095	0.9034
420.031	0.8869
428.967	0.8522
437.903	0.8069
446.839	0.772
455.776	0.772
464.712	0.7616
473.648	0.7356
482.584	0.7468
491.52	0.7638
500.456	0.7734
509.393	0.8099
518.329	0.8686
527.265	0.8607
536.201	0.8673
545.137	0.889
554.073	0.8898
563.01	0.885
571.946	0.88
580.882	0.884
589.818	0.8737
598.754	0.8516
607.69	0.804
616.627	0.741
625.563	0.8349
634.499	0.865
643.435	0.881
652.371	0.8751
661.307	0.8605
670.244	0.853
679.18	0.8326
688.116	0.7418
697.052	0.6572
705.988	0.6742
714.924	0.5262
723.861	0.2612
732.797	0.0158
741.733	0.001
750.669	0.001
759.605	0.001
768.541	0.001
777.478	0.001
786.414	0.001
795.35	0.006
804.286	0.0211
813.222	0.0923
822.158	0.3464
831.095	0.533
840.031	0.4802
848.967	0.6976
857.903	0.7986
866.839	0.8194
875.775	0.8555
884.712	0.891
893.648	0.9166
902.584	0.9223
911.52	0.9363
920.456	0.9328
929.392	0.931
938.328	0.9278
947.265	0.903
956.201	0.878
965.137	0.7918
974.073	0.708
983.009	0.7374
991.945	0.7394
1000.88	0.6709
1009.82	0.664
1018.75	0.7056
1027.69	0.7929
1036.63	0.8949
1045.56	0.8882
1054.5	0.8307
1063.43	0.8135
1072.37	0.8367
1081.31	0.8308
1090.24	0.7099
1099.18	0.362
1108.12	0.1999
1117.05	0.5691
1125.99	0.7656
1134.92	0.8593
1143.86	0.886
1152.8	0.8715
1161.73	0.5699
1170.67	0.057
1179.6	0.8013
1188.54	0.829
1197.48	0.79
1206.41	0.7521
1215.35	0.7166
1224.29	0.7076
1233.22	0.682
1242.16	0.6147
1251.09	0.5406
1260.03	0.4002
1268.97	0.0157
1277.9	0.0634
1286.84	0.5595
1295.78	0.6213
1304.71	0.5364
1313.65	0.7389
1322.58	0.8877
1331.52	0.8939
1340.46	0.9321
1349.39	0.9328
1358.33	0.8135
1367.26	0.5093
1376.2	0.899
1385.14	0.8532
1394.07	0.8613
1403.01	0.9399
1411.95	0.941
1420.88	0.9325
1429.82	0.875
1438.75	0.8092
1447.69	0.8355
1456.63	0.8613
1465.56	0.8057
1474.5	0.8219
1483.43	0.862
1492.37	0.8503
1501.31	0.781
1510.24	0.4725
1519.18	0.4972
1528.12	0.6359
1537.05	0.5455
1545.99	0.4724
1554.92	0.4878
1563.86	0.5783
1572.8	0.5846
1581.73	0.5876
1590.67	0.597
1599.6	0.4391
1608.54	0.3984
1617.48	0.1561
1626.41	0.3453
1635.35	0.6809
1644.29	0.8337
1653.22	0.8756
1662.16	0.8797
1671.09	0.8608
1680.03	0.8211
1688.97	0.6324
1697.9	0.3171
1706.84	0.1167
1715.77	0.1523
1724.71	0.622
1733.65	0.8339
1742.58	0.9092
1751.52	0.938
1760.46	0.949
1769.39	0.958
1778.33	0.9638
1787.26	0.969
1796.2	0.972
1805.14	0.975
1814.07	0.973
1823.01	0.97
1831.94	0.975
1840.88	0.978
1849.82	0.978
1858.75	0.978
1867.69	0.978
1876.63	0.978
1885.56	0.9743
1894.5	0.972
1903.43	0.9606
1912.37	0.9506
1921.31	0.9736
1930.24	0.979
1939.18	0.979
1948.12	0.977
1957.05	0.975
1965.99	0.974
1974.92	0.9744
1983.86	0.977
1992.8	0.977
2001.73	0.978
2010.67	0.978
2019.6	0.9763
2028.54	0.98
2037.48	0.984
2046.41	0.9884
2055.35	0.991
2064.29	0.991
2073.22	0.991
2082.16	0.991
2091.09	0.991
2100.03	0.989
2108.97	0.987
2117.9	0.9826
2126.84	0.9794
2135.77	0.9914
2144.71	0.993
2153.65	0.994
2162.58	0.996
2171.52	0.994
2180.46	0.994
2189.39	0.994
2198.33	0.994
2207.26	0.991
2216.2	0.9876
2225.14	0.9874
2234.07	0.988
2243.01	0.9836
2251.94	0.979
2260.88	0.9746
2269.82	0.9686
2278.75	0.965
2287.69	0.964
2296.63	0.966
2305.56	0.968
2314.5	0.9727
2323.43	0.978
2332.37	0.98
2341.31	0.983
2350.24	0.983
2359.18	0.9796
2368.11	0.9796
2377.05	0.979
2385.99	0.9824
2394.92	0.984
2403.86	0.987
2412.8	0.987
2421.73	0.987
2430.67	0.987
2439.6	0.987
2448.54	0.988
2457.48	0.987
2466.41	0.987
2475.35	0.988
2484.28	0.988
2493.22	0.988
2502.16	0.988
2511.09	0.9866
2520.03	0.983
2528.97	0.979
2537.9	0.978
2546.84	0.979
2555.77	0.979
2564.71	0.979
2573.65	0.979
2582.58	0.979
2591.52	0.978
2600.46	0.9763
2609.39	0.9757
2618.33	0.9736
2627.26	0.972
2636.2	0.969
2645.14	0.966
2654.07	0.964
2663.01	0.968
2671.94	0.974
2680.88	0.977
2689.82	0.977
2698.75	0.9794
2707.69	0.98
2716.63	0.978
2725.56	0.978
2734.5	0.977
2743.43	0.977
2752.37	0.975
2761.31	0.973
2770.24	0.972
2779.18	0.973
2788.11	0.972
2797.05	0.9713
2805.99	0.968
2814.92	0.966
2823.86	0.965
2832.8	0.9656
2841.73	0.9636
2850.67	0.961
2859.6	0.9526
2868.54	0.9273
2877.48	0.93
2886.41	0.9223
2895.35	0.8953
2904.28	0.8894
2913.22	0.913
2922.16	0.8961
2931.09	0.8706
2940.03	0.8894
2948.97	0.8726
2957.9	0.86
2966.84	0.8414
2975.77	0.7397
2984.71	0.7469
2993.65	0.8249
3002.58	0.8842
3011.52	0.909
3020.45	0.9158
3029.39	0.9236
3038.33	0.9044
3047.26	0.9291
3056.2	0.9343
3065.14	0.9316
3074.07	0.9481
3083.01	0.9546
3091.94	0.954
3100.88	0.9554
3109.82	0.956
3118.75	0.963
3127.69	0.954
3136.62	0.9533
3145.56	0.9506
3154.5	0.951
3163.43	0.958
3172.37	0.958
3181.31	0.955
3190.24	0.951
3199.18	0.9389
3208.11	0.9276
3217.05	0.9274
3225.99	0.9354
3234.92	0.9444
3243.86	0.9477
3252.8	0.9514
3261.73	0.954
3270.67	0.954
3279.6	0.9533
3288.54	0.9516
3297.48	0.951
3306.41	0.949
3315.35	0.945
3324.28	0.9404
3333.22	0.935
3342.16	0.9266
3351.09	0.9059
3360.03	0.8753
3368.97	0.8292
3377.9	0.7873
3386.84	0.781
3395.77	0.7631
3404.71	0.6723
3413.65	0.7224
3422.58	0.8509
3431.52	0.9108
3440.45	0.926
3449.39	0.928
3458.33	0.9216
3467.26	0.9026
3476.2	0.8846
3485.14	0.8435
3494.07	0.8033
3503.01	0.8088
3511.94	0.8566
3520.88	0.9114
3529.82	0.9331
3538.75	0.9444
3547.69	0.95
3556.62	0.951
3565.56	0.952
3574.5	0.954
3583.43	0.955
3592.37	0.956
3601.31	0.9556
3610.24	0.955
3619.18	0.956
3628.11	0.956
3637.05	0.956
3645.99	0.9556
3654.92	0.9514
3663.86	0.958
3672.79	0.952
3681.73	0.954
3690.67	0.954
3699.6	0.954
3708.54	0.955
3717.48	0.952
3726.41	0.955
3735.35	0.954
3744.28	0.954
3753.22	0.952
3762.16	0.952
3771.09	0.9533
3780.03	0.956
3788.96	0.956
3797.9	0.956
3806.84	0.9516
3815.77	0.9516
