Infrared Spectrum: PHENETHYLTRICHLOROSILANE
Formula: C8 H9 Cl3 Si
CAS: 940-41-0
State: SOLID (BETWEEN SALTS)
Class: COBLENTZ
Instrument: BECKMAN IR-4 (HYBRID PRISM-GRATING)
Sampling: TRANSMISSION
Resolution: 4
Origin: PENINSULAR CHEMRESEARCH, INC., GAINESVILLE, FLORIDA
MICROMETERS	TRANSMITTANCE
2.02	0.906
2.05491	0.908
2.08983	0.906
2.12474	0.907
2.15966	0.913
2.19457	0.915
2.22948	0.918
2.2644	0.916
2.29931	0.913
2.33423	0.917
2.36914	0.915
2.40405	0.91
2.43897	0.9
2.47388	0.913
2.5088	0.915
2.54371	0.908
2.57862	0.915
2.61354	0.917
2.64845	0.905
2.68337	0.903
2.71828	0.883
2.75319	0.88
2.78811	0.877
2.82302	0.872
2.85794	0.868
2.89285	0.867
2.92776	0.862
2.96268	0.863
2.99759	0.865
3.03251	0.867
3.06742	0.868
3.10233	0.877
3.13725	0.872
3.17216	0.867
3.20708	0.803
3.24199	0.69
3.2769	0.659
3.31182	0.671
3.34673	0.807
3.38165	0.71
3.41656	0.621
3.45147	0.709
3.48639	0.752
3.5213	0.865
3.55622	0.876
3.59113	0.877
3.62604	0.89
3.66096	0.905
3.69587	0.917
3.73078	0.92
3.7657	0.92
3.80061	0.921
3.83553	0.922
3.87044	0.927
3.90535	0.933
3.94027	0.932
3.97518	0.933
4.0101	0.938
4.04501	0.936
4.07992	0.935
4.11484	0.941
4.14975	0.936
4.18467	0.913
4.21958	0.915
4.25449	0.93
4.28941	0.94
4.32432	0.95
4.35924	0.95
4.39415	0.948
4.42906	0.946
4.46398	0.947
4.49889	0.958
4.53381	0.958
4.56872	0.953
4.60363	0.947
4.63855	0.956
4.67346	0.967
4.70838	0.971
4.74329	0.966
4.7782	0.973
4.81312	0.968
4.84803	0.97
4.88295	0.972
4.91786	0.977
4.95277	0.971
4.98769	0.958
5.0226	0.963
5.05752	0.935
5.09243	0.908
5.12734	0.907
5.16226	0.96
5.19717	0.97
5.23209	0.966
5.267	0.95
5.30191	0.938
5.33683	0.97
5.37174	0.976
5.40666	0.997
5.44157	0.976
5.47648	0.967
5.5114	0.937
5.54631	0.953
5.58123	0.972
5.61614	0.957
5.65105	0.952
5.68597	0.937
5.72088	0.932
5.7558	0.946
5.79071	0.941
5.82562	0.952
5.86054	0.957
5.89545	0.957
5.93037	0.961
5.96528	0.96
6.00019	0.952
6.03511	0.963
6.07002	0.956
6.10494	0.961
6.13985	0.941
6.17476	0.916
6.20968	0.754
6.24459	0.841
6.27951	0.896
6.31442	0.915
6.34933	0.951
6.38425	0.96
6.41916	0.981
6.45408	0.957
6.48899	0.968
6.5239	0.946
6.55882	0.917
6.59373	0.872
6.62865	0.764
6.66356	0.646
6.69847	0.903
6.73339	0.925
6.7683	0.928
6.80322	0.886
6.83813	0.624
6.87304	0.626
6.90796	0.816
6.94287	0.895
6.97778	0.947
7.0127	0.933
7.04761	0.912
7.08253	0.857
7.11744	0.87
7.15235	0.888
7.18727	0.9
7.22218	0.918
7.2571	0.953
7.29201	0.961
7.32692	0.961
7.36184	0.941
7.39675	0.933
7.43167	0.92
7.46658	0.917
7.50149	0.906
7.53641	0.908
7.57132	0.921
7.60624	0.936
7.64115	0.94
7.67606	0.942
7.71098	0.955
7.74589	0.96
7.78081	0.961
7.81572	0.955
7.85063	0.933
7.88555	0.936
7.92046	0.952
7.95538	0.968
7.99029	0.967
8.0252	0.967
8.06012	0.963
8.09503	0.963
8.12995	0.958
8.16486	0.95
8.19977	0.937
8.23469	0.911
8.2696	0.866
8.30452	0.765
8.33943	0.681
8.37434	0.622
8.40926	0.589
8.44417	0.579
8.47909	0.614
8.514	0.706
8.54891	0.734
8.58383	0.711
8.61874	0.669
8.65366	0.625
8.68857	0.596
8.72348	0.554
8.7584	0.509
8.79331	0.473
8.82823	0.439
8.86314	0.42
8.89805	0.388
8.93297	0.405
8.96788	0.436
9.0028	0.451
9.03771	0.468
9.07262	0.471
9.10754	0.483
9.14245	0.49
9.17737	0.49
9.21228	0.494
9.24719	0.489
9.28211	0.48
9.31702	0.471
9.35194	0.466
9.38685	0.484
9.42176	0.496
9.45668	0.523
9.49159	0.54
9.52651	0.559
9.56142	0.578
9.59633	0.583
9.63125	0.584
9.66616	0.548
9.70108	0.496
9.73599	0.549
9.7709	0.578
9.80582	0.585
9.84073	0.581
9.87565	0.574
9.91056	0.564
9.94547	0.558
9.98039	0.584
10.0153	0.554
10.0502	0.543
10.0851	0.579
10.12	0.637
10.155	0.702
10.1899	0.755
10.2248	0.808
10.2597	0.855
10.2946	0.883
10.3295	0.896
10.3644	0.902
10.3994	0.916
10.4343	0.928
10.4692	0.931
10.5041	0.933
10.539	0.937
10.5739	0.932
10.6088	0.927
10.6438	0.922
10.6787	0.915
10.7136	0.907
10.7485	0.902
10.7834	0.881
10.8183	0.865
10.8532	0.851
10.8882	0.832
10.9231	0.808
10.958	0.784
10.9929	0.759
11.0278	0.729
11.0627	0.674
11.0976	0.637
11.1325	0.649
11.1675	0.696
11.2024	0.745
11.2373	0.776
11.2722	0.797
11.3071	0.828
11.342	0.85
11.3769	0.868
11.4119	0.878
11.4468	0.892
11.4817	0.898
11.5166	0.9
11.5515	0.901
11.5864	0.903
11.6213	0.906
11.6563	0.908
11.6912	0.908
11.7261	0.905
11.761	0.898
11.7959	0.892
11.8308	0.877
11.8657	0.868
11.9007	0.865
11.9356	0.861
11.9705	0.857
12.0054	0.842
12.0403	0.806
12.0752	0.742
12.1101	0.689
12.1451	0.677
12.18	0.685
12.2149	0.717
12.2498	0.775
12.2847	0.79
12.3196	0.79
12.3545	0.777
12.3895	0.77
12.4244	0.771
12.4593	0.785
12.4942	0.807
12.5291	0.812
12.564	0.805
12.5989	0.79
12.6338	0.759
12.6688	0.739
12.7037	0.706
12.7386	0.689
12.7735	0.666
12.8084	0.622
12.8433	0.561
12.8782	0.468
12.9132	0.35
12.9481	0.279
12.983	0.269
13.0179	0.314
13.0528	0.398
13.0877	0.481
13.1226	0.543
13.1576	0.566
13.1925	0.56
13.2274	0.524
13.2623	0.465
13.2972	0.439
13.3321	0.428
13.367	0.42
13.402	0.405
13.4369	0.343
13.4718	0.263
13.5067	0.203
13.5416	0.169
13.5765	0.153
13.6114	0.152
13.6464	0.181
13.6813	0.22
13.7162	0.28
13.7511	0.304
13.786	0.313
13.8209	0.315
13.8558	0.367
13.8908	0.42
13.9257	0.471
13.9606	0.504
13.9955	0.528
14.0304	0.525
14.0653	0.518
14.1002	0.505
14.1352	0.471
14.1701	0.424
14.205	0.364
14.2399	0.298
14.2748	0.237
14.3097	0.186
14.3446	0.157
14.3795	0.161
14.4145	0.176
14.4494	0.199
14.4843	0.228
14.5192	0.277
14.5541	0.31
14.589	0.345
14.6239	0.397
14.6589	0.441
14.6938	0.495
14.7287	0.534
14.7636	0.565
14.7985	0.584
14.8334	0.593
14.8683	0.594
14.9033	0.584
14.9382	0.57
14.9731	0.566
15.008	0.563
