Infrared Spectrum: Benzoic acid, p-amino-, ethyl ester
Formula: C9 H11 N O2
CAS: 94-09-7
State: SOLID (1 mg / 650 mg KBr DISC)
Class: COBLENTZ III
Instrument: PERKIN-ELMER 521 (GRATING)
Instrument parameters: FILTERS AT 3150, 2500, 2000, 1150, 700, 410. GRATING CHANGES: 2000, 630
Resolution: 2
Origin: SOUTHERN RESEARCH INSTITUTE
1/CM	TRANSMITTANCE
251	0.2629
260	0.3185
269	0.3796
278	0.4509
287	0.5218
296	0.5591
305	0.5828
314	0.6046
323	0.6356
332	0.6581
341	0.6742
350	0.6852
359	0.6888
368	0.6652
377	0.6331
386	0.7113
395	0.7151
404	0.7374
413	0.7404
422	0.7362
431	0.7311
440	0.7267
449	0.722
458	0.7137
467	0.6977
476	0.6732
485	0.6405
494	0.5649
503	0.5508
512	0.6081
521	0.625
530	0.6209
539	0.616
548	0.6123
557	0.6092
566	0.607
575	0.6052
584	0.6045
593	0.6016
602	0.5765
611	0.5437
620	0.7382
629	0.715
638	0.6762
647	0.7381
656	0.7453
665	0.7677
674	0.7578
683	0.7465
692	0.6018
701	0.7601
710	0.8086
719	0.8167
728	0.8164
737	0.8135
746	0.8013
755	0.7636
764	0.4867
773	0.5826
782	0.8431
791	0.848
800	0.8361
809	0.8277
818	0.8279
827	0.791
836	0.5992
845	0.5625
854	0.8137
863	0.8125
872	0.7736
881	0.8172
890	0.8265
899	0.825
908	0.8164
917	0.8065
926	0.8027
935	0.7943
944	0.7828
953	0.7729
962	0.7764
971	0.7676
980	0.7474
989	0.7205
998	0.6858
1007	0.6309
1016	0.5495
1025	0.5919
1034	0.7213
1043	0.7059
1052	0.6772
1061	0.635
1070	0.5804
1079	0.5773
1088	0.572
1097	0.4843
1106	0.3699
1115	0.3538
1124	0.4199
1133	0.598
1142	0.6211
1151	0.5653
1160	0.3465
1169	0.2149
1178	0.7798
1187	0.7858
1196	0.7577
1205	0.7396
1214	0.7077
1223	0.6498
1232	0.5621
1241	0.5408
1250	0.4314
1259	0.2949
1268	0.1106
1277	0.1152
1286	0.3075
1295	0.4444
1304	0.1928
1313	0.4164
1322	0.692
1331	0.7619
1340	0.7913
1349	0.8113
1358	0.4364
1367	0.4933
1376	0.7082
1385	0.707
1394	0.8027
1403	0.831
1412	0.8328
1421	0.8176
1430	0.6194
1439	0.5832
1448	0.744
1457	0.7623
1466	0.5844
1475	0.7983
1484	0.7744
1493	0.6981
1502	0.4389
1511	0.3369
1520	0.8016
1529	0.8067
1538	0.7407
1547	0.6977
1556	0.6071
1565	0.4191
1574	0.5345
1583	0.2681
1592	0.1685
1601	0.3611
1610	0.5084
1619	0.3972
1628	0.2813
1637	0.4357
1646	0.6952
1655	0.6755
1664	0.3995
1673	0.1622
1682	0.1543
1691	0.2911
1700	0.4986
1709	0.6089
1718	0.7196
1727	0.7986
1736	0.8312
1745	0.8626
1754	0.8886
1763	0.9112
1772	0.924
1781	0.9352
1790	0.95
1799	0.9619
1808	0.9655
1817	0.9674
1826	0.9695
1835	0.9735
1844	0.9788
1853	0.9827
1862	0.984
1871	0.9822
1880	0.9769
1889	0.9683
1898	0.9554
1907	0.9277
1916	0.9413
1925	0.9661
1934	0.9665
1943	0.9659
1952	0.9673
1961	0.9651
1970	0.9627
1979	0.9565
1988	0.9498
1997	0.9422
2006	0.9407
2015	0.94
2024	0.9407
2033	0.9423
2042	0.9438
2051	0.9438
2060	0.9418
2069	0.9393
2078	0.9362
2087	0.9329
2096	0.9292
2105	0.9267
2114	0.9245
2123	0.9246
2132	0.9269
2141	0.9289
2150	0.9296
2159	0.929
2168	0.9283
2177	0.9278
2186	0.927
2195	0.9256
2204	0.9241
2213	0.9227
2222	0.9213
2231	0.9202
2240	0.9193
2249	0.9183
2258	0.9173
2267	0.9163
2276	0.915
2285	0.9135
2294	0.9115
2303	0.9095
2312	0.9076
2321	0.9058
2330	0.9025
2339	0.899
2348	0.8953
2357	0.8931
2366	0.8928
2375	0.8928
2384	0.8928
2393	0.8927
2402	0.8927
2411	0.8928
2420	0.8929
2429	0.893
2438	0.8921
2447	0.8908
2456	0.8904
2465	0.8929
2474	0.8881
2483	0.8855
2492	0.8846
2501	0.8813
2510	0.8773
2519	0.874
2528	0.8714
2537	0.8697
2546	0.8706
2555	0.8714
2564	0.8694
2573	0.865
2582	0.8649
2591	0.8636
2600	0.8599
2609	0.8584
2618	0.8607
2627	0.8565
2636	0.8462
2645	0.846
2654	0.8384
2663	0.828
2672	0.8307
2681	0.8412
2690	0.8458
2699	0.8456
2708	0.8466
2717	0.8478
2726	0.8487
2735	0.8484
2744	0.8445
2753	0.8389
2762	0.834
2771	0.8318
2780	0.8301
2789	0.8262
2798	0.8224
2807	0.821
2816	0.8211
2825	0.8211
2834	0.8118
2843	0.7999
2852	0.7897
2861	0.773
2870	0.7707
2879	0.7577
2888	0.6804
2897	0.7602
2906	0.7715
2915	0.7475
2924	0.7251
2933	0.7218
2942	0.7144
2951	0.6932
2960	0.7099
2969	0.6631
2978	0.6741
2987	0.7802
2996	0.7979
3005	0.7986
3014	0.7943
3023	0.7884
3032	0.7733
3041	0.7746
3050	0.7766
3059	0.7699
3068	0.7721
3077	0.7713
3086	0.7683
3095	0.7639
3104	0.76
3113	0.7493
3122	0.7369
3131	0.7273
3140	0.7183
3149	0.7133
3158	0.7005
3167	0.6826
3176	0.6552
3185	0.6139
3194	0.5717
3203	0.525
3212	0.4725
3221	0.5008
3230	0.5507
3239	0.5654
3248	0.6155
3257	0.6252
3266	0.6166
3275	0.6012
3284	0.5773
3293	0.5342
3302	0.4891
3311	0.4303
3320	0.3715
3329	0.3109
3338	0.2987
3347	0.3857
3356	0.481
3365	0.5527
3374	0.5755
3383	0.5666
3392	0.525
3401	0.4584
3410	0.392
3419	0.3775
3428	0.4505
3437	0.5634
3446	0.6066
3455	0.6442
3464	0.6688
3473	0.6822
3482	0.6927
3491	0.7028
3500	0.7153
3509	0.7262
3518	0.7356
3527	0.7441
3536	0.7523
3545	0.7602
3554	0.7681
3563	0.7758
3572	0.7832
3581	0.7901
3590	0.7953
3599	0.8005
3608	0.8053
3617	0.8099
3626	0.8144
3635	0.8177
3644	0.8204
3653	0.822
3662	0.8219
3671	0.8198
3680	0.8156
3689	0.815
3698	0.8229
3707	0.8279
3716	0.8274
3725	0.8263
3734	0.8259
3743	0.8247
3752	0.8228
3761	0.8212
3770	0.8197
3779	0.8182
3788	0.8167
3797	0.8152
