Infrared Spectrum: BENZOCAINE
Formula: C9 H11 N O2
CAS: 94-09-7
State: SOLID (1.14 mg / 200 mg KBr DISC)
Melting point: 88-90 C
Class: COBLENTZ III
Instrument: PERKIN-ELMER 21 (GRATING)
Instrument parameters: FILTER AT ABOUT 10 MICRONS
Sampling: TRANSMISSION
Path length: 0.05 CM (THICKNESS)
Resolution: 2
1/CM	TRANSMITTANCE
4000	0.9376
3991	0.9374
3982	0.9374
3973	0.9373
3964	0.9372
3955	0.9371
3946	0.937
3937	0.9371
3928	0.9372
3919	0.9375
3910	0.9377
3901	0.938
3892	0.9382
3883	0.9385
3874	0.9389
3865	0.939
3856	0.9392
3847	0.9397
3838	0.94
3829	0.9403
3820	0.9401
3811	0.9397
3802	0.9396
3793	0.9394
3784	0.9393
3775	0.9394
3766	0.9407
3757	0.9423
3748	0.9439
3739	0.9444
3730	0.9443
3721	0.9443
3712	0.9442
3703	0.9442
3694	0.9445
3685	0.9447
3676	0.9452
3667	0.9455
3658	0.9459
3649	0.9472
3640	0.9494
3631	0.9509
3622	0.9521
3613	0.9534
3604	0.9549
3595	0.9563
3586	0.9571
3577	0.9581
3568	0.9586
3559	0.9587
3550	0.9586
3541	0.9583
3532	0.9577
3523	0.9571
3514	0.9564
3505	0.9554
3496	0.9534
3487	0.9505
3478	0.9461
3469	0.9371
3460	0.8855
3451	0.8136
3442	0.7413
3433	0.6687
3424	0.6246
3415	0.6507
3406	0.6838
3397	0.7171
3388	0.7504
3379	0.7534
3370	0.67
3361	0.5811
3352	0.537
3343	0.5486
3334	0.5754
3325	0.6025
3316	0.6294
3307	0.6567
3298	0.684
3289	0.7113
3280	0.734
3271	0.7345
3262	0.72
3253	0.7009
3244	0.6818
3235	0.6624
3226	0.6548
3217	0.6662
3208	0.6934
3199	0.7207
3190	0.7481
3181	0.7611
3172	0.7707
3163	0.7792
3154	0.7877
3145	0.7944
3136	0.8004
3127	0.8064
3118	0.8121
3109	0.8176
3100	0.8231
3091	0.8285
3082	0.8318
3073	0.8355
3064	0.8389
3055	0.8424
3046	0.846
3037	0.8484
3028	0.8496
3019	0.8495
3010	0.8443
3001	0.8264
2992	0.7967
2983	0.7717
2974	0.7672
2965	0.7645
2956	0.7664
2947	0.7746
2938	0.7818
2929	0.794
2920	0.8026
2911	0.8029
2902	0.8028
2893	0.8048
2884	0.8095
2875	0.8173
2866	0.8257
2857	0.8334
2848	0.8428
2839	0.85
2830	0.8557
2821	0.857
2812	0.8575
2803	0.8596
2794	0.8619
2785	0.8643
2776	0.8671
2767	0.8702
2758	0.8732
2749	0.8752
2740	0.876
2731	0.8755
2722	0.8735
2713	0.871
2704	0.8689
2695	0.8674
2686	0.8661
2677	0.8649
2668	0.8654
2659	0.8666
2650	0.8683
2641	0.8701
2632	0.8715
2623	0.8723
2614	0.8725
2605	0.873
2596	0.8738
2587	0.8747
2578	0.8777
2569	0.8823
2560	0.8848
2551	0.8845
2542	0.8838
2533	0.884
2524	0.8858
2515	0.8881
2506	0.8906
2497	0.8931
2488	0.8946
2479	0.8959
2470	0.8973
2461	0.8974
2452	0.8973
2443	0.896
2434	0.8945
2425	0.8931
2416	0.8918
2407	0.8903
2398	0.8902
2389	0.8921
2380	0.8949
2371	0.8978
2362	0.9006
2353	0.9015
2344	0.9019
2335	0.9021
2326	0.9034
2317	0.9061
2308	0.91
2299	0.9138
2290	0.915
2281	0.9156
2272	0.915
2263	0.9139
2254	0.9121
2245	0.9118
2236	0.9116
2227	0.9118
2218	0.9124
2209	0.9133
2200	0.9151
2191	0.9173
2182	0.9189
2173	0.9199
2164	0.9189
2155	0.9118
2146	0.9083
2137	0.9071
2128	0.9114
2119	0.9169
2110	0.9197
2101	0.9222
2092	0.9268
2083	0.9315
2074	0.9338
2065	0.9349
2056	0.9339
2047	0.9296
2038	0.9254
2029	0.9228
2020	0.922
2011	0.9228
2002	0.9254
1993	0.9271
1984	0.9281
1975	0.9303
1966	0.9328
1957	0.9353
1948	0.9377
1939	0.94
1930	0.9328
1921	0.8983
1912	0.9105
1903	0.9341
1894	0.9389
1885	0.9462
1876	0.9552
1867	0.9575
1858	0.9579
1849	0.9586
1840	0.9556
1831	0.9529
1822	0.9514
1813	0.9505
1804	0.9459
1795	0.9368
1786	0.9106
1777	0.9031
1768	0.8832
1759	0.8573
1750	0.8235
1741	0.7919
1732	0.7318
1723	0.6745
1714	0.6031
1705	0.5095
1696	0.3713
1687	0.3086
1678	0.4403
1669	0.6252
1660	0.7271
1651	0.5802
1642	0.4525
1633	0.4706
1624	0.5594
1615	0.5116
1606	0.3588
1597	0.3502
1588	0.4881
1579	0.5009
1570	0.6
1561	0.6514
1552	0.6945
1543	0.7239
1534	0.8208
1525	0.688
1516	0.4489
1507	0.6267
1498	0.7183
1489	0.7676
1480	0.6254
1471	0.7021
1462	0.742
1453	0.6892
1444	0.5677
1435	0.7349
1426	0.8148
1417	0.831
1408	0.8329
1399	0.7842
1390	0.7415
1381	0.7106
1372	0.5091
1363	0.6554
1354	0.8295
1345	0.8007
1336	0.7954
1327	0.7223
1318	0.4858
1309	0.3836
1300	0.4956
1291	0.3666
1282	0.2501
1273	0.275
1264	0.3751
1255	0.4726
1246	0.5586
1237	0.573
1228	0.6573
1219	0.7267
1210	0.7621
1201	0.7818
1192	0.8268
1183	0.8123
1174	0.3387
1165	0.4831
1156	0.6105
1147	0.6609
1138	0.6361
1129	0.4648
1120	0.4835
1111	0.4562
1102	0.5275
1093	0.6214
1084	0.6284
1075	0.6358
1066	0.6803
1057	0.744
1048	0.7863
1039	0.8043
1030	0.6796
1021	0.6201
1012	0.7064
1003	0.7679
994	0.7922
985	0.8171
976	0.834
967	0.8321
958	0.849
949	0.8652
940	0.871
931	0.8836
922	0.8898
913	0.902
904	0.9078
895	0.9147
886	0.8863
877	0.8692
868	0.9137
859	0.8933
850	0.5995
841	0.6957
832	0.8739
823	0.9333
814	0.9365
805	0.955
796	0.9665
787	0.9412
778	0.7094
769	0.6004
760	0.867
751	0.9212
742	0.9404
733	0.9431
724	0.9458
715	0.9339
706	0.8797
697	0.7429
688	0.8933
679	0.9054
