Infrared Spectrum: AZACYCLOTRIDECAN-2-ONE
Formula: C12 H23 N O
CAS: 947-04-6
State: SOLID (KBr PELLET)
Melting point: 151.5-152 C
Class: COBLENTZ
Instrument: Not specified, most likely a prism, grating, or hybrid spectrometer.
Sampling: TRANSMISSION
Resolution: 4
Origin: TENNESSEE EASTMAN COMPANY, RESEARCH LABORATORIES
MICROMETERS	TRANSMITTANCE
2.054	0.914
2.09484	0.914
2.13568	0.914
2.17651	0.911
2.21735	0.912
2.25819	0.904
2.29903	0.883
2.33987	0.883
2.3807	0.885
2.42154	0.892
2.46238	0.892
2.50322	0.892
2.54406	0.899
2.58489	0.899
2.62573	0.899
2.66657	0.902
2.70741	0.9
2.74825	0.899
2.78908	0.894
2.82992	0.88
2.87076	0.861
2.9116	0.841
2.95244	0.767
2.99327	0.357
3.03411	0.044
3.07495	0.365
3.11579	0.658
3.15663	0.719
3.19746	0.788
3.2383	0.663
3.27914	0.709
3.31998	0.805
3.36082	0.494
3.40165	0
3.44249	0.179
3.48333	0.097
3.52417	0.622
3.56501	0.774
3.60585	0.842
3.64668	0.859
3.68752	0.864
3.72836	0.861
3.7692	0.849
3.81004	0.863
3.85087	0.892
3.89171	0.9
3.93255	0.907
3.97339	0.909
4.01423	0.912
4.05506	0.916
4.0959	0.921
4.13674	0.924
4.17758	0.926
4.21842	0.928
4.25925	0.921
4.30009	0.907
4.34093	0.911
4.38177	0.924
4.42261	0.929
4.46344	0.933
4.50428	0.935
4.54512	0.935
4.58596	0.935
4.6268	0.935
4.66763	0.935
4.70847	0.936
4.74931	0.938
4.79015	0.938
4.83099	0.938
4.87182	0.94
4.91266	0.94
4.9535	0.941
4.99434	0.943
5.03518	0.948
5.07601	0.943
5.11685	0.941
5.15769	0.941
5.19853	0.941
5.23937	0.941
5.2802	0.941
5.32104	0.943
5.36188	0.941
5.40272	0.943
5.44356	0.941
5.48439	0.941
5.52523	0.94
5.56607	0.935
5.60691	0.926
5.64775	0.921
5.68858	0.914
5.72942	0.897
5.77026	0.875
5.8111	0.875
5.85194	0.859
5.89277	0.829
5.93361	0.8
5.97445	0.728
6.01529	0.49
6.05613	0.112
6.09696	0.018
6.1378	0.136
6.17864	0.37
6.21948	0.488
6.26032	0.618
6.30116	0.557
6.34199	0.396
6.38283	0.155
6.42367	0.035
6.46451	0.116
6.50535	0.312
6.54618	0.454
6.58702	0.557
6.62786	0.6
6.6687	0.618
6.70954	0.611
6.75037	0.553
6.79121	0.227
6.83205	0.186
6.87289	0.167
6.91373	0.21
6.95456	0.266
6.9954	0.413
7.03624	0.581
7.07708	0.635
7.11792	0.661
7.15875	0.673
7.19959	0.666
7.24043	0.594
7.28127	0.548
7.32211	0.516
7.36294	0.509
7.40378	0.504
7.44462	0.461
7.48546	0.605
7.5263	0.651
7.56713	0.697
7.60797	0.702
7.64881	0.659
7.68965	0.618
7.73049	0.55
7.77132	0.5
7.81216	0.427
7.853	0.517
7.89384	0.49
7.93468	0.389
7.97551	0.562
8.01635	0.641
8.05719	0.646
8.09803	0.521
8.13887	0.671
8.1797	0.728
8.22054	0.757
8.26138	0.729
8.30222	0.767
8.34306	0.755
8.38389	0.582
8.42473	0.42
8.46557	0.634
8.50641	0.748
8.54725	0.786
8.58808	0.747
8.62892	0.712
8.66976	0.69
8.7106	0.724
8.75144	0.786
8.79227	0.815
8.83311	0.823
8.87395	0.818
8.91479	0.709
8.95563	0.705
8.99647	0.765
9.0373	0.776
9.07814	0.757
9.11898	0.779
9.15982	0.8
9.20066	0.801
9.24149	0.8
9.28233	0.784
9.32317	0.781
9.36401	0.788
9.40485	0.735
9.44568	0.755
9.48652	0.791
9.52736	0.801
9.5682	0.81
9.60904	0.8
9.64987	0.815
9.69071	0.844
9.73155	0.849
9.77239	0.849
9.81323	0.847
9.85406	0.839
9.8949	0.841
9.93574	0.835
9.97658	0.77
10.0174	0.736
10.0583	0.784
10.0991	0.801
10.1399	0.832
10.1808	0.849
10.2216	0.849
10.2624	0.839
10.3033	0.856
10.3441	0.87
10.385	0.87
10.4258	0.87
10.4666	0.864
10.5075	0.866
10.5483	0.873
10.5891	0.873
10.63	0.851
10.6708	0.839
10.7117	0.808
10.7525	0.803
10.7933	0.839
10.8342	0.858
10.875	0.832
10.9159	0.844
10.9567	0.882
10.9975	0.914
11.0384	0.919
11.0792	0.923
11.12	0.926
11.1609	0.917
11.2017	0.883
11.2426	0.864
11.2834	0.871
11.3242	0.887
11.3651	0.904
11.4059	0.911
11.4467	0.912
11.4876	0.911
11.5284	0.907
11.5693	0.911
11.6101	0.907
11.6509	0.897
11.6918	0.895
11.7326	0.895
11.7735	0.895
11.8143	0.899
11.8551	0.905
11.896	0.912
11.9368	0.904
11.9776	0.888
12.0185	0.883
12.0593	0.892
12.1002	0.895
12.141	0.895
12.1818	0.897
12.2227	0.902
12.2635	0.902
12.3043	0.895
12.3452	0.885
12.386	0.882
12.4269	0.876
12.4677	0.864
12.5085	0.859
12.5494	0.858
12.5902	0.858
12.631	0.844
12.6719	0.825
12.7127	0.808
12.7536	0.806
12.7944	0.801
12.8352	0.794
12.8761	0.788
12.9169	0.779
12.9578	0.762
12.9986	0.741
13.0394	0.721
13.0803	0.709
13.1211	0.697
13.1619	0.673
13.2028	0.637
13.2436	0.584
13.2845	0.531
13.3253	0.488
13.3661	0.464
13.407	0.459
13.4478	0.461
13.4886	0.464
13.5295	0.471
13.5703	0.478
13.6112	0.492
13.652	0.517
13.6928	0.543
13.7337	0.572
13.7745	0.596
13.8154	0.61
13.8562	0.617
13.897	0.617
13.9379	0.625
13.9787	0.637
14.0195	0.651
14.0604	0.654
14.1012	0.654
14.1421	0.654
14.1829	0.654
14.2237	0.652
14.2646	0.647
14.3054	0.635
14.3462	0.618
14.3871	0.606
14.4279	0.594
14.4688	0.586
14.5096	0.584
14.5504	0.584
14.5913	0.594
14.6321	0.61
14.673	0.629
14.7138	0.651
14.7546	0.666
14.7955	0.683
14.8363	0.704
14.8771	0.716
14.918	0.726
14.9588	0.733
14.9997	0.738
15.0405	0.747
15.0813	0.75
15.1222	0.757
15.163	0.758
15.2038	0.758
15.2447	0.758
15.2855	0.758
15.3264	0.758
15.3672	0.758
15.408	0.758
15.4489	0.755
15.4897	0.752
15.5305	0.75
15.5714	0.747
15.6122	0.747
15.6531	0.738
15.6939	0.736
15.7347	0.736
15.7756	0.735
15.8164	0.733
15.8573	0.731
15.8981	0.728
15.9389	0.726
15.9798	0.726
