Infrared Spectrum: BENZYLAMINE, 2,4-DIMETHYL-
Formula: C9 H13 N
CAS: 94-98-4
State: LIQUID (NEAT)
Class: COBLENTZ III
Instrument: DOW KBr FOREPRISM-GRATING
Instrument parameters: BLAZED AT 3.5, 12.0, 20.0 MICRON AND CHANGED AT 5.0, 7.5, 14.9 MICRON
Sampling: TRANSMISSION
Path length: CAPILLARY
Resolution: 2
Origin: DOW CHEMICAL COMPANY
1/CM	TRANSMITTANCE
457	0.8169
466	0.8342
475	0.8353
484	0.8315
493	0.8108
502	0.7888
511	0.7882
520	0.814
529	0.8263
538	0.7886
547	0.8057
556	0.8197
565	0.8086
574	0.7086
583	0.7799
592	0.8414
601	0.84
610	0.8533
619	0.8613
628	0.8614
637	0.8621
646	0.8618
655	0.85
664	0.8488
673	0.856
682	0.8525
691	0.8328
700	0.7658
709	0.7608
718	0.8194
727	0.8025
736	0.7671
745	0.6462
754	0.6699
763	0.7065
772	0.5825
781	0.6847
790	0.6518
799	0.5398
808	0.4154
817	0.295
826	0.4042
835	0.5103
844	0.5124
853	0.5035
862	0.5004
871	0.4638
880	0.495
889	0.5443
898	0.5937
907	0.6379
916	0.6907
925	0.7011
934	0.7374
943	0.7565
952	0.7887
961	0.8105
970	0.8042
979	0.7901
988	0.7876
997	0.8003
1006	0.8017
1015	0.773
1024	0.7122
1033	0.6422
1042	0.6883
1051	0.7106
1060	0.7747
1069	0.8051
1078	0.832
1087	0.8439
1096	0.837
1105	0.862
1114	0.8613
1123	0.8581
1132	0.8559
1141	0.8446
1150	0.8375
1159	0.7931
1168	0.8593
1177	0.8675
1186	0.8753
1195	0.8743
1204	0.8702
1213	0.8721
1222	0.8802
1231	0.8742
1240	0.8277
1249	0.8266
1258	0.8409
1267	0.8325
1276	0.8045
1285	0.8058
1294	0.8308
1303	0.8244
1312	0.8184
1321	0.8284
1330	0.8175
1339	0.7994
1348	0.78
1357	0.7737
1366	0.7432
1375	0.5675
1384	0.6292
1393	0.7338
1402	0.7494
1411	0.7382
1420	0.7088
1429	0.639
1438	0.5301
1447	0.4365
1456	0.4112
1465	0.4315
1474	0.5074
1483	0.5969
1492	0.5851
1501	0.4365
1510	0.537
1519	0.7017
1528	0.7185
1537	0.7108
1546	0.7034
1555	0.7028
1564	0.6811
1573	0.6395
1582	0.5988
1591	0.5891
1600	0.596
1609	0.5231
1618	0.4544
1627	0.6325
1636	0.6715
1645	0.7256
1654	0.7765
1663	0.8036
1672	0.8259
1681	0.8421
1690	0.854
1699	0.862
1708	0.8686
1717	0.875
1726	0.878
1735	0.8764
1744	0.8709
1753	0.8725
1762	0.8763
1771	0.8809
1780	0.8833
1789	0.8868
1798	0.8866
1807	0.8844
1816	0.8835
1825	0.8823
1834	0.8802
1843	0.8778
1852	0.876
1861	0.8748
1870	0.874
1879	0.8694
1888	0.8604
1897	0.8577
1906	0.8587
1915	0.8634
1924	0.8682
1933	0.8725
1942	0.8757
1951	0.8778
1960	0.8838
1969	0.8799
1978	0.8796
1987	0.882
1996	0.9081
2005	0.9146
2014	0.9151
2023	0.9159
2032	0.9161
2041	0.915
2050	0.9147
2059	0.9147
2068	0.9148
2077	0.9148
2086	0.9145
2095	0.9141
2104	0.9138
2113	0.9132
2122	0.9125
2131	0.912
2140	0.9115
2149	0.9108
2158	0.9102
2167	0.9095
2176	0.9088
2185	0.9082
2194	0.9075
2203	0.9068
2212	0.9061
2221	0.9054
2230	0.9048
2239	0.9042
2248	0.9038
2257	0.9033
2266	0.9024
2275	0.9014
2284	0.9005
2293	0.8997
2302	0.8992
2311	0.909
2320	0.9091
2329	0.9078
2338	0.9058
2347	0.9035
2356	0.9007
2365	0.8964
2374	0.8905
2383	0.8853
2392	0.8808
2401	0.879
2410	0.878
2419	0.8785
2428	0.8762
2437	0.8736
2446	0.8712
2455	0.8687
2464	0.8668
2473	0.8653
2482	0.8637
2491	0.8625
2500	0.8614
2509	0.8602
2518	0.8585
2527	0.8568
2536	0.8551
2545	0.8531
2554	0.8512
2563	0.8493
2572	0.8474
2581	0.8455
2590	0.8436
2599	0.8417
2608	0.8398
2617	0.8378
2626	0.8359
2635	0.834
2644	0.8325
2653	0.8308
2662	0.829
2671	0.8266
2680	0.8239
2689	0.8208
2698	0.8168
2707	0.8115
2716	0.7986
2725	0.7725
2734	0.7571
2743	0.7698
2752	0.7689
2761	0.7611
2770	0.7484
2779	0.7372
2788	0.7278
2797	0.715
2806	0.6845
2815	0.6511
2824	0.6105
2833	0.5431
2842	0.4826
2851	0.4358
2860	0.3737
2869	0.376
2878	0.3924
2887	0.394
2896	0.3814
2905	0.3425
2914	0.2901
2923	0.2954
2932	0.3508
2941	0.3575
2950	0.3908
2959	0.4032
2968	0.4368
2977	0.481
2986	0.5071
2995	0.4929
3004	0.4493
3013	0.4818
3022	0.5304
3031	0.5534
3040	0.5982
3049	0.6558
3058	0.6803
3067	0.6888
3076	0.7075
3085	0.7325
3094	0.7511
3103	0.7504
3112	0.7443
3121	0.7435
3130	0.7522
3139	0.7507
3148	0.7458
3157	0.7384
3166	0.7308
3175	0.7242
3184	0.721
3193	0.72
3202	0.7193
3211	0.7178
3220	0.7148
3229	0.7092
3238	0.6999
3247	0.6862
3256	0.6712
3265	0.6556
3274	0.6379
3283	0.62
3292	0.6088
3301	0.605
3310	0.6171
3319	0.636
3328	0.6511
3337	0.6484
3346	0.6344
3355	0.6039
3364	0.5872
3373	0.591
3382	0.622
3391	0.6598
3400	0.7039
3409	0.7368
3418	0.7478
3427	0.7551
3436	0.7611
3445	0.7658
3454	0.7707
3463	0.7754
3472	0.7801
3481	0.7848
3490	0.7895
3499	0.7942
3508	0.799
3517	0.8038
3526	0.8087
3535	0.8136
3544	0.8178
3553	0.8221
3562	0.8265
3571	0.83
3580	0.8336
3589	0.8368
3598	0.8398
3607	0.8389
3616	0.8358
3625	0.8336
3634	0.8359
3643	0.8378
3652	0.8412
3661	0.8471
3670	0.8489
3679	0.8423
3688	0.8428
3697	0.852
3706	0.8518
3715	0.8511
3724	0.8505
3733	0.8507
3742	0.8506
3751	0.8503
3760	0.8506
3769	0.8513
3778	0.8518
3787	0.8521
3796	0.8524
