Infrared Spectrum: 1,2-Dimethylbenzene
Formula: 1,2-( C H3)2 C6 H4
CAS: 95-47-6
State: gas
Melting point: -25.18 C
Boiling point: 144.4 C
Class: IUPAC A
Instrument: IFS66V (Bruker)
Instrument parameters: KBr Beam Splitter; MCT Detector; Multipass cell
Sampling: 1 L/min Flow
Resolution: 0.4820
Temperature: 23 C
Pressure: 101.3 Pa
Origin: NIST, Analytical Chemistry Division, 301-975-3108
cm-1	(micromol/mol)-1m-1 (base 10)
575.17	2.59197e-06
583.848	3.61842e-06
592.526	1.09576e-06
601.205	1.10793e-07
609.883	-1.67297e-07
618.561	-5.10893e-07
627.239	-1.6857e-07
635.917	5.37794e-08
644.595	-2.38965e-07
653.274	-6.40871e-08
661.952	-7.75179e-08
670.63	4.66984e-07
679.308	2.49793e-07
687.986	5.70227e-07
696.665	5.91195e-07
705.343	1.76319e-06
714.021	5.36227e-06
722.699	5.7874e-05
731.377	0.000223487
740.055	0.000756023
748.734	0.000238775
757.412	9.00412e-05
766.09	7.18888e-06
774.768	1.8958e-06
783.446	1.35162e-06
792.124	8.56584e-07
800.803	4.85683e-07
809.481	8.03246e-07
818.159	1.50305e-06
826.837	1.53721e-06
835.515	1.15549e-06
844.194	8.54981e-07
852.872	1.0272e-06
861.55	2.22322e-06
870.228	3.20249e-06
878.906	2.04959e-06
887.584	1.23117e-06
896.263	1.64253e-06
904.941	1.8109e-06
913.619	1.98638e-06
922.297	2.1987e-06
930.975	7.26087e-06
939.654	3.43815e-06
948.332	2.61128e-06
957.01	2.01467e-06
965.688	2.9857e-06
974.366	1.20096e-05
983.044	2.19157e-05
991.723	2.11064e-05
1000.4	9.67431e-06
1009.08	1.17438e-05
1017.76	1.57015e-05
1026.44	1.51803e-05
1035.11	1.1855e-05
1043.79	2.29827e-05
1052.47	3.32688e-05
1061.15	3.52084e-05
1069.83	5.51745e-06
1078.5	1.47611e-06
1087.18	1.20466e-06
1095.86	1.41522e-06
1104.54	3.33476e-06
1113.22	1.39195e-05
1121.9	1.71285e-05
1130.57	1.7047e-05
1139.25	1.09747e-05
1147.93	8.30603e-06
1156.61	5.24384e-06
1165.29	4.16639e-06
1173.96	3.62265e-06
1182.64	2.9388e-06
1191.32	2.32162e-06
1200	1.95058e-06
1208.68	2.75756e-06
1217.36	7.31837e-06
1226.03	9.34143e-06
1234.71	6.00987e-06
1243.39	1.04291e-06
1252.07	8.64665e-07
1260.75	1.22906e-06
1269.42	1.56626e-06
1278.1	1.6964e-06
1286.78	1.95006e-06
1295.46	2.13708e-06
1304.14	1.67621e-06
1312.82	1.68654e-06
1321.49	2.21517e-06
1330.17	2.81202e-06
1338.85	3.27522e-06
1347.53	3.9064e-06
1356.21	4.57171e-06
1364.88	6.48162e-06
1373.56	1.35645e-05
1382.24	2.41009e-05
1390.92	2.11439e-05
1399.6	1.56083e-05
1408.28	7.14404e-06
1416.95	8.15131e-06
1425.63	1.15804e-05
1434.31	2.33549e-05
1442.99	4.55314e-05
1451.67	7.38409e-05
1460.34	0.000125237
1469.02	0.000133517
1477.7	0.000115136
1486.38	7.97042e-05
1495.06	0.000123628
1503.74	9.2949e-05
1512.41	3.91295e-05
1521.09	8.39381e-06
1529.77	7.92449e-06
1538.45	7.58845e-06
1547.13	7.34025e-06
1555.8	6.60363e-06
1564.48	6.0156e-06
1573.16	6.45945e-06
1581.84	1.22809e-05
1590.52	2.36242e-05
1599.2	2.47526e-05
1607.87	2.97804e-05
1616.55	2.1578e-05
1625.23	1.04433e-05
1633.91	2.60727e-06
1642.59	1.33203e-06
1651.26	1.21053e-06
1659.94	3.37779e-06
1668.62	5.76711e-06
1677.3	6.14409e-06
1685.98	2.43019e-06
1694.66	1.64884e-06
1703.33	2.47832e-06
1712.01	3.27437e-06
1720.69	3.22421e-06
1729.37	1.22161e-06
1738.05	1.09786e-06
1746.72	1.2871e-06
1755.4	1.57864e-06
1764.08	1.91161e-06
1772.76	3.08795e-06
1781.44	9.24045e-06
1790.12	9.55075e-06
1798.79	3.85818e-06
1807.47	8.68045e-07
1816.15	2.65632e-06
1824.83	5.66398e-06
1833.51	6.07139e-06
1842.18	1.02788e-06
1850.86	2.78283e-06
1859.54	4.92508e-06
1868.22	5.48666e-06
1876.9	4.11324e-06
1885.58	6.31963e-06
1894.25	1.26239e-05
1902.93	1.0989e-05
1911.61	6.68838e-06
1920.29	7.50629e-07
1928.97	2.20264e-06
1937.64	8.76124e-06
1946.32	6.63524e-06
1955	3.30821e-06
1963.68	1.18123e-06
1972.36	8.34528e-07
1981.04	6.91175e-07
1989.71	4.52391e-07
1998.39	1.90342e-07
2007.07	2.4277e-07
2015.75	1.87892e-08
2024.43	-1.05627e-07
2033.1	-1.30741e-07
2041.78	-6.43127e-08
2050.46	-4.0858e-08
2059.14	-1.83902e-07
2067.82	-3.29583e-07
2076.5	-3.66286e-07
2085.17	-1.30706e-07
2093.85	-3.22225e-07
2102.53	9.83697e-08
2111.21	3.22875e-07
2119.89	7.08914e-07
2128.56	1.09301e-07
2137.24	-3.63531e-07
2145.92	-2.73213e-07
2154.6	-7.72578e-08
2163.28	-1.27792e-07
2171.96	-1.77117e-07
2180.63	-1.42031e-07
2189.31	-9.42481e-08
2197.99	3.95705e-07
2206.67	9.25638e-07
2215.35	7.47062e-07
2224.02	4.00918e-07
2232.7	1.85268e-07
2241.38	4.32316e-08
2250.06	-2.20729e-07
2258.74	1.17579e-07
2267.42	7.04558e-07
2276.09	1.0472e-06
2284.77	8.30586e-07
2293.45	2.4396e-07
2302.13	1.62242e-07
2310.81	6.95906e-07
2319.48	1.2783e-06
2328.16	8.59609e-07
2336.84	9.07564e-07
2345.52	6.93734e-07
2354.2	-5.16626e-07
2362.88	-3.67356e-06
2371.55	-1.40384e-06
2380.23	-1.12663e-08
2388.91	2.62049e-08
2397.59	2.41654e-07
2406.27	9.03546e-07
2414.94	1.15856e-06
2423.62	1.68357e-06
2432.3	2.12385e-06
2440.98	2.29763e-06
2449.66	1.84563e-06
2458.34	1.27075e-06
2467.01	7.71928e-07
2475.69	5.79027e-07
2484.37	5.78539e-07
2493.05	6.35624e-07
2501.73	3.8497e-07
2510.4	3.18444e-07
2519.08	3.22154e-07
2527.76	-3.47464e-08
2536.44	-1.3706e-07
2545.12	-4.99597e-08
2553.8	3.42352e-07
2562.47	1.37739e-06
2571.15	2.74521e-06
2579.83	2.77094e-06
2588.51	1.68585e-06
2597.19	7.78406e-07
2605.86	9.07082e-07
2614.54	1.16576e-06
2623.22	7.05044e-07
2631.9	1.51005e-07
2640.58	-1.76433e-09
2649.26	-1.5999e-08
2657.93	1.18409e-07
2666.61	3.01819e-07
2675.29	5.49555e-07
2683.97	6.0087e-07
2692.65	6.15592e-07
2701.32	5.38544e-07
2710	1.21599e-06
2718.68	2.44298e-06
2727.36	4.80494e-06
2736.04	1.0918e-05
2744.71	1.12784e-05
2753.39	7.82871e-06
2762.07	3.59671e-06
2770.75	4.65658e-06
2779.43	5.01039e-06
2788.11	3.33866e-06
2796.78	3.24423e-06
2805.46	4.33325e-06
2814.14	6.39174e-06
2822.82	8.25257e-06
2831.5	1.07275e-05
2840.17	1.34986e-05
2848.85	1.99318e-05
2857.53	3.83065e-05
2866.21	7.11691e-05
2874.89	0.000106857
2883.57	0.000120414
2892.24	0.000111339
2900.92	9.16853e-05
2909.6	8.71196e-05
2918.28	0.00010802
2926.96	0.000162987
2935.63	0.00020557
2944.31	0.00020252
2952.99	0.000213392
2961.67	0.000145899
2970.35	0.000161759
2979.03	0.00016618
2987.7	0.000147832
2996.38	6.35678e-05
3005.06	4.91888e-05
3013.74	8.81717e-05
3022.42	0.000174124
3031.09	0.000208547
3039.77	0.000136868
3048.45	9.65458e-05
3057.13	0.000115158
3065.81	0.000143023
3074.49	0.000142885
3083.16	0.000120059
3091.84	7.59342e-05
3100.52	3.83305e-05
3109.2	2.913e-05
3117.88	2.50615e-05
3126.55	1.73662e-05
3135.23	6.42222e-06
3143.91	4.25822e-06
3152.59	3.41291e-06
3161.27	3.42964e-06
3169.95	3.50658e-06
3178.62	2.67477e-06
3187.3	1.64776e-06
3195.98	9.95782e-07
3204.66	7.63698e-07
3213.34	4.52575e-07
3222.01	4.29995e-07
3230.69	2.38825e-07
3239.37	-1.48131e-08
3248.05	1.19605e-07
3256.73	5.2679e-08
3265.41	1.90766e-08
3274.08	-7.70122e-08
3282.76	3.57232e-08
3291.44	2.18705e-07
3300.12	2.16831e-08
3308.8	2.51045e-08
3317.47	2.0477e-07
3326.15	-1.04288e-07
3334.83	-6.19917e-08
3343.51	-1.56353e-08
3352.19	-2.75225e-07
3360.87	1.39746e-07
3369.54	1.73065e-07
3378.22	5.89485e-07
3386.9	8.18832e-08
3395.58	2.01845e-07
3404.26	-2.63613e-08
3412.93	-1.0485e-07
3421.61	-1.86235e-07
3430.29	9.36879e-08
3438.97	-1.76433e-10
3447.65	-8.5341e-08
3456.33	4.33982e-07
3465	4.74691e-07
3473.68	3.24614e-07
3482.36	2.38798e-07
3491.04	-7.95096e-08
3499.72	-2.11553e-07
3508.39	-1.13627e-08
3517.07	-1.75135e-07
3525.75	-2.09548e-07
3534.43	-3.53598e-07
3543.11	-9.75221e-08
3551.79	-2.37055e-07
3560.46	-1.26688e-07
3569.14	8.12503e-08
3577.82	-1.16046e-09
3586.5	-3.45651e-07
3595.18	7.3138e-08
3603.85	4.63192e-07
3612.53	4.69931e-08
3621.21	3.8246e-08
3629.89	-6.961e-07
3638.57	-1.40637e-07
3647.25	-3.83148e-07
3655.92	-2.15056e-07
3664.6	-1.759e-07
3673.28	-9.16234e-08
3681.96	-1.21925e-07
3690.64	-4.28622e-07
3699.31	-1.77565e-07
3707.99	-3.33577e-07
3716.67	-3.23075e-07
3725.35	-3.80849e-07
3734.03	-3.92655e-07
3742.71	-7.01532e-08
3751.38	-1.20448e-08
3760.06	8.42696e-09
3768.74	1.93093e-07
3777.42	9.38189e-08
3786.1	1.97314e-08
3794.77	2.23921e-07
3803.45	1.66275e-07
3812.13	1.8466e-07
3820.81	1.34362e-08
3829.49	7.71006e-07
3838.17	3.26742e-07
3846.84	1.10495e-06
3855.52	1.33787e-06
3864.2	1.59788e-06
3872.88	1.6523e-06
3881.56	1.85025e-06
3890.23	2.20895e-06
3898.91	2.54594e-06
3907.59	2.80169e-06
3916.27	1.57563e-06
3924.95	9.41617e-07
3933.63	7.76285e-07
3942.3	6.26187e-07
3950.98	8.17536e-07
3959.66	1.06064e-06
3968.34	1.02422e-06
