Infrared Spectrum: 1,2-Dimethylbenzene
Formula: 1,2-( C H3)2 C6 H4
CAS: 95-47-6
State: gas
Melting point: -25.18 C
Boiling point: 144.4 C
Class: IUPAC A
Instrument: IFS66V (Bruker)
Instrument parameters: KBr Beam Splitter; MCT Detector; Multipass cell
Sampling: 1 L/min Flow
Resolution: 0.2410
Temperature: 23 C
Pressure: 101.3 Pa
Origin: NIST, Analytical Chemistry Division, 301-975-3108
cm-1	(micromol/mol)-1m-1 (base 10)
575.05	-2.81152e-06
583.608	-1.39624e-06
592.165	1.21367e-06
600.723	-1.40182e-06
609.281	-1.0356e-06
617.838	3.82104e-07
626.396	1.40811e-06
634.954	1.65967e-06
643.511	4.8932e-08
652.069	-8.8147e-07
660.626	4.31449e-07
669.184	3.77447e-07
677.742	-2.09583e-07
686.299	1.46853e-07
694.857	6.16955e-07
703.415	1.15459e-06
711.972	2.07542e-06
720.53	3.15222e-05
729.088	0.000191682
737.645	0.00023452
746.203	0.000205133
754.761	0.000155478
763.318	1.54377e-05
771.876	2.76833e-06
780.434	1.16437e-06
788.991	2.35102e-07
797.549	1.7729e-07
806.106	9.34771e-07
814.664	9.34394e-07
823.222	1.71681e-06
831.779	6.66078e-07
840.337	8.34055e-07
848.895	9.24894e-07
857.452	1.5138e-06
866.01	2.5743e-06
874.568	2.29586e-06
883.125	1.47988e-06
891.683	1.56686e-06
900.241	2.12988e-06
908.798	2.14321e-06
917.356	2.2043e-06
925.914	2.81689e-06
934.471	2.97956e-06
943.029	3.56149e-06
951.586	2.21285e-06
960.144	2.20057e-06
968.702	4.50116e-06
977.259	1.73393e-05
985.817	2.30909e-05
994.375	1.76122e-05
1002.93	8.98734e-06
1011.49	1.33421e-05
1020.05	1.75271e-05
1028.61	1.3484e-05
1037.16	1.11251e-05
1045.72	3.21556e-05
1054.28	5.23173e-05
1062.84	2.92615e-05
1071.39	3.92428e-06
1079.95	1.2091e-06
1088.51	1.76518e-06
1097.07	1.46083e-06
1105.62	3.66927e-06
1114.18	1.5319e-05
1122.74	1.84752e-05
1131.3	1.67425e-05
1139.85	1.05441e-05
1148.41	8.44427e-06
1156.97	4.89674e-06
1165.53	4.00792e-06
1174.09	3.51305e-06
1182.64	2.83566e-06
1191.2	2.06602e-06
1199.76	2.0215e-06
1208.32	2.57807e-06
1216.87	7.16768e-06
1225.43	9.29705e-06
1233.99	6.97038e-06
1242.55	1.46248e-06
1251.1	7.08371e-07
1259.66	1.22688e-06
1268.22	1.26189e-06
1276.78	1.81953e-06
1285.33	2.03768e-06
1293.89	2.01504e-06
1302.45	1.43717e-06
1311.01	1.95571e-06
1319.57	2.11526e-06
1328.12	2.42167e-06
1336.68	3.09424e-06
1345.24	4.16998e-06
1353.8	3.47123e-06
1362.35	5.40594e-06
1370.91	1.07887e-05
1379.47	1.49256e-05
1388.03	2.34225e-05
1396.58	2.21351e-05
1405.14	7.61789e-06
1413.7	7.09848e-06
1422.26	9.00325e-06
1430.81	1.78047e-05
1439.37	3.10805e-05
1447.93	6.77559e-05
1456.49	9.6136e-05
1465.05	0.000144149
1473.6	0.000123316
1482.16	8.95663e-05
1490.72	9.45574e-05
1499.28	0.000110188
1507.83	9.34795e-05
1516.39	1.41078e-05
1524.95	8.4224e-06
1533.51	8.05343e-06
1542.06	6.4289e-06
1550.62	7.13483e-06
1559.18	6.21436e-06
1567.74	5.80271e-06
1576.29	6.12636e-06
1584.85	1.51673e-05
1593.41	2.61521e-05
1601.97	3.035e-05
1610.53	2.52082e-05
1619.08	2.13491e-05
1627.64	6.72658e-06
1636.2	2.07057e-06
1644.76	9.82553e-07
1653.31	-1.53558e-06
1661.87	4.43094e-06
1670.43	7.01034e-06
1678.99	6.0484e-06
1687.54	2.62158e-06
1696.1	1.09097e-06
1704.66	2.81592e-06
1713.22	3.50825e-06
1721.77	3.31723e-06
1730.33	1.32743e-06
1738.89	9.9587e-07
1747.45	1.24053e-06
1756.01	1.39997e-06
1764.56	1.88922e-06
1773.12	4.54554e-06
1781.68	9.19099e-06
1790.24	9.56683e-06
1798.79	4.021e-06
1807.35	9.27346e-07
1815.91	2.53134e-06
1824.47	5.84167e-06
1833.02	5.81434e-06
1841.58	1.20548e-06
1850.14	2.47787e-06
1858.7	4.4688e-06
1867.25	5.54546e-06
1875.81	4.08473e-06
1884.37	5.75007e-06
1892.93	1.17123e-05
1901.49	9.69559e-06
1910.04	8.51803e-06
1918.6	1.26277e-06
1927.16	1.26723e-06
1935.72	7.94393e-06
1944.27	1.27699e-05
1952.83	5.97073e-06
1961.39	1.09221e-06
1969.95	1.03872e-06
1978.5	7.47311e-07
1987.06	3.69066e-07
1995.62	4.05318e-07
2004.18	1.49068e-07
2012.73	-9.35424e-08
2021.29	-7.17629e-08
2029.85	1.08807e-07
2038.41	-1.09098e-07
2046.97	2.97245e-08
2055.52	-2.22848e-07
2064.08	-5.30047e-07
2072.64	-3.60606e-07
2081.2	-2.22428e-07
2089.75	-2.14574e-07
2098.31	-2.0694e-07
2106.87	1.94801e-07
2115.43	7.27702e-07
2123.98	2.34534e-07
2132.54	-1.0829e-07
2141.1	-6.25107e-07
2149.66	-1.9424e-08
2158.21	3.2294e-07
2166.77	-1.88167e-07
2175.33	-3.77264e-07
2183.89	-2.26691e-07
2192.45	9.71875e-08
2201	6.80161e-07
2209.56	8.34022e-07
2218.12	6.60241e-07
2226.68	4.36672e-07
2235.23	2.51185e-07
2243.79	-3.22255e-08
2252.35	-3.81851e-07
2260.91	1.68781e-07
2269.46	9.58222e-07
2278.02	9.01987e-07
2286.58	7.60369e-07
2295.14	1.31097e-07
2303.69	1.41343e-07
2312.25	1.10446e-06
2320.81	2.99973e-07
2329.37	1.12831e-06
2337.93	7.24883e-07
2346.48	1.16622e-06
2355.04	5.05059e-07
2363.6	-4.98491e-07
2372.16	1.83036e-08
2380.71	-4.48786e-07
2389.27	3.07572e-07
2397.83	2.1965e-07
2406.39	9.06418e-07
2414.94	1.2814e-06
2423.5	1.76135e-06
2432.06	2.20696e-06
2440.62	2.33144e-06
2449.17	1.89906e-06
2457.73	1.38039e-06
2466.29	8.56987e-07
2474.85	4.87201e-07
2483.41	5.13206e-07
2491.96	4.96514e-07
2500.52	4.53077e-07
2509.08	4.40265e-07
2517.64	4.81095e-07
2526.19	-2.03037e-07
2534.75	1.49132e-08
2543.31	-2.87361e-07
2551.87	1.62848e-07
2560.42	1.07571e-06
2568.98	2.43563e-06
2577.54	2.71911e-06
2586.1	2.41712e-06
2594.65	9.96062e-07
2603.21	7.75939e-07
2611.77	1.05536e-06
2620.33	9.69052e-07
2628.89	2.23905e-07
2637.44	-2.84032e-07
2646	2.36184e-07
2654.56	-4.69167e-08
2663.12	-8.70107e-08
2671.67	4.35708e-07
2680.23	4.89704e-07
2688.79	5.76539e-07
2697.35	5.92567e-07
2705.9	1.28531e-06
2714.46	1.63225e-06
2723.02	3.6002e-06
2731.58	7.07423e-06
2740.13	1.14935e-05
2748.69	1.18921e-05
2757.25	4.04229e-06
2765.81	3.91191e-06
2774.37	4.49534e-06
2782.92	3.86618e-06
2791.48	3.14175e-06
2800.04	3.56936e-06
2808.6	4.66233e-06
2817.15	6.8968e-06
2825.71	9.01175e-06
2834.27	1.14583e-05
2842.83	1.51661e-05
2851.38	2.33479e-05
2859.94	4.67407e-05
2868.5	8.14779e-05
2877.06	0.000113082
2885.61	0.000118862
2894.17	0.000108129
2902.73	9.02306e-05
2911.29	9.15273e-05
2919.85	0.000115778
2928.4	0.000171655
2936.96	0.00021077
2945.52	0.000198353
2954.08	0.000197798
2962.63	0.000146105
2971.19	0.000167502
2979.75	0.000157584
2988.31	0.000141585
2996.86	6.07942e-05
3005.42	4.9617e-05
3013.98	9.00666e-05
3022.54	0.000175568
3031.09	0.000209785
3039.65	0.000137408
3048.21	9.63412e-05
3056.77	0.00011394
3065.33	0.000141398
3073.88	0.000146059
3082.44	0.000124087
3091	8.08852e-05
3099.56	4.24367e-05
3108.11	2.87141e-05
3116.67	2.58912e-05
3125.23	1.96159e-05
3133.79	7.03028e-06
3142.34	4.1828e-06
3150.9	3.22473e-06
3159.46	3.06962e-06
3168.02	3.44844e-06
3176.57	2.77284e-06
3185.13	1.61633e-06
3193.69	1.18341e-06
3202.25	1.23954e-06
3210.81	8.58937e-07
3219.36	2.83179e-07
3227.92	5.43651e-07
3236.48	8.70107e-08
3245.04	-3.95267e-07
3253.59	2.53267e-07
3262.15	5.66204e-07
3270.71	-3.03829e-07
3279.27	-3.5229e-07
3287.82	5.14692e-07
3296.38	3.68847e-07
3304.94	-1.9575e-08
3313.5	5.98786e-07
3322.05	-7.7818e-08
3330.61	-4.67257e-07
3339.17	3.74602e-08
3347.73	-7.17152e-07
3356.29	-9.40175e-07
3364.84	6.40942e-07
3373.4	1.53515e-09
3381.96	6.89818e-08
3390.52	3.38861e-07
3399.07	-2.78908e-07
3407.63	3.59364e-07
3416.19	-2.35677e-07
3424.75	1.26828e-07
3433.3	2.49266e-07
3441.86	1.84591e-07
3450.42	2.95864e-07
3458.98	3.83299e-07
3467.53	7.93471e-07
3476.09	-3.64713e-07
3484.65	3.691e-07
3493.21	3.2953e-07
3501.77	1.16708e-07
3510.32	-2.03633e-07
3518.88	-1.0433e-07
3527.44	-4.14935e-07
3536	-3.08997e-07
3544.55	2.61507e-07
3553.11	-1.42409e-07
3561.67	-2.47592e-07
3570.23	2.66622e-07
3578.78	-1.75173e-07
3587.34	1.96154e-07
3595.9	2.10936e-07
3604.46	3.23966e-07
3613.01	5.92434e-07
3621.57	-1.15025e-07
3630.13	-1.20233e-07
3638.69	-2.98663e-07
3647.25	-2.94054e-07
3655.8	-4.62746e-08
3664.36	-2.03415e-07
3672.92	-1.50168e-08
3681.48	-5.01489e-08
3690.03	-6.45057e-07
3698.59	-6.88523e-07
3707.15	-7.17611e-08
3715.71	-6.36615e-10
3724.26	-1.01906e-07
3732.82	-3.62967e-07
3741.38	-3.06885e-07
3749.94	-1.32862e-07
3758.49	3.58172e-07
3767.05	3.08302e-07
3775.61	-3.63089e-08
3784.17	1.44839e-08
3792.73	9.85771e-08
3801.28	-8.36538e-07
3809.84	9.06272e-07
3818.4	4.47417e-07
3826.96	8.34921e-07
3835.51	9.88707e-07
3844.07	1.6294e-06
3852.63	1.12659e-06
3861.19	1.54209e-06
3869.74	1.80514e-06
3878.3	1.82891e-06
3886.86	2.6177e-06
3895.42	3.11936e-06
3903.97	3.03546e-06
3912.53	2.35767e-06
3921.09	1.2537e-06
3929.65	4.43803e-07
3938.21	4.85443e-07
3946.76	1.03656e-06
3955.32	9.27692e-07
3963.88	1.18338e-06
3972.44	4.22765e-07
