Infrared Spectrum: o-Cresol
Formula: C7 H8 O
CAS: 95-48-7
State: LIQUID (NEAT)
Boiling point: 190 C
Class: COBLENTZ III
Instrument: PERKIN-ELMER 21 (GRATING)
Instrument parameters: FILTER CHANGE ABOUT 1025 CM^-^1
Sampling: TRANSMISSION
Path length: CAPILLARY
Resolution: 2
Origin: SOUTHERN RESEARCH INSTITUTE
1/CM	TRANSMITTANCE
600.505	0.529
609.531	0.529
618.558	0.5335
627.584	0.5379
636.61	0.5426
645.636	0.5478
654.663	0.5581
663.689	0.5751
672.715	0.5955
681.742	0.6024
690.768	0.6046
699.794	0.5992
708.82	0.5183
717.847	0.524
726.873	0.5886
735.899	0.5465
744.925	0.3213
753.952	0.1446
762.978	0.3016
772.004	0.5585
781.031	0.751
790.057	0.7706
799.083	0.7721
808.109	0.7709
817.136	0.7616
826.162	0.7468
835.188	0.6855
844.215	0.4197
853.241	0.7678
862.267	0.829
871.293	0.8442
880.32	0.846
889.346	0.8465
898.372	0.8453
907.399	0.8425
916.425	0.8316
925.451	0.8121
934.477	0.8045
943.504	0.839
952.53	0.8409
961.556	0.8257
970.582	0.8047
979.609	0.7709
988.635	0.767
997.661	0.8347
1006.69	0.8483
1015.71	0.852
1024.74	0.8278
1033.77	0.703
1042.79	0.5789
1051.82	0.8172
1060.85	0.8268
1069.87	0.8204
1078.9	0.7917
1087.92	0.7381
1096.95	0.6178
1105.98	0.2558
1115	0.4235
1124.03	0.7736
1133.06	0.7727
1142.08	0.7284
1151.11	0.5782
1160.13	0.5261
1169.16	0.3473
1178.19	0.3377
1187.21	0.4514
1196.24	0.4262
1205.27	0.3276
1214.29	0.3619
1223.32	0.3776
1232.34	0.3158
1241.37	0.2397
1250.4	0.305
1259.42	0.4085
1268.45	0.5577
1277.48	0.7423
1286.5	0.7585
1295.53	0.704
1304.55	0.6981
1313.58	0.7373
1322.61	0.5869
1331.63	0.5007
1340.66	0.537
1349.69	0.5479
1358.71	0.5581
1367.74	0.5815
1376.77	0.6041
1385.79	0.609
1394.82	0.7157
1403.84	0.7524
1412.87	0.7544
1421.9	0.7524
1430.92	0.7331
1439.95	0.6102
1448.98	0.5068
1458	0.4092
1467.03	0.2827
1476.05	0.5062
1485.08	0.4882
1494.11	0.3323
1503.13	0.3783
1512.16	0.5007
1521.19	0.7702
1530.21	0.8398
1539.24	0.8526
1548.26	0.8525
1557.29	0.8437
1566.32	0.822
1575.34	0.7432
1584.37	0.4798
1593.4	0.3778
1602.42	0.6486
1611.45	0.6708
1620.47	0.8193
1629.5	0.8689
1638.53	0.8799
1647.55	0.885
1656.58	0.8838
1665.61	0.8781
1674.63	0.8713
1683.66	0.8691
1692.68	0.8764
1701.71	0.8844
1710.74	0.8879
1719.76	0.8895
1728.79	0.8891
1737.82	0.888
1746.84	0.8859
1755.87	0.8768
1764.9	0.8691
1773.92	0.8721
1782.95	0.8806
1791.97	0.8884
1801	0.8881
1810.03	0.8875
1819.05	0.8965
1828.08	0.8963
1837.11	0.8898
1846.13	0.8882
1855.16	0.8881
1864.18	0.8864
1873.21	0.8818
1882.24	0.8713
1891.26	0.8709
1900.29	0.8795
1909.32	0.8865
1918.34	0.886
1927.37	0.8859
1936.39	0.8865
1945.42	0.891
1954.45	0.8985
1963.47	0.9008
1972.5	0.901
1981.53	0.9008
1990.55	0.9002
1999.58	0.9007
2008.6	0.9037
2017.63	0.908
2026.66	0.9087
2035.68	0.9085
2044.71	0.9083
2053.74	0.9079
2062.76	0.9068
2071.79	0.9054
2080.81	0.9044
2089.84	0.9036
2098.87	0.9039
2107.89	0.9061
2116.92	0.9093
2125.95	0.911
2134.97	0.9112
2144	0.911
2153.03	0.9108
2162.05	0.9103
2171.08	0.9103
2180.1	0.9103
2189.13	0.9105
2198.16	0.9103
2207.18	0.9095
2216.21	0.9086
2225.24	0.9074
2234.26	0.9062
2243.29	0.9046
2252.31	0.9027
2261.34	0.9001
2270.37	0.8969
2279.39	0.8913
2288.42	0.8858
2297.45	0.881
2306.47	0.8769
2315.5	0.8749
2324.52	0.879
2333.55	0.8854
2342.58	0.8917
2351.6	0.8988
2360.63	0.8997
2369.66	0.8985
2378.68	0.8935
2387.71	0.8848
2396.73	0.878
2405.76	0.8739
2414.79	0.8722
2423.81	0.8716
2432.84	0.8712
2441.87	0.871
2450.89	0.8704
2459.92	0.8697
2468.94	0.869
2477.97	0.8681
2487	0.8672
2496.02	0.8665
2505.05	0.8663
2514.08	0.8661
2523.1	0.866
2532.13	0.8661
2541.16	0.8663
2550.18	0.8665
2559.21	0.8665
2568.23	0.8662
2577.26	0.8659
2586.29	0.8656
2595.31	0.8651
2604.34	0.8647
2613.37	0.8645
2622.39	0.8645
2631.42	0.8643
2640.44	0.8633
2649.47	0.8614
2658.5	0.8583
2667.52	0.8548
2676.55	0.8524
2685.58	0.8516
2694.6	0.8518
2703.63	0.8524
2712.65	0.8542
2721.68	0.8568
2730.71	0.8616
2739.73	0.865
2748.76	0.8665
2757.79	0.8663
2766.81	0.8657
2775.84	0.864
2784.86	0.8612
2793.89	0.8573
2802.92	0.8506
2811.94	0.8401
2820.97	0.8252
2830	0.8085
2839.02	0.785
2848.05	0.7729
2857.07	0.7716
2866.1	0.7706
2875.13	0.7643
2884.15	0.7514
2893.18	0.7373
2902.21	0.7178
2911.23	0.7112
2920.26	0.71
2929.29	0.7117
2938.31	0.7152
2947.34	0.7202
2956.36	0.7318
2965.39	0.7418
2974.42	0.7483
2983.44	0.7484
2992.47	0.743
3001.5	0.7144
3010.52	0.6825
3019.55	0.6791
3028.57	0.6867
3037.6	0.7071
3046.63	0.7232
3055.65	0.7367
3064.68	0.7493
3073.71	0.7637
3082.73	0.7763
3091.76	0.7837
3100.78	0.7842
3109.81	0.7824
3118.84	0.7784
3127.86	0.7705
3136.89	0.7609
3145.92	0.7514
3154.94	0.7399
3163.97	0.7257
3172.99	0.7024
3182.02	0.6805
3191.05	0.6646
3200.07	0.6476
3209.1	0.6284
3218.13	0.6096
3227.15	0.5881
3236.18	0.567
3245.2	0.5495
3254.23	0.5314
3263.26	0.5129
3272.28	0.4941
3281.31	0.4758
3290.34	0.4572
3299.36	0.4382
3308.39	0.422
3317.42	0.4083
3326.44	0.3962
3335.47	0.3853
3344.49	0.3757
3353.52	0.367
3362.55	0.359
3371.57	0.3513
3380.6	0.3445
3389.63	0.3391
3398.65	0.3382
3407.68	0.3383
3416.7	0.3421
3425.73	0.3465
3434.76	0.3507
3443.78	0.353
3452.81	0.3549
3461.84	0.3594
3470.86	0.365
3479.89	0.3712
3488.91	0.3773
3497.94	0.3854
3506.97	0.3934
3515.99	0.4053
3525.02	0.4298
3534.05	0.4547
3543.07	0.4837
3552.1	0.5144
3561.12	0.5563
3570.15	0.6103
3579.18	0.6565
3588.2	0.7033
3597.23	0.7335
3606.26	0.7933
3615.28	0.8186
3624.31	0.8364
3633.34	0.8491
3642.36	0.8598
3651.39	0.8656
3660.41	0.8691
3669.44	0.8716
3678.47	0.8732
3687.49	0.8744
3696.52	0.8748
3705.55	0.8752
3714.57	0.8756
3723.6	0.8755
3732.62	0.8754
3741.65	0.8753
3750.68	0.8752
3759.7	0.8751
3768.73	0.875
3777.76	0.875
3786.78	0.8753
3795.81	0.8756
3804.83	0.876
3813.86	0.8763
3822.89	0.8767
3831.91	0.8772
3840.94	0.8777
3849.97	0.8783
3858.99	0.8788
3868.02	0.879
3877.04	0.879
3886.07	0.879
3895.1	0.8789
3904.12	0.8788
3913.15	0.8785
3922.18	0.8783
3931.2	0.8781
3940.23	0.8787
3949.25	0.8794
3958.28	0.8823
3967.31	0.8812
3976.33	0.8821
3985.36	0.8829
3994.39	0.8842
4003.41	0.8897
