Infrared Spectrum: 1,2-Dimethylbenzene
Formula: 1,2-( C H3)2 C6 H4
CAS: 95-47-6
State: gas
Melting point: -25.18 C
Boiling point: 144.4 C
Class: IUPAC A
Instrument: IFS66V (Bruker)
Instrument parameters: KBr Beam Splitter; MCT Detector; Multipass cell
Sampling: 1 L/min Flow
Resolution: 0.2410
Temperature: 23 C
Pressure: 101.3 Pa
Origin: NIST, Analytical Chemistry Division, 301-975-3108
cm-1	(micromol/mol)-1m-1 (base 10)
575.05	-7.00822e-09
583.608	3.99554e-07
592.165	8.31772e-07
600.723	-1.31147e-06
609.281	-5.76706e-07
617.838	1.94273e-07
626.396	7.5904e-07
634.954	8.88476e-07
643.511	-1.7492e-07
652.069	-3.26702e-07
660.626	2.50584e-07
669.184	3.57832e-08
677.742	-1.1289e-07
686.299	-1.90275e-08
694.857	7.47346e-07
703.415	1.27293e-06
711.972	2.58628e-06
720.53	3.13986e-05
729.088	0.000192451
737.645	0.000234561
746.203	0.000205339
754.761	0.000156036
763.318	1.53137e-05
771.876	2.36144e-06
780.434	1.32287e-06
788.991	6.02109e-07
797.549	3.62403e-07
806.106	6.48511e-07
814.664	1.23958e-06
823.222	1.93439e-06
831.779	9.29149e-07
840.337	8.21259e-07
848.895	7.36056e-07
857.452	1.71618e-06
866.01	2.66705e-06
874.568	2.57471e-06
883.125	1.54985e-06
891.683	1.25483e-06
900.241	1.92554e-06
908.798	2.05351e-06
917.356	2.11729e-06
925.914	2.4197e-06
934.471	3.15452e-06
943.029	3.47332e-06
951.586	2.17729e-06
960.144	2.10143e-06
968.702	4.38411e-06
977.259	1.73189e-05
985.817	2.29283e-05
994.375	1.77063e-05
1002.93	9.08317e-06
1011.49	1.33832e-05
1020.05	1.75223e-05
1028.61	1.38628e-05
1037.16	1.11806e-05
1045.72	3.19546e-05
1054.28	5.24584e-05
1062.84	2.94286e-05
1071.39	3.91175e-06
1079.95	1.19356e-06
1088.51	1.52211e-06
1097.07	1.36774e-06
1105.62	3.78361e-06
1114.18	1.52638e-05
1122.74	1.83819e-05
1131.3	1.66878e-05
1139.85	1.0548e-05
1148.41	8.42221e-06
1156.97	5.01812e-06
1165.53	4.09388e-06
1174.09	3.56266e-06
1182.64	2.94619e-06
1191.2	2.21775e-06
1199.76	2.0453e-06
1208.32	2.60248e-06
1216.87	7.01507e-06
1225.43	9.27807e-06
1233.99	6.84795e-06
1242.55	1.34569e-06
1251.1	8.5308e-07
1259.66	1.20228e-06
1268.22	1.2086e-06
1276.78	1.74779e-06
1285.33	1.99025e-06
1293.89	2.10361e-06
1302.45	1.54078e-06
1311.01	1.83377e-06
1319.57	2.07814e-06
1328.12	2.49808e-06
1336.68	3.04063e-06
1345.24	4.07353e-06
1353.8	3.34769e-06
1362.35	5.44107e-06
1370.91	1.09287e-05
1379.47	1.4627e-05
1388.03	2.32992e-05
1396.58	2.21684e-05
1405.14	7.70846e-06
1413.7	7.14924e-06
1422.26	9.06852e-06
1430.81	1.78338e-05
1439.37	3.10265e-05
1447.93	6.82956e-05
1456.49	9.64901e-05
1465.05	0.000143928
1473.6	0.000123279
1482.16	8.94117e-05
1490.72	9.44936e-05
1499.28	0.000110179
1507.83	9.36571e-05
1516.39	1.42584e-05
1524.95	8.4318e-06
1533.51	7.95542e-06
1542.06	6.44556e-06
1550.62	7.0742e-06
1559.18	6.22328e-06
1567.74	5.75451e-06
1576.29	6.09894e-06
1584.85	1.51687e-05
1593.41	2.61462e-05
1601.97	3.03437e-05
1610.53	2.51753e-05
1619.08	2.12771e-05
1627.64	6.69345e-06
1636.2	2.01108e-06
1644.76	1.04076e-06
1653.31	-1.14342e-06
1661.87	4.39339e-06
1670.43	7.04412e-06
1678.99	5.82996e-06
1687.54	2.48355e-06
1696.1	4.96354e-07
1704.66	2.67874e-06
1713.22	3.54496e-06
1721.77	3.21849e-06
1730.33	1.26673e-06
1738.89	1.05529e-06
1747.45	1.26478e-06
1756.01	1.4987e-06
1764.56	1.93181e-06
1773.12	4.43112e-06
1781.68	9.29703e-06
1790.24	9.58217e-06
1798.79	3.89645e-06
1807.35	8.3623e-07
1815.91	2.5922e-06
1824.47	5.88852e-06
1833.02	5.79166e-06
1841.58	1.14943e-06
1850.14	2.38747e-06
1858.7	4.4579e-06
1867.25	5.47082e-06
1875.81	4.12395e-06
1884.37	5.81152e-06
1892.93	1.16421e-05
1901.49	9.70477e-06
1910.04	8.47745e-06
1918.6	1.14312e-06
1927.16	1.19263e-06
1935.72	7.80681e-06
1944.27	1.26335e-05
1952.83	5.95275e-06
1961.39	1.00477e-06
1969.95	9.74936e-07
1978.5	6.77209e-07
1987.06	4.83325e-07
1995.62	2.95562e-07
2004.18	1.12013e-07
2012.73	-5.60894e-08
2021.29	-1.79162e-08
2029.85	5.72353e-08
2038.41	-7.06424e-08
2046.97	-1.36327e-08
2055.52	-1.244e-07
2064.08	-4.40949e-07
2072.64	-4.44752e-07
2081.2	-2.25005e-07
2089.75	-1.63874e-07
2098.31	-1.48293e-07
2106.87	1.57984e-07
2115.43	7.68654e-07
2123.98	3.07942e-07
2132.54	-1.1564e-07
2141.1	-5.21866e-07
2149.66	-1.17514e-07
2158.21	3.19293e-07
2166.77	-1.56125e-07
2175.33	-3.31353e-07
2183.89	-1.9639e-07
2192.45	1.32416e-09
2201	6.85123e-07
2209.56	1.00071e-06
2218.12	6.60343e-07
2226.68	4.01582e-07
2235.23	1.98622e-07
2243.79	-3.83333e-08
2252.35	-2.64039e-07
2260.91	1.45745e-07
2269.46	9.25842e-07
2278.02	9.41777e-07
2286.58	7.18224e-07
2295.14	1.18836e-07
2303.69	1.6196e-07
2312.25	1.00557e-06
2320.81	5.33833e-07
2329.37	9.57405e-07
2337.93	5.87296e-07
2346.48	1.04943e-06
2355.04	5.64146e-07
2363.6	-2.45157e-07
2372.16	-1.12892e-07
2380.71	-2.59555e-07
2389.27	2.79996e-07
2397.83	1.67983e-07
2406.39	9.60034e-07
2414.94	1.16472e-06
2423.5	1.7113e-06
2432.06	2.19356e-06
2440.62	2.32814e-06
2449.17	1.9527e-06
2457.73	1.33301e-06
2466.29	7.89523e-07
2474.85	4.8537e-07
2483.41	5.5162e-07
2491.96	6.14728e-07
2500.52	4.1137e-07
2509.08	4.4782e-07
2517.64	4.03081e-07
2526.19	-2.36894e-08
2534.75	-9.20818e-08
2543.31	-1.66082e-07
2551.87	2.34762e-07
2560.42	1.04697e-06
2568.98	2.48891e-06
2577.54	2.77119e-06
2586.1	2.24292e-06
2594.65	9.97099e-07
2603.21	7.92118e-07
2611.77	9.77631e-07
2620.33	9.78539e-07
2628.89	1.56622e-07
2637.44	-7.43439e-08
2646	1.376e-07
2654.56	-3.79222e-08
2663.12	2.39858e-08
2671.67	5.23554e-07
2680.23	5.45204e-07
2688.79	5.5101e-07
2697.35	5.30906e-07
2705.9	1.11221e-06
2714.46	1.66052e-06
2723.02	3.561e-06
2731.58	6.98347e-06
2740.13	1.14436e-05
2748.69	1.19232e-05
2757.25	4.12948e-06
2765.81	4.01945e-06
2774.37	4.42643e-06
2782.92	3.98122e-06
2791.48	3.21258e-06
2800.04	3.5045e-06
2808.6	4.7231e-06
2817.15	6.85417e-06
2825.71	9.29044e-06
2834.27	1.12581e-05
2842.83	1.51872e-05
2851.38	2.32388e-05
2859.94	4.66956e-05
2868.5	8.15013e-05
2877.06	0.000113022
2885.61	0.000118542
2894.17	0.000108211
2902.73	9.0544e-05
2911.29	9.11809e-05
2919.85	0.000115743
2928.4	0.000171621
2936.96	0.000210584
2945.52	0.000198425
2954.08	0.000197711
2962.63	0.000146071
2971.19	0.000167574
2979.75	0.000157839
2988.31	0.000141597
2996.86	6.07046e-05
3005.42	4.95849e-05
3013.98	9.00278e-05
3022.54	0.000175477
3031.09	0.000209841
3039.65	0.000137446
3048.21	9.62727e-05
3056.77	0.000113793
3065.33	0.00014175
3073.88	0.000145985
3082.44	0.000124167
3091	8.08565e-05
3099.56	4.24303e-05
3108.11	2.86204e-05
3116.67	2.5707e-05
3125.23	1.97434e-05
3133.79	7.10167e-06
3142.34	4.19985e-06
3150.9	3.23458e-06
3159.46	3.26061e-06
3168.02	3.56192e-06
3176.57	2.84383e-06
3185.13	1.71854e-06
3193.69	1.24362e-06
3202.25	1.10417e-06
3210.81	7.24637e-07
3219.36	3.62901e-07
3227.92	3.55424e-07
3236.48	2.7877e-07
3245.04	-2.79521e-07
3253.59	2.34445e-07
3262.15	3.57963e-07
3270.71	-2.83366e-08
3279.27	-8.23471e-08
3287.82	2.95449e-07
3296.38	3.74153e-07
3304.94	9.70783e-08
3313.5	4.35472e-07
3322.05	5.75718e-08
3330.61	-2.67355e-07
3339.17	6.5444e-09
3347.73	-3.87086e-07
3356.29	-6.20734e-07
3364.84	3.57687e-07
3373.4	8.98864e-08
3381.96	1.55743e-07
3390.52	2.9052e-07
3399.07	-7.38928e-08
3407.63	1.12279e-07
3416.19	-5.70134e-08
3424.75	9.11742e-08
3433.3	1.18332e-07
3441.86	8.4386e-08
3450.42	2.49826e-07
3458.98	3.88826e-07
3467.53	6.14965e-07
3476.09	-1.87529e-09
3484.65	3.71747e-07
3493.21	1.84222e-07
3501.77	-1.19556e-07
3510.32	-1.323e-07
3518.88	-2.16225e-07
3527.44	-2.34489e-07
3536	-3.42282e-07
3544.55	1.1442e-07
3553.11	-8.24289e-08
3561.67	-1.30943e-07
3570.23	1.90675e-07
3578.78	-2.63968e-07
3587.34	-9.76549e-08
3595.9	1.29371e-07
3604.46	4.46525e-07
3613.01	5.51189e-07
3621.57	-1.92043e-07
3630.13	-2.29774e-07
3638.69	-2.70001e-07
3647.25	-4.17756e-07
3655.8	-1.17628e-07
3664.36	-1.82745e-07
3672.92	-1.69296e-07
3681.48	-7.22758e-08
3690.03	-5.40543e-07
3698.59	-4.01602e-07
3707.15	-1.21815e-07
3715.71	-7.08698e-08
3724.26	-3.54367e-07
3732.82	-2.56012e-07
3741.38	-3.22607e-07
3749.94	-3.61816e-08
3758.49	3.11287e-07
3767.05	3.67529e-07
3775.61	-2.0921e-08
3784.17	-1.07972e-07
3792.73	1.05644e-07
3801.28	-9.04232e-07
3809.84	6.23648e-07
3818.4	4.87814e-07
3826.96	6.04506e-07
3835.51	1.02055e-06
3844.07	1.44014e-06
3852.63	1.19891e-06
3861.19	1.59754e-06
3869.74	1.69687e-06
3878.3	1.82602e-06
3886.86	2.22101e-06
3895.42	2.83964e-06
3903.97	2.77759e-06
3912.53	2.09435e-06
3921.09	1.26115e-06
3929.65	5.84787e-07
3938.21	5.29183e-07
3946.76	8.41738e-07
3955.32	9.75249e-07
3963.88	1.21572e-06
3972.44	8.28909e-07
