Infrared Spectrum: 1,2-Dimethylbenzene
Formula: 1,2-( C H3)2 C6 H4
CAS: 95-47-6
State: gas
Melting point: -25.18 C
Boiling point: 144.4 C
Class: IUPAC A
Instrument: IFS66V (Bruker)
Instrument parameters: KBr Beam Splitter; MCT Detector; Multipass cell
Sampling: 1 L/min Flow
Resolution: 0.9640
Temperature: 23 C
Pressure: 101.3 Pa
Origin: NIST, Analytical Chemistry Division, 301-975-3108
cm-1	(micromol/mol)-1m-1 (base 10)
575.17	3.10778e-06
583.848	2.80054e-06
592.526	1.10771e-06
601.205	8.81439e-08
609.883	-1.9537e-07
618.561	-1.80488e-07
627.239	-1.12413e-07
635.917	-9.52649e-08
644.595	-3.9074e-07
653.274	-3.0161e-08
661.952	-3.54704e-08
670.63	4.37626e-07
679.308	2.6469e-07
687.986	4.68716e-07
696.665	5.39793e-07
705.343	1.47685e-06
714.021	4.94864e-06
722.699	5.74027e-05
731.377	0.000224311
740.055	0.000785032
748.734	0.000238789
757.412	8.92574e-05
766.09	6.40996e-06
774.768	1.53114e-06
783.446	1.09919e-06
792.125	6.70643e-07
800.803	4.37789e-07
809.481	7.89499e-07
818.159	1.48453e-06
826.837	1.38123e-06
835.515	9.64564e-07
844.194	8.26927e-07
852.872	9.4276e-07
861.55	2.15256e-06
870.228	3.12243e-06
878.906	2.09401e-06
887.584	1.20939e-06
896.263	1.62242e-06
904.941	1.78759e-06
913.619	1.96272e-06
922.297	2.26288e-06
930.975	7.06653e-06
939.654	3.43296e-06
948.332	2.66813e-06
957.01	1.97325e-06
965.688	2.91871e-06
974.366	1.20494e-05
983.044	2.20215e-05
991.723	2.12033e-05
1000.4	9.63829e-06
1009.08	1.17286e-05
1017.76	1.56769e-05
1026.44	1.51231e-05
1035.11	1.17133e-05
1043.79	2.3063e-05
1052.47	3.34425e-05
1061.15	3.53736e-05
1069.83	5.29828e-06
1078.5	1.49501e-06
1087.18	1.17598e-06
1095.86	1.34373e-06
1104.54	3.34178e-06
1113.22	1.39878e-05
1121.9	1.70507e-05
1130.57	1.71324e-05
1139.25	1.09824e-05
1147.93	8.35098e-06
1156.61	5.19248e-06
1165.29	4.16602e-06
1173.96	3.52173e-06
1182.64	2.91454e-06
1191.32	2.30136e-06
1200	1.99554e-06
1208.68	2.70423e-06
1217.36	7.30237e-06
1226.03	9.40071e-06
1234.71	6.03661e-06
1243.39	1.00188e-06
1252.07	8.34415e-07
1260.75	1.20563e-06
1269.42	1.50541e-06
1278.1	1.70334e-06
1286.78	1.96699e-06
1295.46	2.13238e-06
1304.14	1.64224e-06
1312.82	1.61621e-06
1321.49	2.2086e-06
1330.17	2.839e-06
1338.85	3.2113e-06
1347.53	3.94063e-06
1356.21	4.69453e-06
1364.88	6.46311e-06
1373.56	1.35391e-05
1382.24	2.42641e-05
1390.92	2.13585e-05
1399.6	1.55528e-05
1408.28	7.08068e-06
1416.95	7.98137e-06
1425.63	1.14083e-05
1434.31	2.32327e-05
1442.99	4.53406e-05
1451.67	7.37676e-05
1460.34	0.000126383
1469.02	0.000133883
1477.7	0.000115337
1486.38	7.94906e-05
1495.06	0.000124478
1503.74	9.27847e-05
1512.41	3.89892e-05
1521.09	8.39218e-06
1529.77	7.8118e-06
1538.45	7.34383e-06
1547.13	7.23431e-06
1555.8	6.61157e-06
1564.48	5.87241e-06
1573.16	6.36056e-06
1581.84	1.22369e-05
1590.52	2.36749e-05
1599.2	2.47729e-05
1607.87	2.99215e-05
1616.55	2.19012e-05
1625.23	1.04125e-05
1633.91	2.56672e-06
1642.59	1.26371e-06
1651.26	1.13509e-06
1659.94	3.36938e-06
1668.62	5.68422e-06
1677.3	6.18852e-06
1685.98	2.4222e-06
1694.66	1.65014e-06
1703.33	2.51043e-06
1712.01	3.25754e-06
1720.69	3.24522e-06
1729.37	1.19835e-06
1738.05	1.10832e-06
1746.72	1.25571e-06
1755.4	1.56014e-06
1764.08	1.9018e-06
1772.76	3.49284e-06
1781.44	9.2803e-06
1790.12	9.56612e-06
1798.79	3.82671e-06
1807.47	8.35859e-07
1816.15	2.63912e-06
1824.83	5.66015e-06
1833.51	6.03931e-06
1842.18	9.92024e-07
1850.86	2.75988e-06
1859.54	5.03945e-06
1868.22	5.44721e-06
1876.9	4.13313e-06
1885.58	6.31466e-06
1894.25	1.267e-05
1902.93	1.09884e-05
1911.61	6.67916e-06
1920.29	7.20519e-07
1928.97	2.18795e-06
1937.64	8.81117e-06
1946.32	6.59838e-06
1955	3.28341e-06
1963.68	1.12616e-06
1972.36	8.58199e-07
1981.04	6.84348e-07
1989.71	4.23964e-07
1998.39	1.77443e-07
2007.07	2.34524e-07
2015.75	1.86746e-08
2024.43	-8.27345e-08
2033.1	-1.23529e-07
2041.78	-4.3097e-08
2050.46	-6.82706e-08
2059.14	-2.10274e-07
2067.82	-3.40205e-07
2076.5	-3.49051e-07
2085.17	-1.3462e-07
2093.85	-3.10825e-07
2102.53	6.95966e-08
2111.21	3.93475e-07
2119.89	6.6417e-07
2128.56	1.52313e-07
2137.24	-3.75235e-07
2145.92	-2.55379e-07
2154.6	-1.29213e-07
2163.28	-1.3681e-07
2171.96	-1.77739e-07
2180.63	-1.69398e-07
2189.31	-9.74639e-08
2197.99	4.40179e-07
2206.67	9.55308e-07
2215.35	7.41798e-07
2224.02	4.01071e-07
2232.7	2.0254e-07
2241.38	2.65196e-08
2250.06	-2.2026e-07
2258.74	1.23374e-07
2267.42	7.192e-07
2276.09	1.05412e-06
2284.77	7.98272e-07
2293.45	2.32565e-07
2302.13	1.23716e-07
2310.81	6.31724e-07
2319.48	1.06101e-06
2328.16	3.31855e-07
2336.84	8.2119e-07
2345.52	4.95965e-07
2354.2	-3.80194e-07
2362.88	-2.32291e-06
2371.55	-9.93278e-07
2380.23	-6.92764e-08
2388.91	1.02397e-07
2397.59	2.27835e-07
2406.27	8.97929e-07
2414.94	1.1605e-06
2423.62	1.65229e-06
2432.3	2.12709e-06
2440.98	2.32201e-06
2449.66	1.88829e-06
2458.34	1.21958e-06
2467.01	7.46393e-07
2475.69	5.29571e-07
2484.37	5.81657e-07
2493.05	6.20632e-07
2501.73	3.87066e-07
2510.4	3.26882e-07
2519.08	3.26702e-07
2527.76	-2.84876e-08
2536.44	-1.0777e-07
2545.12	-3.54358e-08
2553.8	3.46681e-07
2562.47	1.39824e-06
2571.15	2.74274e-06
2579.83	2.73447e-06
2588.51	1.72329e-06
2597.19	7.62294e-07
2605.86	9.38853e-07
2614.54	1.15051e-06
2623.22	7.2605e-07
2631.9	1.7789e-07
2640.58	-1.93877e-08
2649.26	-2.4135e-08
2657.93	1.03283e-07
2666.61	2.83181e-07
2675.29	5.32347e-07
2683.97	5.94282e-07
2692.65	5.78457e-07
2701.32	5.69256e-07
2710	1.18535e-06
2718.68	2.42795e-06
2727.36	4.76697e-06
2736.04	1.09879e-05
2744.72	1.13271e-05
2753.39	7.82576e-06
2762.07	3.56658e-06
2770.75	4.61471e-06
2779.43	5.09606e-06
2788.11	3.29746e-06
2796.78	3.2087e-06
2805.46	4.3144e-06
2814.14	6.29226e-06
2822.82	8.20255e-06
2831.5	1.05976e-05
2840.18	1.3351e-05
2848.85	1.98227e-05
2857.53	3.81955e-05
2866.21	7.11644e-05
2874.89	0.000107102
2883.57	0.000120657
2892.24	0.000111358
2900.92	9.16215e-05
2909.6	8.69874e-05
2918.28	0.000107806
2926.96	0.000163083
2935.63	0.000205869
2944.31	0.000202404
2952.99	0.000214004
2961.67	0.00014581
2970.35	0.000161863
2979.03	0.000166344
2987.7	0.000148257
2996.38	6.30498e-05
3005.06	4.86853e-05
3013.74	8.77917e-05
3022.42	0.000174779
3031.09	0.000209544
3039.77	0.000136856
3048.45	9.61584e-05
3057.13	0.000115202
3065.81	0.000143258
3074.49	0.000143264
3083.16	0.000120401
3091.84	7.58017e-05
3100.52	3.81461e-05
3109.2	2.8944e-05
3117.88	2.49935e-05
3126.55	1.73528e-05
3135.23	6.32982e-06
3143.91	4.1179e-06
3152.59	3.43553e-06
3161.27	3.35542e-06
3169.95	3.44853e-06
3178.62	2.70894e-06
3187.3	1.61836e-06
3195.98	1.1019e-06
3204.66	7.65917e-07
3213.34	4.43384e-07
3222.01	3.68362e-07
3230.69	2.54275e-07
3239.37	3.53503e-08
3248.05	7.86256e-08
3256.73	6.90436e-08
3265.41	-2.46297e-08
3274.08	7.72669e-09
3282.76	-1.18865e-08
3291.44	1.9736e-07
3300.12	4.2193e-08
3308.8	-3.75239e-09
3317.47	1.61456e-07
3326.15	-6.1015e-08
3334.83	-5.11256e-08
3343.51	-2.09919e-08
3352.19	-1.58797e-07
3360.87	3.92482e-08
3369.54	1.64256e-07
3378.22	4.69902e-07
3386.9	2.22542e-07
3395.58	2.20243e-07
3404.26	-1.24962e-07
3412.93	-1.14747e-07
3421.61	-3.84825e-08
3430.29	7.78325e-08
3438.97	9.04357e-09
3447.65	-2.50008e-08
3456.33	3.48745e-07
3465	4.88928e-07
3473.68	2.76371e-07
3482.36	2.25936e-07
3491.04	-4.45212e-08
3499.72	-1.12552e-07
3508.39	-1.09656e-07
3517.07	-1.78907e-07
3525.75	-1.70975e-07
3534.43	-2.58382e-07
3543.11	-1.29256e-07
3551.79	-2.52123e-07
3560.46	-1.06626e-07
3569.14	3.88772e-08
3577.82	6.61043e-08
3586.5	-2.60386e-07
3595.18	1.53519e-07
3603.85	5.12662e-07
3612.53	1.93971e-07
3621.21	1.07843e-08
3629.89	-6.91828e-07
3638.57	-1.39764e-07
3647.25	-3.16232e-07
3655.92	-3.21752e-07
3664.6	-1.37218e-07
3673.28	-1.68448e-07
3681.96	-1.371e-07
3690.64	-3.56421e-07
3699.31	-2.23896e-07
3707.99	-3.43798e-07
3716.67	-3.6663e-07
3725.35	-3.55235e-07
3734.03	-3.23979e-07
3742.71	-7.43785e-08
3751.38	3.99612e-08
3760.06	6.19154e-08
3768.74	1.6259e-07
3777.42	-1.32962e-08
3786.1	5.978e-08
3794.77	2.20085e-07
3803.45	2.03482e-07
3812.13	2.29576e-07
3820.81	5.59348e-08
3829.49	8.43247e-07
3838.17	2.33425e-07
3846.84	1.07038e-06
3855.52	1.38235e-06
3864.2	1.62221e-06
3872.88	1.65546e-06
3881.56	1.80979e-06
3890.23	2.21914e-06
3898.91	2.47742e-06
3907.59	2.73712e-06
3916.27	1.60947e-06
3924.95	1.01585e-06
3933.63	7.40476e-07
3942.3	6.17427e-07
3950.98	8.08297e-07
3959.66	1.09122e-06
3968.34	1.10549e-06
