Infrared Spectrum: 1,2-Dimethylbenzene
Formula: 1,2-( C H3)2 C6 H4
CAS: 95-47-6
State: gas
Melting point: -25.18 C
Boiling point: 144.4 C
Class: IUPAC A
Instrument: IFS66V (Bruker)
Instrument parameters: KBr Beam Splitter; MCT Detector; Multipass cell
Sampling: 1 L/min Flow
Resolution: 0.9640
Temperature: 23 C
Pressure: 101.3 Pa
Origin: NIST, Analytical Chemistry Division, 301-975-3108
cm-1	(micromol/mol)-1m-1 (base 10)
575.17	2.99319e-06
583.848	2.76211e-06
592.526	1.12045e-06
601.205	1.16246e-07
609.883	-1.40497e-07
618.561	-1.52109e-07
627.239	-9.45555e-08
635.917	-6.8658e-08
644.595	-3.12909e-07
653.274	1.14591e-09
661.952	3.43663e-08
670.63	4.7828e-07
679.308	3.54142e-07
687.986	6.32151e-07
696.665	8.19615e-07
705.343	1.90346e-06
714.021	5.91345e-06
722.699	5.89101e-05
731.377	0.000222261
740.055	0.000760085
748.734	0.0002379
757.412	9.0565e-05
766.09	7.775e-06
774.768	2.12989e-06
783.446	1.4489e-06
792.125	9.22224e-07
800.803	6.31367e-07
809.481	9.45786e-07
818.159	1.57819e-06
826.837	1.48172e-06
835.515	1.03551e-06
844.194	8.83251e-07
852.872	1.02098e-06
861.55	2.21147e-06
870.228	3.14394e-06
878.906	2.14379e-06
887.584	1.272e-06
896.263	1.66533e-06
904.941	1.83704e-06
913.619	2.01407e-06
922.297	2.30597e-06
930.975	6.82172e-06
939.654	3.45517e-06
948.332	2.72159e-06
957.01	2.04888e-06
965.688	3.04753e-06
974.366	1.20523e-05
983.044	2.18752e-05
991.723	2.10231e-05
1000.4	9.81179e-06
1009.08	1.18053e-05
1017.76	1.57534e-05
1026.44	1.54429e-05
1035.11	1.18774e-05
1043.79	2.31051e-05
1052.47	3.37798e-05
1061.15	3.48034e-05
1069.83	5.59105e-06
1078.5	1.6266e-06
1087.18	1.27314e-06
1095.86	1.44252e-06
1104.54	3.47231e-06
1113.22	1.39104e-05
1121.9	1.70675e-05
1130.57	1.70407e-05
1139.25	1.09655e-05
1147.93	8.35393e-06
1156.61	5.24922e-06
1165.29	4.19726e-06
1173.96	3.556e-06
1182.64	2.94808e-06
1191.32	2.33804e-06
1200	2.02907e-06
1208.68	2.75937e-06
1217.36	7.24593e-06
1226.03	9.26421e-06
1234.71	6.00396e-06
1243.39	1.07235e-06
1252.07	8.83465e-07
1260.75	1.23816e-06
1269.42	1.52485e-06
1278.1	1.727e-06
1286.78	1.99249e-06
1295.46	2.14189e-06
1304.14	1.67974e-06
1312.82	1.66803e-06
1321.49	2.2442e-06
1330.17	2.87306e-06
1338.85	3.25169e-06
1347.53	3.97765e-06
1356.21	4.75761e-06
1364.88	6.56165e-06
1373.56	1.35281e-05
1382.24	2.39271e-05
1390.92	2.14876e-05
1399.6	1.55946e-05
1408.28	7.28069e-06
1416.95	8.17177e-06
1425.63	1.16737e-05
1434.31	2.34034e-05
1442.99	4.54565e-05
1451.67	7.37983e-05
1460.34	0.000125579
1469.02	0.000133067
1477.7	0.000114819
1486.38	8.00307e-05
1495.06	0.000122535
1503.74	9.33657e-05
1512.41	3.96003e-05
1521.09	8.90852e-06
1529.77	8.03085e-06
1538.45	7.49806e-06
1547.13	7.32391e-06
1555.8	6.65416e-06
1564.48	5.97621e-06
1573.16	6.49251e-06
1581.84	1.23086e-05
1590.52	2.35266e-05
1599.2	2.48152e-05
1607.87	2.96379e-05
1616.55	2.17483e-05
1625.23	1.0471e-05
1633.91	2.67443e-06
1642.59	1.34465e-06
1651.26	1.19112e-06
1659.94	3.39604e-06
1668.62	5.71701e-06
1677.3	6.11808e-06
1685.98	2.46013e-06
1694.66	1.66527e-06
1703.33	2.5206e-06
1712.01	3.27609e-06
1720.69	3.22237e-06
1729.37	1.24792e-06
1738.05	1.12549e-06
1746.72	1.27913e-06
1755.4	1.58066e-06
1764.08	1.94267e-06
1772.76	3.55168e-06
1781.44	9.16594e-06
1790.12	9.41088e-06
1798.79	3.86283e-06
1807.47	9.15021e-07
1816.15	2.68037e-06
1824.83	5.65628e-06
1833.51	5.9507e-06
1842.18	1.08335e-06
1850.86	2.77882e-06
1859.54	5.01152e-06
1868.22	5.41637e-06
1876.9	4.16852e-06
1885.58	6.33186e-06
1894.25	1.25344e-05
1902.93	1.09738e-05
1911.61	6.6753e-06
1920.29	8.21664e-07
1928.97	2.26117e-06
1937.64	8.68698e-06
1946.32	6.74021e-06
1955	3.34415e-06
1963.68	1.16045e-06
1972.36	8.82865e-07
1981.04	6.98541e-07
1989.71	4.39819e-07
1998.39	1.92198e-07
2007.07	2.28421e-07
2015.75	3.14961e-08
2024.43	-6.71902e-08
2033.1	-1.14485e-07
2041.78	-3.88117e-08
2050.46	-6.09586e-08
2059.14	-2.02322e-07
2067.82	-3.34092e-07
2076.5	-3.3684e-07
2085.17	-1.33596e-07
2093.85	-2.96135e-07
2102.53	7.52715e-08
2111.21	3.95964e-07
2119.89	6.53313e-07
2128.56	1.531e-07
2137.24	-3.57414e-07
2145.92	-2.47163e-07
2154.6	-1.20309e-07
2163.28	-1.2088e-07
2171.96	-1.71777e-07
2180.63	-1.65251e-07
2189.31	-8.77456e-08
2197.99	4.41956e-07
2206.67	9.50619e-07
2215.35	7.44154e-07
2224.02	4.10107e-07
2232.7	2.11287e-07
2241.38	3.11359e-08
2250.06	-2.01469e-07
2258.74	1.32665e-07
2267.42	7.20765e-07
2276.09	1.04752e-06
2284.77	7.95116e-07
2293.45	2.41033e-07
2302.13	1.33143e-07
2310.81	6.21987e-07
2319.48	9.90558e-07
2328.16	3.39027e-07
2336.84	8.38236e-07
2345.52	5.11886e-07
2354.2	-3.90749e-07
2362.88	-2.36486e-06
2371.55	-1.00381e-06
2380.23	-7.06006e-08
2388.91	1.12981e-07
2397.59	2.49162e-07
2406.27	8.98913e-07
2414.94	1.16896e-06
2423.62	1.65009e-06
2432.3	2.12218e-06
2440.98	2.31606e-06
2449.66	1.90332e-06
2458.34	1.23758e-06
2467.01	7.56706e-07
2475.69	5.43278e-07
2484.37	5.92479e-07
2493.05	6.1686e-07
2501.73	4.05016e-07
2510.4	3.42886e-07
2519.08	3.25067e-07
2527.76	-1.35708e-08
2536.44	-9.19854e-08
2545.12	-1.92658e-08
2553.8	3.72667e-07
2562.47	1.41314e-06
2571.15	2.72895e-06
2579.83	2.73532e-06
2588.51	1.74023e-06
2597.19	7.92276e-07
2605.86	9.54189e-07
2614.54	1.15667e-06
2623.22	7.38177e-07
2631.9	2.02438e-07
2640.58	7.02823e-09
2649.26	-1.19866e-09
2657.93	1.22168e-07
2666.61	3.05421e-07
2675.29	5.54732e-07
2683.97	6.21056e-07
2692.65	6.11249e-07
2701.32	6.1186e-07
2710	1.22977e-06
2718.68	2.48132e-06
2727.36	4.82298e-06
2736.04	1.09013e-05
2744.72	1.13338e-05
2753.39	7.85111e-06
2762.07	3.66024e-06
2770.75	4.66127e-06
2779.43	5.11289e-06
2788.11	3.39255e-06
2796.78	3.31221e-06
2805.46	4.41145e-06
2814.14	6.38513e-06
2822.82	8.33294e-06
2831.5	1.07358e-05
2840.18	1.35774e-05
2848.85	2.01432e-05
2857.53	3.84735e-05
2866.21	7.11682e-05
2874.89	0.000106624
2883.57	0.000120125
2892.24	0.000111121
2900.92	9.19561e-05
2909.6	8.75394e-05
2918.28	0.000108298
2926.96	0.000162694
2935.63	0.000205035
2944.31	0.00020235
2952.99	0.000212321
2961.67	0.000146269
2970.35	0.000161724
2979.03	0.000166092
2987.7	0.000147352
2996.38	6.40593e-05
3005.06	4.96811e-05
3013.74	8.85009e-05
3022.42	0.000173305
3031.09	0.000207319
3039.77	0.000137009
3048.45	9.68935e-05
3057.13	0.000115227
3065.81	0.000142638
3074.49	0.000142561
3083.16	0.000119747
3091.84	7.58053e-05
3100.52	3.86224e-05
3109.2	2.91596e-05
3117.88	2.51682e-05
3126.55	1.74431e-05
3135.23	6.55149e-06
3143.91	4.26047e-06
3152.59	3.54155e-06
3161.27	3.44596e-06
3169.95	3.5015e-06
3178.62	2.76843e-06
3187.3	1.68562e-06
3195.98	1.16012e-06
3204.66	8.16573e-07
3213.34	4.91556e-07
3222.01	4.15564e-07
3230.69	2.93998e-07
3239.37	8.64741e-08
3248.05	1.13057e-07
3256.73	9.24329e-08
3265.41	8.065e-09
3274.08	2.27381e-08
3282.76	1.39146e-08
3291.44	2.03659e-07
3300.12	6.45455e-08
3308.8	2.46916e-08
3317.47	1.71095e-07
3326.15	-3.15743e-08
3334.83	-3.98048e-08
3343.51	-2.44824e-09
3352.19	-1.41971e-07
3360.87	5.32101e-08
3369.54	1.68788e-07
3378.22	4.73218e-07
3386.9	2.36879e-07
3395.58	2.24158e-07
3404.26	-9.75531e-08
3412.93	-1.11635e-07
3421.61	-3.53794e-08
3430.29	7.86692e-08
3438.97	2.76582e-08
3447.65	3.64144e-09
3456.33	3.55602e-07
3465	4.91314e-07
3473.68	2.78941e-07
3482.36	2.2213e-07
3491.04	-3.39498e-08
3499.72	-1.11988e-07
3508.39	-1.12377e-07
3517.07	-1.77754e-07
3525.75	-1.6821e-07
3534.43	-2.46001e-07
3543.11	-1.2432e-07
3551.79	-2.37445e-07
3560.46	-1.04163e-07
3569.14	2.83185e-08
3577.82	7.00804e-08
3586.5	-2.2761e-07
3595.18	1.54652e-07
3603.85	5.00088e-07
3612.53	2.07948e-07
3621.21	-9.53104e-10
3629.89	-6.66963e-07
3638.57	-1.43029e-07
3647.25	-3.03191e-07
3655.92	-2.99547e-07
3664.6	-1.40505e-07
3673.28	-1.9432e-07
3681.96	-1.41389e-07
3690.64	-3.41511e-07
3699.31	-2.1718e-07
3707.99	-3.39847e-07
3716.67	-3.53798e-07
3725.35	-3.50298e-07
3734.03	-3.30028e-07
3742.71	-9.9372e-08
3751.38	6.06076e-08
3760.06	8.11793e-08
3768.74	1.61393e-07
3777.42	1.69158e-09
3786.1	6.86562e-08
3794.77	2.09361e-07
3803.45	1.94771e-07
3812.13	2.41874e-07
3820.81	1.00054e-07
3829.49	8.27712e-07
3838.17	2.79361e-07
3846.84	1.07125e-06
3855.52	1.34779e-06
3864.2	1.62534e-06
3872.88	1.65456e-06
3881.56	1.8107e-06
3890.23	2.21591e-06
3898.91	2.4925e-06
3907.59	2.71289e-06
3916.27	1.61658e-06
3924.95	1.02347e-06
3933.63	7.4018e-07
3942.3	6.2877e-07
3950.98	8.19631e-07
3959.66	1.09018e-06
3968.34	1.11367e-06
