Infrared Spectrum: BENZENE, 1,2-DIMETHYL-
Formula: C8 H10
CAS: 95-47-6
State: LIQUID (NEAT)
Class: COBLENTZ III
Instrument: PERKIN-ELMER 521 (GRATING)
Instrument parameters: FILTERS AT 3150, 2500, 2000, 1150, 700, 410. GRATING CHANGES: 2000, 630 CM^-^1
Sampling: TRANSMISSION
Path length: 0.0024 CM
Resolution: 4
Origin: STANDARD OIL OF OHIO
1/CM	TRANSMITTANCE
593.585	0.583
602.812	0.583
612.039	0.587
621.265	0.601
630.492	0.62
639.719	0.65
648.946	0.681
658.172	0.701
667.399	0.721
676.626	0.741
685.853	0.757
695.08	0.755
704.306	0.734
713.533	0.669
722.76	0.4734
731.987	0.0771
741.213	0.007
750.44	0.429
759.667	0.6899
768.894	0.783
778.121	0.804
787.347	0.832
796.574	0.853
805.801	0.861
815.028	0.861
824.254	0.823
833.481	0.862
842.708	0.86
851.935	0.83
861.162	0.834
870.388	0.861
879.615	0.861
888.842	0.866
898.069	0.873
907.295	0.869
916.522	0.859
925.749	0.813
934.976	0.8149
944.203	0.843
953.429	0.843
962.656	0.826
971.883	0.788
981.11	0.6401
990.336	0.71
999.563	0.7581
1008.79	0.6671
1018.02	0.455
1027.24	0.6037
1036.47	0.748
1045.7	0.656
1054.92	0.6121
1064.15	0.8209
1073.38	0.857
1082.6	0.864
1091.83	0.86
1101.06	0.845
1110.28	0.754
1119.51	0.5188
1128.74	0.781
1137.96	0.78
1147.19	0.784
1156.42	0.795
1165.65	0.814
1174.87	0.825
1184.1	0.814
1193.33	0.851
1202.55	0.853
1211.78	0.838
1221.01	0.767
1230.23	0.84
1239.46	0.866
1248.69	0.869
1257.91	0.864
1267.14	0.853
1276.37	0.839
1285.59	0.814
1294.82	0.838
1304.05	0.847
1313.27	0.844
1322.5	0.84
1331.73	0.831
1340.95	0.828
1350.18	0.812
1359.41	0.761
1368.63	0.6521
1377.86	0.451
1387.09	0.6101
1396.31	0.715
1405.54	0.694
1414.77	0.652
1424	0.5919
1433.22	0.56
1442.45	0.389
1451.68	0.308
1460.9	0.214
1470.13	0.078
1479.36	0.352
1488.58	0.4
1497.81	0.07
1507.04	0.678
1516.26	0.751
1525.49	0.797
1534.72	0.817
1543.94	0.83
1553.17	0.834
1562.4	0.834
1571.62	0.828
1580.85	0.7711
1590.08	0.754
1599.3	0.673
1608.53	0.5261
1617.76	0.825
1626.98	0.866
1636.21	0.89
1645.44	0.896
1654.66	0.895
1663.89	0.877
1673.12	0.852
1682.34	0.874
1691.57	0.889
1700.8	0.891
1710.03	0.89
1719.25	0.879
1728.48	0.891
1737.71	0.906
1746.93	0.903
1756.16	0.904
1765.39	0.9
1774.61	0.885
1783.84	0.825
1793.07	0.8181
1802.29	0.889
1811.52	0.906
1820.75	0.882
1829.97	0.855
1839.2	0.883
1848.43	0.895
1857.65	0.862
1866.88	0.861
1876.11	0.862
1885.33	0.851
1894.56	0.805
1903.79	0.781
1913.01	0.864
1922.24	0.895
1931.47	0.875
1940.69	0.826
1949.92	0.839
1959.15	0.881
1968.38	0.903
1977.6	0.906
1986.83	0.909
1996.06	0.904
2005.28	0.915
2014.51	0.912
2023.74	0.911
2032.96	0.9151
2042.19	0.912
2051.42	0.9132
2060.64	0.915
2069.87	0.9123
2079.1	0.913
2088.32	0.9129
2097.55	0.913
2106.78	0.906
2116	0.906
2125.23	0.913
2134.46	0.915
2143.68	0.915
2152.91	0.912
2162.14	0.9127
2171.36	0.913
2180.59	0.913
2189.82	0.9113
2199.04	0.9046
2208.27	0.908
2217.5	0.911
2226.72	0.908
2235.95	0.911
2245.18	0.913
2254.41	0.911
2263.63	0.9074
2272.86	0.898
2282.09	0.9031
2291.31	0.91
2300.54	0.9075
2309.77	0.9
2318.99	0.9
2328.22	0.8985
2337.45	0.8816
2346.67	0.9024
2355.9	0.9064
2365.13	0.907
2374.35	0.908
2383.58	0.908
2392.81	0.902
2402.03	0.8943
2411.26	0.8934
2420.49	0.89
2429.71	0.889
2438.94	0.8867
2448.17	0.8918
2457.39	0.902
2466.62	0.9032
2475.85	0.904
2485.07	0.907
2494.3	0.9068
2503.53	0.902
2512.75	0.9061
2521.98	0.911
2531.21	0.909
2540.44	0.908
2549.66	0.9018
2558.89	0.891
2568.12	0.885
2577.34	0.874
2586.57	0.8911
2595.8	0.9
2605.02	0.894
2614.25	0.903
2623.48	0.907
2632.7	0.9061
2641.93	0.906
2651.16	0.9031
2660.38	0.9
2669.61	0.899
2678.84	0.895
2688.06	0.8963
2697.29	0.894
2706.52	0.8862
2715.74	0.8659
2724.97	0.8196
2734.2	0.7473
2743.42	0.8598
2752.65	0.8617
2761.88	0.8427
2771.1	0.8617
2780.33	0.8593
2789.56	0.8496
2798.79	0.8386
2808.01	0.816
2817.24	0.7934
2826.47	0.7605
2835.69	0.7066
2844.92	0.6168
2854.15	0.4092
2863.37	0.3363
2872.6	0.3288
2881.83	0.3135
2891.05	0.3485
2900.28	0.337
2909.51	0.2712
2918.73	0.1467
2927.96	0.1518
2937.19	0.1309
2946.41	0.1539
2955.64	0.2489
2964.87	0.2212
2974.09	0.1755
2983.32	0.3593
2992.55	0.4072
3001.77	0.4166
3011	0.27
3020.23	0.1538
3029.45	0.2538
3038.68	0.3632
3047.91	0.3362
3057.13	0.3398
3066.36	0.3212
3075.59	0.4185
3084.82	0.5605
3094.04	0.7032
3103.27	0.6642
3112.5	0.7342
3121.72	0.8194
3130.95	0.8381
3140.18	0.8511
3149.4	0.857
3158.63	0.8591
3167.86	0.8741
3177.08	0.882
3186.31	0.886
3195.54	0.886
3204.76	0.887
3213.99	0.892
3223.22	0.896
3232.44	0.898
3241.67	0.898
3250.9	0.898
3260.12	0.898
3269.35	0.898
3278.58	0.898
3287.8	0.898
3297.03	0.898
3306.26	0.898
3315.48	0.898
3324.71	0.898
3333.94	0.898
3343.17	0.898
3352.39	0.898
3361.62	0.898
3370.85	0.898
3380.07	0.899
3389.3	0.899
3398.53	0.899
3407.75	0.898
3416.98	0.896
3426.21	0.894
3435.43	0.895
3444.66	0.8904
3453.89	0.891
3463.11	0.889
3472.34	0.889
3481.57	0.89
3490.79	0.889
3500.02	0.89
3509.25	0.8905
3518.47	0.891
3527.7	0.892
3536.93	0.8931
3546.15	0.896
3555.38	0.8946
3564.61	0.894
3573.83	0.89
3583.06	0.886
3592.29	0.889
3601.51	0.89
3610.74	0.8913
3619.97	0.895
3629.2	0.896
3638.42	0.895
3647.65	0.892
3656.88	0.891
3666.1	0.89
3675.33	0.89
3684.56	0.8912
3693.78	0.892
3703.01	0.8937
3712.24	0.891
3721.46	0.89
3730.69	0.889
3739.92	0.885
3749.14	0.886
3758.37	0.887
3767.6	0.887
3776.82	0.886
3786.05	0.886
3795.28	0.885
3804.5	0.882
3813.73	0.881
3822.96	0.878
3832.18	0.8751
3841.41	0.872
3850.64	0.869
3859.86	0.869
3869.09	0.8641
3878.32	0.862
3887.54	0.8573
3896.77	0.8609
3906	0.8717
3915.23	0.8766
3924.45	0.878
3933.68	0.878
3942.91	0.8766
