Infrared Spectrum: 1,2-Dimethylbenzene
Formula: 1,2-( C H3)2 C6 H4
CAS: 95-47-6
State: gas
Melting point: -25.18 C
Boiling point: 144.4 C
Class: IUPAC A
Instrument: IFS66V (Bruker)
Instrument parameters: KBr Beam Splitter; MCT Detector; Multipass cell
Sampling: 1 L/min Flow
Resolution: 0.1250
Temperature: 23 C
Pressure: 101.3 Pa
Origin: NIST, Analytical Chemistry Division, 301-975-3108
cm-1	(micromol/mol)-1m-1 (base 10)
575.05	-2.09767e-06
583.608	-1.48476e-06
592.165	6.03418e-07
600.723	-9.45281e-07
609.281	-6.40873e-07
617.838	7.64867e-07
626.396	7.17763e-07
634.954	1.52011e-06
643.511	-7.00749e-08
652.069	-4.25039e-07
660.626	1.21111e-07
669.184	4.09314e-07
677.742	-2.8705e-07
686.299	-1.77339e-07
694.857	3.55111e-07
703.415	1.11963e-06
711.972	2.44139e-06
720.53	3.14048e-05
729.088	0.000191827
737.645	0.000234898
746.203	0.000205435
754.761	0.000155986
763.318	1.53529e-05
771.876	2.57441e-06
780.434	1.19585e-06
788.991	3.30152e-07
797.549	1.59079e-07
806.106	7.84075e-07
814.664	9.70603e-07
823.222	1.87872e-06
831.779	8.7195e-07
840.337	7.8999e-07
848.895	7.10017e-07
857.452	1.70394e-06
866.01	2.61836e-06
874.568	2.4368e-06
883.125	1.65996e-06
891.683	1.37413e-06
900.241	1.85209e-06
908.798	2.07972e-06
917.356	2.07105e-06
925.914	2.69473e-06
934.471	2.9966e-06
943.029	3.51767e-06
951.586	2.20404e-06
960.144	2.08483e-06
968.702	4.53343e-06
977.259	1.73001e-05
985.817	2.30042e-05
994.375	1.76555e-05
1002.93	8.93263e-06
1011.49	1.34489e-05
1020.05	1.74355e-05
1028.61	1.36957e-05
1037.16	1.11396e-05
1045.72	3.20825e-05
1054.28	5.23072e-05
1062.84	2.92974e-05
1071.39	3.89074e-06
1079.95	1.22817e-06
1088.51	1.6826e-06
1097.07	1.40088e-06
1105.62	3.76816e-06
1114.18	1.53801e-05
1122.74	1.84664e-05
1131.3	1.65849e-05
1139.85	1.06238e-05
1148.41	8.31357e-06
1156.97	4.90438e-06
1165.53	4.09588e-06
1174.09	3.62105e-06
1182.64	2.86849e-06
1191.2	2.10273e-06
1199.76	1.96415e-06
1208.32	2.63714e-06
1216.87	7.02135e-06
1225.43	9.31392e-06
1233.99	6.81874e-06
1242.55	1.32422e-06
1251.1	8.05507e-07
1259.66	1.28652e-06
1268.22	1.33009e-06
1276.78	1.7728e-06
1285.33	2.01313e-06
1293.89	2.00141e-06
1302.45	1.48708e-06
1311.01	1.91316e-06
1319.57	2.1553e-06
1328.12	2.4616e-06
1336.68	3.09928e-06
1345.24	4.15548e-06
1353.8	3.41524e-06
1362.35	5.43902e-06
1370.91	1.0873e-05
1379.47	1.48447e-05
1388.03	2.34815e-05
1396.58	2.2201e-05
1405.14	7.77364e-06
1413.7	7.15042e-06
1422.26	8.9959e-06
1430.81	1.78555e-05
1439.37	3.10917e-05
1447.93	6.80173e-05
1456.49	9.62672e-05
1465.05	0.000144025
1473.6	0.000123317
1482.16	8.95511e-05
1490.72	9.45179e-05
1499.28	0.00011022
1507.83	9.35948e-05
1516.39	1.41734e-05
1524.95	8.49541e-06
1533.51	8.0196e-06
1542.06	6.46546e-06
1550.62	7.1498e-06
1559.18	6.24845e-06
1567.74	5.81772e-06
1576.29	6.08234e-06
1584.85	1.52136e-05
1593.41	2.6215e-05
1601.97	3.03028e-05
1610.53	2.52256e-05
1619.08	2.13119e-05
1627.64	6.75606e-06
1636.2	2.12707e-06
1644.76	9.83477e-07
1653.31	-1.42669e-06
1661.87	4.46806e-06
1670.43	6.99731e-06
1678.99	5.96095e-06
1687.54	2.52359e-06
1696.1	8.13187e-07
1704.66	2.75154e-06
1713.22	3.49014e-06
1721.77	3.31103e-06
1730.33	1.28735e-06
1738.89	1.0025e-06
1747.45	1.28842e-06
1756.01	1.44523e-06
1764.56	1.94892e-06
1773.12	4.49523e-06
1781.68	9.30092e-06
1790.24	9.60168e-06
1798.79	3.99106e-06
1807.35	8.32141e-07
1815.91	2.53222e-06
1824.47	5.85688e-06
1833.02	5.80736e-06
1841.58	1.20745e-06
1850.14	2.46783e-06
1858.7	4.51413e-06
1867.25	5.5127e-06
1875.81	4.03139e-06
1884.37	5.83583e-06
1892.93	1.167e-05
1901.49	9.73405e-06
1910.04	8.49777e-06
1918.6	1.18309e-06
1927.16	1.27499e-06
1935.72	7.93783e-06
1944.27	1.26878e-05
1952.83	5.90995e-06
1961.39	1.09761e-06
1969.95	1.03786e-06
1978.5	7.18844e-07
1987.06	3.48298e-07
1995.62	3.13045e-07
2004.18	1.57977e-07
2012.73	-5.0087e-08
2021.29	8.45789e-10
2029.85	8.00025e-08
2038.41	-7.02114e-08
2046.97	1.85346e-09
2055.52	-1.58568e-07
2064.08	-4.85604e-07
2072.64	-3.96149e-07
2081.2	-2.35418e-07
2089.75	-1.52216e-07
2098.31	-1.84464e-07
2106.87	2.49438e-07
2115.43	7.45494e-07
2123.98	2.63288e-07
2132.54	-1.2916e-07
2141.1	-6.2542e-07
2149.66	-1.15176e-07
2158.21	3.17158e-07
2166.77	-1.99632e-07
2175.33	-3.64984e-07
2183.89	-1.96965e-07
2192.45	1.28909e-07
2201	6.22606e-07
2209.56	8.94377e-07
2218.12	6.23652e-07
2226.68	4.07224e-07
2235.23	1.45155e-07
2243.79	-4.75169e-08
2252.35	-3.14253e-07
2260.91	1.67583e-07
2269.46	9.69705e-07
2278.02	9.41492e-07
2286.58	7.43512e-07
2295.14	4.97451e-08
2303.69	1.41465e-07
2312.25	9.99093e-07
2320.81	4.79522e-07
2329.37	1.04208e-06
2337.93	8.71604e-07
2346.48	1.17171e-06
2355.04	5.04001e-07
2363.6	-3.07178e-07
2372.16	-1.07102e-07
2380.71	-3.88406e-07
2389.27	2.23594e-07
2397.83	2.10745e-07
2406.39	9.60861e-07
2414.94	1.23636e-06
2423.5	1.70881e-06
2432.06	2.17135e-06
2440.62	2.26988e-06
2449.17	1.84087e-06
2457.73	1.38181e-06
2466.29	8.13941e-07
2474.85	5.07055e-07
2483.41	4.48968e-07
2491.96	5.48246e-07
2500.52	4.6213e-07
2509.08	4.91236e-07
2517.64	5.00123e-07
2526.19	-2.82002e-08
2534.75	9.08722e-09
2543.31	-1.91943e-07
2551.87	2.47936e-07
2560.42	1.0572e-06
2568.98	2.49217e-06
2577.54	2.72153e-06
2586.1	2.27495e-06
2594.65	9.59246e-07
2603.21	7.59924e-07
2611.77	9.43884e-07
2620.33	1.01224e-06
2628.89	1.40763e-07
2637.44	-2.27062e-07
2646	1.85304e-07
2654.56	-9.55887e-08
2663.12	3.12669e-09
2671.67	4.5568e-07
2680.23	4.6556e-07
2688.79	5.76639e-07
2697.35	5.45688e-07
2705.9	1.15179e-06
2714.46	1.57828e-06
2723.02	3.58571e-06
2731.58	6.96056e-06
2740.13	1.14276e-05
2748.69	1.19952e-05
2757.25	4.02499e-06
2765.81	4.13039e-06
2774.37	4.43194e-06
2782.92	3.8614e-06
2791.48	3.16498e-06
2800.04	3.60242e-06
2808.6	4.67715e-06
2817.15	6.90485e-06
2825.71	9.12317e-06
2834.27	1.15153e-05
2842.83	1.52434e-05
2851.38	2.32445e-05
2859.94	4.67664e-05
2868.5	8.1385e-05
2877.06	0.000113116
2885.61	0.00011874
2894.17	0.000108163
2902.73	9.03714e-05
2911.29	9.13679e-05
2919.85	0.000115855
2928.4	0.000171664
2936.96	0.000210643
2945.52	0.00019839
2954.08	0.000197856
2962.63	0.000146061
2971.19	0.000167563
2979.75	0.000157663
2988.31	0.00014167
2996.86	6.07643e-05
3005.42	4.96374e-05
3013.98	9.00746e-05
3022.54	0.000175497
3031.09	0.000209787
3039.65	0.000137404
3048.21	9.62322e-05
3056.77	0.000113799
3065.33	0.000141588
3073.88	0.000145964
3082.44	0.000124248
3091	8.07507e-05
3099.56	4.23498e-05
3108.11	2.87464e-05
3116.67	2.58039e-05
3125.23	1.95971e-05
3133.79	7.0395e-06
3142.34	4.23351e-06
3150.9	3.31968e-06
3159.46	3.21821e-06
3168.02	3.47922e-06
3176.57	2.74238e-06
3185.13	1.51504e-06
3193.69	1.18798e-06
3202.25	1.21518e-06
3210.81	9.09254e-07
3219.36	4.48734e-07
3227.92	4.38688e-07
3236.48	2.51967e-07
3245.04	-3.80152e-07
3253.59	2.09526e-07
3262.15	6.00524e-07
3270.71	-1.57202e-07
3279.27	-3.01252e-07
3287.82	4.4069e-07
3296.38	2.99382e-07
3304.94	-5.69006e-08
3313.5	6.12285e-07
3322.05	-6.54859e-08
3330.61	-3.72729e-07
3339.17	1.92058e-08
3347.73	-6.72027e-07
3356.29	-8.34457e-07
3364.84	5.4672e-07
3373.4	1.34266e-07
3381.96	1.33318e-07
3390.52	3.21809e-07
3399.07	-8.07955e-08
3407.63	2.92703e-07
3416.19	-2.67182e-07
3424.75	1.01982e-07
3433.3	1.0825e-07
3441.86	1.1094e-07
3450.42	2.5093e-07
3458.98	3.16127e-07
3467.53	7.14118e-07
3476.09	-9.64199e-08
3484.65	2.59755e-07
3493.21	3.40142e-07
3501.77	-6.37779e-08
3510.32	-2.2675e-07
3518.88	-1.5624e-07
3527.44	-2.8126e-07
3536	-3.6026e-07
3544.55	1.96801e-07
3553.11	-1.37707e-07
3561.67	-2.4161e-07
3570.23	2.87024e-07
3578.78	-2.68528e-07
3587.34	8.44624e-08
3595.9	1.88598e-07
3604.46	3.61756e-07
3613.01	5.57898e-07
3621.57	-2.3253e-07
3630.13	-1.47044e-07
3638.69	-2.93165e-07
3647.25	-2.83548e-07
3655.8	-6.59424e-08
3664.36	-2.41641e-07
3672.92	-1.19884e-07
3681.48	-6.3787e-08
3690.03	-5.55327e-07
3698.59	-5.78166e-07
3707.15	-7.50169e-08
3715.71	-5.26444e-08
3724.26	-3.14619e-07
3732.82	-3.92371e-07
3741.38	-3.24572e-07
3749.94	-9.43227e-08
3758.49	3.48709e-07
3767.05	4.07237e-07
3775.61	6.93183e-09
3784.17	-3.03156e-08
3792.73	4.42447e-08
3801.28	-6.79656e-07
3809.84	8.39546e-07
3818.4	4.64129e-07
3826.96	7.46264e-07
3835.51	1.01254e-06
3844.07	1.54913e-06
3852.63	1.19519e-06
3861.19	1.4899e-06
3869.74	1.70095e-06
3878.3	1.84427e-06
3886.86	2.49149e-06
3895.42	3.10603e-06
3903.97	2.93451e-06
3912.53	2.27667e-06
3921.09	1.30761e-06
3929.65	6.51961e-07
3938.21	5.29997e-07
3946.76	8.53026e-07
3955.32	8.377e-07
3963.88	1.18778e-06
3972.44	5.78754e-07
