Infrared Spectrum: 1,2-Dimethylbenzene
Formula: 1,2-( C H3)2 C6 H4
CAS: 95-47-6
State: gas
Melting point: -25.18 C
Boiling point: 144.4 C
Class: IUPAC A
Instrument: IFS66V (Bruker)
Instrument parameters: KBr Beam Splitter; MCT Detector; Multipass cell
Sampling: 1 L/min Flow
Resolution: 0.2410
Temperature: 23 C
Pressure: 101.3 Pa
Origin: NIST, Analytical Chemistry Division, 301-975-3108
cm-1	(micromol/mol)-1m-1 (base 10)
575.05	8.1092e-07
583.608	9.03298e-07
592.165	7.4371e-07
600.723	-1.17416e-06
609.281	-4.78627e-07
617.838	1.04398e-07
626.396	5.48795e-07
634.954	6.75027e-07
643.511	-1.57844e-07
652.069	-1.96785e-07
660.626	2.07975e-07
669.184	6.68446e-09
677.742	-1.12441e-07
686.299	-3.23219e-09
694.857	7.42982e-07
703.415	1.2936e-06
711.972	2.71248e-06
720.53	3.14446e-05
729.088	0.000192595
737.645	0.000234486
746.203	0.000205422
754.761	0.000156154
763.318	1.52536e-05
771.876	2.26713e-06
780.434	1.33598e-06
788.991	6.80341e-07
797.549	3.96075e-07
806.106	6.39332e-07
814.664	1.24843e-06
823.222	1.93243e-06
831.779	1.00048e-06
840.337	7.95469e-07
848.895	7.31238e-07
857.452	1.73933e-06
866.01	2.6943e-06
874.568	2.62543e-06
883.125	1.57362e-06
891.683	1.23602e-06
900.241	1.89053e-06
908.798	2.03357e-06
917.356	2.112e-06
925.914	2.36921e-06
934.471	3.19516e-06
943.029	3.45559e-06
951.586	2.18164e-06
960.144	2.10078e-06
968.702	4.35716e-06
977.259	1.73324e-05
985.817	2.291e-05
994.375	1.76959e-05
1002.93	9.08787e-06
1011.49	1.33968e-05
1020.05	1.75281e-05
1028.61	1.39176e-05
1037.16	1.11871e-05
1045.72	3.19113e-05
1054.28	5.24119e-05
1062.84	2.94857e-05
1071.39	3.88089e-06
1079.95	1.1894e-06
1088.51	1.48631e-06
1097.07	1.33758e-06
1105.62	3.81508e-06
1114.18	1.52693e-05
1122.74	1.8368e-05
1131.3	1.66557e-05
1139.85	1.05551e-05
1148.41	8.41795e-06
1156.97	5.03389e-06
1165.53	4.11204e-06
1174.09	3.56557e-06
1182.64	2.94951e-06
1191.2	2.25165e-06
1199.76	2.03071e-06
1208.32	2.61436e-06
1216.87	6.99243e-06
1225.43	9.25937e-06
1233.99	6.80435e-06
1242.55	1.29671e-06
1251.1	8.6277e-07
1259.66	1.20523e-06
1268.22	1.2233e-06
1276.78	1.72256e-06
1285.33	1.99691e-06
1293.89	2.10671e-06
1302.45	1.56803e-06
1311.01	1.80007e-06
1319.57	2.07703e-06
1328.12	2.49864e-06
1336.68	3.04163e-06
1345.24	4.03126e-06
1353.8	3.36088e-06
1362.35	5.46727e-06
1370.91	1.09853e-05
1379.47	1.4542e-05
1388.03	2.3298e-05
1396.58	2.21672e-05
1405.14	7.71375e-06
1413.7	7.17115e-06
1422.26	9.08314e-06
1430.81	1.78377e-05
1439.37	3.10094e-05
1447.93	6.81899e-05
1456.49	9.65775e-05
1465.05	0.00014388
1473.6	0.000123337
1482.16	8.93528e-05
1490.72	9.45105e-05
1499.28	0.000110198
1507.83	9.36863e-05
1516.39	1.42875e-05
1524.95	8.41749e-06
1533.51	7.91008e-06
1542.06	6.49812e-06
1550.62	7.05319e-06
1559.18	6.22328e-06
1567.74	5.74366e-06
1576.29	6.15671e-06
1584.85	1.5174e-05
1593.41	2.61382e-05
1601.97	3.0321e-05
1610.53	2.51479e-05
1619.08	2.12544e-05
1627.64	6.68147e-06
1636.2	1.98221e-06
1644.76	1.06472e-06
1653.31	-9.54457e-07
1661.87	4.3913e-06
1670.43	7.0415e-06
1678.99	5.77735e-06
1687.54	2.44709e-06
1696.1	3.75699e-07
1704.66	2.64673e-06
1713.22	3.56313e-06
1721.77	3.18683e-06
1730.33	1.24832e-06
1738.89	1.08388e-06
1747.45	1.27527e-06
1756.01	1.51775e-06
1764.56	1.93165e-06
1773.12	4.36686e-06
1781.68	9.31108e-06
1790.24	9.58794e-06
1798.79	3.86905e-06
1807.35	8.32276e-07
1815.91	2.60004e-06
1824.47	5.89469e-06
1833.02	5.79042e-06
1841.58	1.15778e-06
1850.14	2.38249e-06
1858.7	4.45121e-06
1867.25	5.45622e-06
1875.81	4.13579e-06
1884.37	5.80617e-06
1892.93	1.16265e-05
1901.49	9.70329e-06
1910.04	8.47622e-06
1918.6	1.12048e-06
1927.16	1.18849e-06
1935.72	7.77615e-06
1944.27	1.25762e-05
1952.83	5.94713e-06
1961.39	9.90798e-07
1969.95	9.662e-07
1978.5	6.70483e-07
1987.06	5.08173e-07
1995.62	2.77288e-07
2004.18	9.05558e-08
2012.73	-5.74809e-08
2021.29	-6.82815e-09
2029.85	4.17365e-08
2038.41	-7.91931e-08
2046.97	-2.65268e-08
2055.52	-1.14502e-07
2064.08	-4.17328e-07
2072.64	-4.66593e-07
2081.2	-2.2457e-07
2089.75	-1.57499e-07
2098.31	-1.39813e-07
2106.87	1.52758e-07
2115.43	8.00118e-07
2123.98	3.47086e-07
2132.54	-9.55414e-08
2141.1	-4.8258e-07
2149.66	-1.42434e-07
2158.21	2.96281e-07
2166.77	-1.44159e-07
2175.33	-3.25152e-07
2183.89	-1.99153e-07
2192.45	-2.74527e-08
2201	6.72054e-07
2209.56	1.02622e-06
2218.12	6.52416e-07
2226.68	3.94012e-07
2235.23	2.04726e-07
2243.79	-3.26074e-08
2252.35	-2.36792e-07
2260.91	1.41369e-07
2269.46	9.11891e-07
2278.02	9.57576e-07
2286.58	7.00788e-07
2295.14	1.32863e-07
2303.69	1.65303e-07
2312.25	9.98523e-07
2320.81	4.96029e-07
2329.37	9.38691e-07
2337.93	3.2594e-07
2346.48	1.01195e-06
2355.04	5.59155e-07
2363.6	-2.4761e-07
2372.16	-1.39135e-07
2380.71	-2.04437e-07
2389.27	2.5256e-07
2397.83	1.69818e-07
2406.39	9.50577e-07
2414.94	1.15294e-06
2423.5	1.69889e-06
2432.06	2.18137e-06
2440.62	2.31319e-06
2449.17	1.97554e-06
2457.73	1.32602e-06
2466.29	7.681e-07
2474.85	4.8179e-07
2483.41	5.61855e-07
2491.96	6.19981e-07
2500.52	4.14067e-07
2509.08	4.27269e-07
2517.64	3.69317e-07
2526.19	7.59027e-09
2534.75	-1.08097e-07
2543.31	-1.4601e-07
2551.87	2.35031e-07
2560.42	1.05829e-06
2568.98	2.48024e-06
2577.54	2.7855e-06
2586.1	2.2238e-06
2594.65	1.00447e-06
2603.21	7.83486e-07
2611.77	9.80402e-07
2620.33	9.83146e-07
2628.89	1.38946e-07
2637.44	-2.7389e-08
2646	1.01235e-07
2654.56	-2.36093e-08
2663.12	4.97433e-08
2671.67	5.37931e-07
2680.23	5.63244e-07
2688.79	5.46472e-07
2697.35	5.2594e-07
2705.9	1.05578e-06
2714.46	1.65201e-06
2723.02	3.55766e-06
2731.58	6.99915e-06
2740.13	1.14287e-05
2748.69	1.1919e-05
2757.25	4.17145e-06
2765.81	4.02741e-06
2774.37	4.41357e-06
2782.92	4.01373e-06
2791.48	3.2424e-06
2800.04	3.49318e-06
2808.6	4.75417e-06
2817.15	6.84329e-06
2825.71	9.33914e-06
2834.27	1.12299e-05
2842.83	1.51914e-05
2851.38	2.32256e-05
2859.94	4.67023e-05
2868.5	8.15274e-05
2877.06	0.000113009
2885.61	0.000118477
2894.17	0.00010824
2902.73	9.06378e-05
2911.29	9.10753e-05
2919.85	0.000115731
2928.4	0.000171617
2936.96	0.000210573
2945.52	0.000198474
2954.08	0.000197693
2962.63	0.000146051
2971.19	0.000167577
2979.75	0.000157908
2988.31	0.000141619
2996.86	6.0685e-05
3005.42	4.95543e-05
3013.98	9.00123e-05
3022.54	0.000175464
3031.09	0.000209808
3039.65	0.000137461
3048.21	9.631e-05
3056.77	0.00011378
3065.33	0.000141835
3073.88	0.000145973
3082.44	0.000124163
3091	8.08661e-05
3099.56	4.24266e-05
3108.11	2.85493e-05
3116.67	2.56916e-05
3125.23	1.9751e-05
3133.79	7.10587e-06
3142.34	4.1993e-06
3150.9	3.22732e-06
3159.46	3.2989e-06
3168.02	3.55794e-06
3176.57	2.85917e-06
3185.13	1.75297e-06
3193.69	1.24894e-06
3202.25	1.0342e-06
3210.81	6.80369e-07
3219.36	3.91571e-07
3227.92	3.45353e-07
3236.48	3.11827e-07
3245.04	-1.88998e-07
3253.59	2.08544e-07
3262.15	2.95762e-07
3270.71	-1.5708e-08
3279.27	-5.08928e-09
3287.82	2.21791e-07
3296.38	3.43148e-07
3304.94	1.50936e-07
3313.5	3.82202e-07
3322.05	8.05845e-08
3330.61	-2.29303e-07
3339.17	-1.11262e-08
3347.73	-3.10388e-07
3356.29	-5.22486e-07
3364.84	2.99307e-07
3373.4	8.61358e-08
3381.96	1.63028e-07
3390.52	2.70812e-07
3399.07	-4.32062e-08
3407.63	3.87498e-08
3416.19	-3.72693e-09
3424.75	6.72302e-08
3433.3	8.25744e-08
3441.86	5.56602e-08
3450.42	2.25722e-07
3458.98	3.85136e-07
3467.53	5.95824e-07
3476.09	6.91127e-08
3484.65	3.81231e-07
3493.21	1.55229e-07
3501.77	-1.38191e-07
3510.32	-9.7062e-08
3518.88	-2.25618e-07
3527.44	-2.25149e-07
3536	-3.26309e-07
3544.55	9.95357e-08
3553.11	-6.17226e-08
3561.67	-9.54268e-08
3570.23	1.76673e-07
3578.78	-2.47196e-07
3587.34	-1.43307e-07
3595.9	1.08925e-07
3604.46	4.65766e-07
3613.01	5.07062e-07
3621.57	-1.85686e-07
3630.13	-2.55364e-07
3638.69	-2.5274e-07
3647.25	-4.24328e-07
3655.8	-1.30139e-07
3664.36	-1.68285e-07
3672.92	-1.77954e-07
3681.48	-1.07044e-07
3690.03	-4.8714e-07
3698.59	-3.2184e-07
3707.15	-1.38609e-07
3715.71	-1.06669e-07
3724.26	-3.79894e-07
3732.82	-2.3617e-07
3741.38	-2.90073e-07
3749.94	-1.623e-08
3758.49	3.14692e-07
3767.05	3.72165e-07
3775.61	-2.42314e-08
3784.17	-1.11195e-07
3792.73	1.10624e-07
3801.28	-9.12091e-07
3809.84	5.60765e-07
3818.4	4.89177e-07
3826.96	5.65969e-07
3835.51	1.01372e-06
3844.07	1.36135e-06
3852.63	1.20929e-06
3861.19	1.59989e-06
3869.74	1.64089e-06
3878.3	1.84113e-06
3886.86	2.13342e-06
3895.42	2.78403e-06
3903.97	2.69399e-06
3912.53	2.03833e-06
3921.09	1.28022e-06
3929.65	5.88587e-07
3938.21	5.4453e-07
3946.76	8.18891e-07
3955.32	9.87521e-07
3963.88	1.2263e-06
3972.44	8.95035e-07
