Infrared Spectrum: 1,2-Dimethylbenzene
Formula: 1,2-( C H3)2 C6 H4
CAS: 95-47-6
State: gas
Melting point: -25.18 C
Boiling point: 144.4 C
Class: IUPAC A
Instrument: IFS66V (Bruker)
Instrument parameters: KBr Beam Splitter; MCT Detector; Multipass cell
Sampling: 1 L/min Flow
Resolution: 0.9640
Temperature: 23 C
Pressure: 101.3 Pa
Origin: NIST, Analytical Chemistry Division, 301-975-3108
cm-1	(micromol/mol)-1m-1 (base 10)
575.17	2.94512e-06
583.848	3.22928e-06
592.526	1.06438e-06
601.205	4.70981e-07
609.883	1.2647e-07
618.561	-4.15479e-07
627.239	-1.66993e-07
635.917	-7.46949e-08
644.595	-3.47865e-07
653.274	1.10467e-07
661.952	1.47824e-07
670.63	9.77602e-07
679.308	4.72145e-07
687.986	7.82029e-07
696.665	1.05135e-06
705.343	2.4163e-06
714.021	5.71892e-06
722.699	5.82317e-05
731.377	0.000227017
740.055	0.00077074
748.734	0.000236665
757.412	8.78993e-05
766.09	5.63118e-06
774.768	9.30045e-07
783.446	7.32036e-07
792.125	3.44951e-07
800.803	8.34602e-08
809.481	5.4543e-07
818.159	1.13191e-06
826.837	1.14262e-06
835.515	7.9405e-07
844.194	7.14991e-07
852.872	7.62772e-07
861.55	1.98253e-06
870.228	3.04574e-06
878.906	1.82539e-06
887.584	1.0213e-06
896.263	1.5133e-06
904.941	1.67462e-06
913.619	1.90247e-06
922.297	2.05383e-06
930.975	7.55657e-06
939.654	3.38277e-06
948.332	2.43706e-06
957.01	1.80593e-06
965.688	2.84333e-06
974.366	1.19282e-05
983.044	2.19008e-05
991.723	2.11116e-05
1000.4	9.45011e-06
1009.08	1.16574e-05
1017.76	1.54355e-05
1026.44	1.52319e-05
1035.11	1.17822e-05
1043.79	2.2961e-05
1052.47	3.31511e-05
1061.15	3.54522e-05
1069.83	5.15796e-06
1078.5	1.37346e-06
1087.18	1.09167e-06
1095.86	1.32533e-06
1104.54	3.19516e-06
1113.22	1.39438e-05
1121.9	1.70863e-05
1130.57	1.7017e-05
1139.25	1.09451e-05
1147.93	8.28158e-06
1156.61	5.17297e-06
1165.29	4.06534e-06
1173.96	3.57128e-06
1182.64	2.88713e-06
1191.32	2.28265e-06
1200	1.84155e-06
1208.68	2.73977e-06
1217.36	7.30995e-06
1226.03	9.48719e-06
1234.71	6.00691e-06
1243.39	9.74228e-07
1252.07	7.92084e-07
1260.75	1.13272e-06
1269.42	1.53647e-06
1278.1	1.62847e-06
1286.78	1.89148e-06
1295.46	2.10083e-06
1304.14	1.65188e-06
1312.82	1.58083e-06
1321.49	2.12404e-06
1330.17	2.81186e-06
1338.85	3.20047e-06
1347.53	3.90722e-06
1356.21	4.47245e-06
1364.88	6.49684e-06
1373.56	1.34678e-05
1382.24	2.4256e-05
1390.92	2.07843e-05
1399.6	1.54589e-05
1408.28	6.9776e-06
1416.95	8.04705e-06
1425.63	1.1392e-05
1434.31	2.32674e-05
1442.99	4.53987e-05
1451.67	7.3684e-05
1460.34	0.000124067
1469.02	0.000133766
1477.7	0.000115163
1486.38	7.92296e-05
1495.06	0.000124133
1503.74	9.3377e-05
1512.41	3.88734e-05
1521.09	8.09498e-06
1529.77	7.85108e-06
1538.45	7.76619e-06
1547.13	7.24451e-06
1555.8	6.60741e-06
1564.48	5.85131e-06
1573.16	6.29847e-06
1581.84	1.22162e-05
1590.52	2.37006e-05
1599.2	2.47123e-05
1607.87	2.99821e-05
1616.55	2.14877e-05
1625.23	1.0451e-05
1633.91	2.52901e-06
1642.59	1.28286e-06
1651.26	9.99991e-07
1659.94	3.39708e-06
1668.62	5.90868e-06
1677.3	6.1305e-06
1685.98	2.27245e-06
1694.66	1.49787e-06
1703.33	2.44255e-06
1712.01	3.2978e-06
1720.69	3.2125e-06
1729.37	1.17073e-06
1738.05	1.15812e-06
1746.72	1.23275e-06
1755.4	1.52664e-06
1764.08	1.85897e-06
1772.76	2.93411e-06
1781.44	9.28958e-06
1790.12	9.70605e-06
1798.79	3.8503e-06
1807.47	8.01491e-07
1816.15	2.61965e-06
1824.83	5.60058e-06
1833.51	6.13008e-06
1842.18	9.44618e-07
1850.86	2.76951e-06
1859.54	4.91598e-06
1868.22	5.48571e-06
1876.9	4.0803e-06
1885.58	6.33287e-06
1894.25	1.27396e-05
1902.93	1.10092e-05
1911.61	6.69139e-06
1920.29	6.51728e-07
1928.97	2.20065e-06
1937.64	8.85167e-06
1946.32	6.51877e-06
1955	3.26771e-06
1963.68	1.20047e-06
1972.36	8.48588e-07
1981.04	6.69128e-07
1989.71	4.137e-07
1998.39	1.38271e-07
2007.07	2.35347e-07
2015.75	2.85822e-08
2024.43	-1.34057e-07
2033.1	-1.40996e-07
2041.78	-5.81702e-08
2050.46	-1.01149e-07
2059.14	-1.92163e-07
2067.82	-2.60879e-07
2076.5	-3.67873e-07
2085.17	-9.82206e-08
2093.85	-3.18611e-07
2102.53	3.50848e-08
2111.21	3.31344e-07
2119.89	7.08261e-07
2128.56	1.17375e-07
2137.24	-3.70939e-07
2145.92	-2.30495e-07
2154.6	-5.36994e-08
2163.28	-1.22852e-07
2171.96	-2.16598e-07
2180.63	-1.81861e-07
2189.31	-1.30177e-07
2197.99	3.74033e-07
2206.67	9.46617e-07
2215.35	7.31309e-07
2224.02	4.04156e-07
2232.7	2.48367e-07
2241.38	2.24598e-08
2250.06	-2.25416e-07
2258.74	1.43209e-07
2267.42	7.17682e-07
2276.09	1.11558e-06
2284.77	8.66362e-07
2293.45	1.80733e-07
2302.13	2.58655e-07
2310.81	6.67491e-07
2319.48	1.33314e-06
2328.16	6.07807e-07
2336.84	1.81384e-06
2345.52	5.67861e-07
2354.2	-8.53941e-07
2362.88	-4.23444e-06
2371.55	-1.85247e-06
2380.23	-2.30928e-08
2388.91	6.41908e-08
2397.59	1.8143e-07
2406.27	9.23115e-07
2414.94	1.14792e-06
2423.62	1.68483e-06
2432.3	2.15228e-06
2440.98	2.24871e-06
2449.66	1.85443e-06
2458.34	1.25938e-06
2467.01	7.61141e-07
2475.69	5.40559e-07
2484.37	5.81531e-07
2493.05	6.6123e-07
2501.73	3.56603e-07
2510.4	3.08225e-07
2519.08	3.24972e-07
2527.76	-3.85498e-08
2536.44	-1.14876e-07
2545.12	-7.23995e-08
2553.8	3.03898e-07
2562.47	1.35973e-06
2571.15	2.7462e-06
2579.83	2.79912e-06
2588.51	1.66036e-06
2597.19	6.80845e-07
2605.86	8.82983e-07
2614.54	1.16694e-06
2623.22	6.5615e-07
2631.9	1.3726e-07
2640.58	3.27329e-08
2649.26	1.35817e-08
2657.93	8.41969e-08
2666.61	2.54457e-07
2675.29	5.19836e-07
2683.97	5.64888e-07
2692.65	5.56734e-07
2701.32	4.74216e-07
2710	1.23123e-06
2718.68	2.43561e-06
2727.36	4.84118e-06
2736.04	1.09405e-05
2744.72	1.12588e-05
2753.39	7.81275e-06
2762.07	3.53447e-06
2770.75	4.5832e-06
2779.43	5.0234e-06
2788.11	3.18935e-06
2796.78	3.17284e-06
2805.46	4.35199e-06
2814.14	6.33352e-06
2822.82	8.11093e-06
2831.5	1.05487e-05
2840.18	1.34126e-05
2848.85	1.97732e-05
2857.53	3.82302e-05
2866.21	7.12055e-05
2874.89	0.000107185
2883.57	0.000120646
2892.24	0.000111509
2900.92	9.14313e-05
2909.6	8.67608e-05
2918.28	0.000107748
2926.96	0.00016313
2935.63	0.000206005
2944.31	0.000202279
2952.99	0.000214385
2961.67	0.000145473
2970.35	0.000161823
2979.03	0.000166403
2987.7	0.000148371
2996.38	6.30416e-05
3005.06	4.87313e-05
3013.74	8.78517e-05
3022.42	0.000174962
3031.09	0.000209757
3039.77	0.000136792
3048.45	9.616e-05
3057.13	0.000115072
3065.81	0.000143262
3074.49	0.000143365
3083.16	0.000120407
3091.84	7.6208e-05
3100.52	3.80837e-05
3109.2	2.9085e-05
3117.88	2.49309e-05
3126.55	1.72996e-05
3135.23	6.31695e-06
3143.91	4.08554e-06
3152.59	3.47986e-06
3161.27	3.45436e-06
3169.95	3.47695e-06
3178.62	2.7112e-06
3187.3	1.63046e-06
3195.98	9.75263e-07
3204.66	7.28719e-07
3213.34	4.22763e-07
3222.01	3.5094e-07
3230.69	2.07233e-07
3239.37	9.90209e-09
3248.05	9.98522e-08
3256.73	3.63453e-08
3265.41	9.53849e-08
3274.08	-6.89218e-08
3282.76	-5.39122e-08
3291.44	2.70167e-07
3300.12	-4.26587e-08
3308.8	-2.57556e-08
3317.47	1.99353e-07
3326.15	-5.83449e-08
3334.83	-6.55713e-09
3343.51	3.40698e-08
3352.19	-3.62654e-07
3360.87	2.08992e-08
3369.54	2.09656e-07
3378.22	5.92465e-07
3386.9	1.17139e-07
3395.58	1.23454e-07
3404.26	-4.22258e-08
3412.93	-1.29397e-07
3421.61	-1.72745e-07
3430.29	1.26186e-07
3438.97	4.97105e-09
3447.65	-1.1397e-07
3456.33	4.77401e-07
3465	5.14811e-07
3473.68	2.94562e-07
3482.36	2.22275e-07
3491.04	-2.90788e-08
3499.72	-2.24931e-07
3508.39	-9.09268e-09
3517.07	-1.50076e-07
3525.75	-1.28389e-07
3534.43	-3.60317e-07
3543.11	-7.66812e-08
3551.79	-2.37181e-07
3560.46	9.40371e-10
3569.14	1.3316e-07
3577.82	-6.84961e-08
3586.5	-4.13205e-07
3595.18	4.27187e-08
3603.85	5.53733e-07
3612.53	8.39222e-08
3621.21	1.42385e-07
3629.89	-8.34366e-07
3638.57	-1.2137e-07
3647.25	-4.0761e-07
3655.92	-2.33396e-07
3664.6	-1.11115e-07
3673.28	5.19678e-08
3681.96	-1.85764e-08
3690.64	-3.15006e-07
3699.31	-1.79849e-07
3707.99	-4.49747e-07
3716.67	-3.13595e-07
3725.35	-4.05591e-07
3734.03	-3.20086e-07
3742.71	-3.72583e-08
3751.38	2.16193e-07
3760.06	-1.35561e-07
3768.74	1.55256e-07
3777.42	1.52868e-07
3786.1	1.35737e-07
3794.77	3.5259e-07
3803.45	1.50305e-07
3812.13	1.83321e-07
3820.81	1.4875e-08
3829.49	7.77118e-07
3838.17	9.07795e-08
3846.84	1.06617e-06
3855.52	1.29945e-06
3864.2	1.63177e-06
3872.88	1.74354e-06
3881.56	1.90509e-06
3890.23	2.13692e-06
3898.91	2.55891e-06
3907.59	2.91944e-06
3916.27	1.65812e-06
3924.95	9.98944e-07
3933.63	7.83455e-07
3942.3	6.05846e-07
3950.98	7.72279e-07
3959.66	1.09719e-06
3968.34	1.06258e-06
