Infrared Spectrum: 1,2-Dimethylbenzene
Formula: 1,2-( C H3)2 C6 H4
CAS: 95-47-6
State: gas
Melting point: -25.18 C
Boiling point: 144.4 C
Class: IUPAC A
Instrument: IFS66V (Bruker)
Instrument parameters: KBr Beam Splitter; MCT Detector; Multipass cell
Sampling: 1 L/min Flow
Resolution: 0.4820
Temperature: 23 C
Pressure: 101.3 Pa
Origin: NIST, Analytical Chemistry Division, 301-975-3108
cm-1	(micromol/mol)-1m-1 (base 10)
575.17	2.85416e-06
583.848	3.15659e-06
592.526	1.06617e-06
601.205	1.29773e-07
609.883	-1.55672e-07
618.561	-4.19078e-07
627.239	-2.16373e-07
635.917	-8.49081e-08
644.595	-3.72925e-07
653.274	-1.0996e-07
661.952	-1.34311e-07
670.63	4.65757e-07
679.308	1.94644e-07
687.986	4.72792e-07
696.665	4.3399e-07
705.343	1.53333e-06
714.021	4.83698e-06
722.699	5.70841e-05
731.377	0.000224424
740.055	0.000765002
748.734	0.00023943
757.412	8.93619e-05
766.09	6.50663e-06
774.768	1.61414e-06
783.446	1.21762e-06
792.124	7.2252e-07
800.803	4.4246e-07
809.481	8.07917e-07
818.159	1.49402e-06
826.837	1.4553e-06
835.515	1.04071e-06
844.194	8.68938e-07
852.872	9.75896e-07
861.55	2.17791e-06
870.228	3.18596e-06
878.906	2.03953e-06
887.584	1.20949e-06
896.263	1.62786e-06
904.941	1.79464e-06
913.619	1.98083e-06
922.297	2.20802e-06
930.975	7.36929e-06
939.654	3.45288e-06
948.332	2.62381e-06
957.01	1.97082e-06
965.688	2.92656e-06
974.366	1.20281e-05
983.044	2.19783e-05
991.723	2.12194e-05
1000.4	9.59984e-06
1009.08	1.17315e-05
1017.76	1.56679e-05
1026.44	1.50012e-05
1035.11	1.17523e-05
1043.79	2.29816e-05
1052.47	3.30289e-05
1061.15	3.55049e-05
1069.83	5.31401e-06
1078.5	1.44637e-06
1087.18	1.15962e-06
1095.86	1.37309e-06
1104.54	3.29728e-06
1113.22	1.3999e-05
1121.9	1.70972e-05
1130.57	1.70947e-05
1139.25	1.10009e-05
1147.93	8.33064e-06
1156.61	5.21346e-06
1165.29	4.14773e-06
1173.96	3.58771e-06
1182.64	2.91376e-06
1191.32	2.31165e-06
1200	1.95088e-06
1208.68	2.73055e-06
1217.36	7.32357e-06
1226.03	9.43449e-06
1234.71	6.03595e-06
1243.39	1.01393e-06
1252.07	8.39702e-07
1260.75	1.2004e-06
1269.42	1.54321e-06
1278.1	1.69379e-06
1286.78	1.94151e-06
1295.46	2.13814e-06
1304.14	1.66572e-06
1312.82	1.63434e-06
1321.49	2.19756e-06
1330.17	2.82034e-06
1338.85	3.23992e-06
1347.53	3.91187e-06
1356.21	4.59355e-06
1364.88	6.45501e-06
1373.56	1.3551e-05
1382.24	2.43076e-05
1390.92	2.10857e-05
1399.6	1.5563e-05
1408.28	7.06168e-06
1416.95	8.04102e-06
1425.63	1.14285e-05
1434.31	2.32718e-05
1442.99	4.54269e-05
1451.67	7.38207e-05
1460.34	0.000125524
1469.02	0.000133945
1477.7	0.000115367
1486.38	7.94506e-05
1495.06	0.000124762
1503.74	9.25921e-05
1512.41	3.88263e-05
1521.09	8.15826e-06
1529.77	7.80804e-06
1538.45	7.48861e-06
1547.13	7.27796e-06
1555.8	6.58048e-06
1564.48	5.92667e-06
1573.16	6.38002e-06
1581.84	1.22385e-05
1590.52	2.36932e-05
1599.2	2.47359e-05
1607.87	2.99404e-05
1616.55	2.16917e-05
1625.23	1.04066e-05
1633.91	2.54549e-06
1642.59	1.29605e-06
1651.26	1.18613e-06
1659.94	3.36065e-06
1668.62	5.75339e-06
1677.3	6.18002e-06
1685.98	2.43227e-06
1694.66	1.66212e-06
1703.33	2.48443e-06
1712.01	3.26982e-06
1720.69	3.24477e-06
1729.37	1.19672e-06
1738.05	1.08732e-06
1746.72	1.25492e-06
1755.4	1.56237e-06
1764.08	1.89844e-06
1772.76	3.17298e-06
1781.44	9.29097e-06
1790.12	9.62349e-06
1798.79	3.83121e-06
1807.47	8.24766e-07
1816.15	2.64074e-06
1824.83	5.65392e-06
1833.51	6.09373e-06
1842.18	9.80022e-07
1850.86	2.76981e-06
1859.54	4.9732e-06
1868.22	5.48321e-06
1876.9	4.10706e-06
1885.58	6.31057e-06
1894.25	1.26915e-05
1902.93	1.09998e-05
1911.61	6.68516e-06
1920.29	6.96306e-07
1928.97	2.17742e-06
1937.64	8.83193e-06
1946.32	6.56094e-06
1955	3.27873e-06
1963.68	1.1648e-06
1972.36	8.38442e-07
1981.04	6.87164e-07
1989.71	4.35085e-07
1998.39	1.77797e-07
2007.07	2.41952e-07
2015.75	2.7118e-08
2024.43	-1.00269e-07
2033.1	-1.32523e-07
2041.78	-5.73845e-08
2050.46	-5.42669e-08
2059.14	-1.96561e-07
2067.82	-3.2172e-07
2076.5	-3.6454e-07
2085.17	-1.27239e-07
2093.85	-3.26587e-07
2102.53	7.19066e-08
2111.21	3.59898e-07
2119.89	7.03876e-07
2128.56	1.22185e-07
2137.24	-3.7563e-07
2145.92	-2.55461e-07
2154.6	-8.81439e-08
2163.28	-1.38877e-07
2171.96	-1.82041e-07
2180.63	-1.57153e-07
2189.31	-1.11015e-07
2197.99	4.0576e-07
2206.67	9.48036e-07
2215.35	7.39918e-07
2224.02	3.98199e-07
2232.7	2.02522e-07
2241.38	3.95956e-08
2250.06	-2.27372e-07
2258.74	1.26506e-07
2267.42	7.08014e-07
2276.09	1.06007e-06
2284.77	8.23427e-07
2293.45	2.17817e-07
2302.13	1.51416e-07
2310.81	6.33456e-07
2319.48	1.17327e-06
2328.16	7.81421e-07
2336.84	1.0299e-06
2345.52	6.43987e-07
2354.2	-5.73064e-07
2362.88	-3.28947e-06
2371.55	-1.31423e-06
2380.23	-3.02538e-08
2388.91	5.42269e-08
2397.59	2.27135e-07
2406.27	9.08129e-07
2414.94	1.15854e-06
2423.62	1.67198e-06
2432.3	2.13136e-06
2440.98	2.29773e-06
2449.66	1.86506e-06
2458.34	1.24795e-06
2467.01	7.64946e-07
2475.69	5.52333e-07
2484.37	5.77963e-07
2493.05	6.34014e-07
2501.73	3.87064e-07
2510.4	3.22309e-07
2519.08	3.28497e-07
2527.76	-4.03305e-08
2536.44	-1.23059e-07
2545.12	-5.75664e-08
2553.8	3.40745e-07
2562.47	1.38678e-06
2571.15	2.7487e-06
2579.83	2.76515e-06
2588.51	1.6913e-06
2597.19	7.51495e-07
2605.86	9.11982e-07
2614.54	1.16946e-06
2623.22	6.94838e-07
2631.9	1.46567e-07
2640.58	-5.82048e-09
2649.26	-2.87714e-08
2657.93	9.8608e-08
2666.61	2.90773e-07
2675.29	5.36692e-07
2683.97	5.8299e-07
2692.65	5.87168e-07
2701.32	5.29529e-07
2710	1.20079e-06
2718.68	2.42693e-06
2727.36	4.78789e-06
2736.04	1.09655e-05
2744.71	1.1282e-05
2753.39	7.81147e-06
2762.07	3.55742e-06
2770.75	4.62009e-06
2779.43	5.04244e-06
2788.11	3.27753e-06
2796.78	3.18237e-06
2805.46	4.30296e-06
2814.14	6.33242e-06
2822.82	8.18232e-06
2831.5	1.06051e-05
2840.17	1.33755e-05
2848.85	1.97786e-05
2857.53	3.81731e-05
2866.21	7.11683e-05
2874.89	0.000107134
2883.57	0.000120684
2892.24	0.000111436
2900.92	9.15284e-05
2909.6	8.68653e-05
2918.28	0.000107796
2926.96	0.000163164
2935.63	0.000205974
2944.31	0.00020248
2952.99	0.000214223
2961.67	0.000145625
2970.35	0.000161822
2979.03	0.000166316
2987.7	0.000148315
2996.38	6.30422e-05
3005.06	4.87032e-05
3013.74	8.77992e-05
3022.42	0.000174877
3031.09	0.000209649
3039.77	0.000136796
3048.45	9.61454e-05
3057.13	0.000115144
3065.81	0.000143303
3074.49	0.000143262
3083.16	0.00012039
3091.84	7.59433e-05
3100.52	3.80948e-05
3109.2	2.90096e-05
3117.88	2.49815e-05
3126.55	1.73228e-05
3135.23	6.32068e-06
3143.91	4.15212e-06
3152.59	3.40459e-06
3161.27	3.38144e-06
3169.95	3.46149e-06
3178.62	2.68105e-06
3187.3	1.61918e-06
3195.98	1.01222e-06
3204.66	7.38735e-07
3213.34	4.26603e-07
3222.01	3.80558e-07
3230.69	2.30624e-07
3239.37	-2.06918e-08
3248.05	9.56214e-08
3256.73	5.05236e-08
3265.41	1.20047e-08
3274.08	-6.28703e-08
3282.76	-1.43093e-08
3291.44	2.15161e-07
3300.12	-1.73887e-09
3308.8	6.2752e-10
3317.47	1.7699e-07
3326.15	-7.58427e-08
3334.83	-5.37994e-08
3343.51	-4.56544e-10
3352.19	-2.67398e-07
3360.87	1.00511e-07
3369.54	1.8095e-07
3378.22	5.66285e-07
3386.9	1.14409e-07
3395.58	1.93724e-07
3404.26	-7.32562e-08
3412.93	-1.16577e-07
3421.61	-1.35221e-07
3430.29	9.30004e-08
3438.97	5.14749e-10
3447.65	-7.71068e-08
3456.33	4.03914e-07
3465	4.90246e-07
3473.68	2.93001e-07
3482.36	2.30507e-07
3491.04	-5.12766e-08
3499.72	-1.76935e-07
3508.39	-5.14912e-08
3517.07	-1.83214e-07
3525.75	-1.89504e-07
3534.43	-3.29374e-07
3543.11	-1.12641e-07
3551.79	-2.64072e-07
3560.46	-1.21939e-07
3569.14	6.28575e-08
3577.82	1.41838e-08
3586.5	-3.48197e-07
3595.18	8.6596e-08
3603.85	5.14383e-07
3612.53	9.22146e-08
3621.21	4.05233e-08
3629.89	-7.60848e-07
3638.57	-1.49119e-07
3647.25	-3.71023e-07
3655.92	-2.77288e-07
3664.6	-1.62591e-07
3673.28	-1.19896e-07
3681.96	-1.07437e-07
3690.64	-3.75523e-07
3699.31	-1.96781e-07
3707.99	-3.42681e-07
3716.67	-3.46029e-07
3725.35	-3.79057e-07
3734.03	-3.73713e-07
3742.71	-6.7754e-08
3751.38	4.18965e-08
3760.06	-9.85116e-09
3768.74	1.74392e-07
3777.42	6.65954e-08
3786.1	5.30082e-08
3794.77	2.36028e-07
3803.45	1.61527e-07
3812.13	2.03609e-07
3820.81	9.5183e-09
3829.49	7.89452e-07
3838.17	1.92556e-07
3846.84	1.08118e-06
3855.52	1.35736e-06
3864.2	1.62665e-06
3872.88	1.66576e-06
3881.56	1.83379e-06
3890.23	2.20132e-06
3898.91	2.4986e-06
3907.59	2.79453e-06
3916.27	1.59068e-06
3924.95	9.64137e-07
3933.63	7.53607e-07
3942.3	6.09475e-07
3950.98	7.91689e-07
3959.66	1.05819e-06
3968.34	1.06038e-06
