Infrared Spectrum: 1,2-Dimethylbenzene
Formula: 1,2-( C H3)2 C6 H4
CAS: 95-47-6
State: gas
Melting point: -25.18 C
Boiling point: 144.4 C
Class: IUPAC A
Instrument: IFS66V (Bruker)
Instrument parameters: KBr Beam Splitter; MCT Detector; Multipass cell
Sampling: 1 L/min Flow
Resolution: 1.9290
Temperature: 23 C
Pressure: 101.3 Pa
Origin: NIST, Analytical Chemistry Division, 301-975-3108
cm-1	(micromol/mol)-1m-1 (base 10)
575.652	2.89318e-06
584.33	2.91857e-06
593.008	1.18964e-06
601.687	2.03955e-07
610.365	-2.20813e-07
619.043	-1.00913e-08
627.721	1.09658e-07
636.399	4.97069e-08
645.077	-9.70092e-08
653.756	1.39184e-07
662.434	1.89206e-07
671.112	4.79551e-07
679.79	4.66286e-07
688.468	7.68762e-07
697.147	1.43512e-06
705.825	2.33754e-06
714.503	7.78383e-06
723.181	6.84357e-05
731.859	0.000222615
740.537	0.00103301
749.216	0.000237478
757.894	8.22783e-05
766.572	8.23814e-06
775.25	2.60249e-06
783.928	1.50929e-06
792.607	1.21132e-06
801.285	8.15631e-07
809.963	1.03448e-06
818.641	1.67874e-06
827.319	1.5088e-06
835.997	1.18863e-06
844.676	8.32294e-07
853.354	1.17322e-06
862.032	2.42348e-06
870.71	3.03697e-06
879.388	2.22783e-06
888.066	1.34099e-06
896.745	1.77046e-06
905.423	1.91815e-06
914.101	2.00254e-06
922.779	2.433e-06
931.457	6.19917e-06
940.136	3.46383e-06
948.814	2.71532e-06
957.492	2.19409e-06
966.17	3.34873e-06
974.848	1.29244e-05
983.526	2.26175e-05
992.205	2.02742e-05
1000.88	9.85689e-06
1009.56	1.22554e-05
1018.24	1.60199e-05
1026.92	1.52766e-05
1035.6	1.18934e-05
1044.27	2.51866e-05
1052.95	3.89449e-05
1061.63	3.28982e-05
1070.31	5.3237e-06
1078.99	1.67166e-06
1087.66	1.36883e-06
1096.34	1.45209e-06
1105.02	3.86924e-06
1113.7	1.45001e-05
1122.38	1.76329e-05
1131.06	1.65513e-05
1139.73	1.05915e-05
1148.41	8.28436e-06
1157.09	5.11944e-06
1165.77	4.22056e-06
1174.45	3.48814e-06
1183.12	2.99915e-06
1191.8	2.34108e-06
1200.48	2.09401e-06
1209.16	2.84008e-06
1217.84	7.42336e-06
1226.52	8.93888e-06
1235.19	5.55677e-06
1243.87	1.05124e-06
1252.55	9.47356e-07
1261.23	1.30445e-06
1269.91	1.51163e-06
1278.58	1.7383e-06
1287.26	2.06831e-06
1295.94	2.10774e-06
1304.62	1.67191e-06
1313.3	1.78568e-06
1321.98	2.34399e-06
1330.65	2.9455e-06
1339.33	3.35227e-06
1348.01	4.04596e-06
1356.69	4.95952e-06
1365.37	6.89207e-06
1374.04	1.39526e-05
1382.72	2.42376e-05
1391.4	2.07412e-05
1400.08	1.46192e-05
1408.76	7.4683e-06
1417.44	8.3997e-06
1426.11	1.2465e-05
1434.79	2.4096e-05
1443.47	4.77678e-05
1452.15	7.58388e-05
1460.83	0.00012868
1469.5	0.000130911
1478.18	0.000110194
1486.86	8.11305e-05
1495.54	0.000119275
1504.22	9.50122e-05
1512.9	3.58846e-05
1521.57	9.5252e-06
1530.25	8.20039e-06
1538.93	7.33805e-06
1547.61	7.32823e-06
1556.29	6.67319e-06
1564.96	6.00262e-06
1573.64	6.76764e-06
1582.32	1.2784e-05
1591	2.38388e-05
1599.68	2.61274e-05
1608.36	2.87981e-05
1617.03	2.17065e-05
1625.71	9.7444e-06
1634.39	2.55663e-06
1643.07	1.34715e-06
1651.75	9.17851e-07
1660.42	3.67082e-06
1669.1	5.81279e-06
1677.78	5.95438e-06
1686.46	2.44323e-06
1695.14	1.38488e-06
1703.82	2.59171e-06
1712.49	3.35863e-06
1721.17	3.17303e-06
1729.85	1.25171e-06
1738.53	1.14868e-06
1747.21	1.3286e-06
1755.88	1.593e-06
1764.56	2.04582e-06
1773.24	4.18878e-06
1781.92	9.15708e-06
1790.6	9.10033e-06
1799.28	3.59434e-06
1807.95	9.73523e-07
1816.63	2.99847e-06
1825.31	5.60582e-06
1833.99	5.86377e-06
1842.67	1.08768e-06
1851.34	3.01344e-06
1860.02	5.17956e-06
1868.7	5.273e-06
1877.38	4.22205e-06
1886.06	6.56884e-06
1894.74	1.26447e-05
1903.41	1.15155e-05
1912.09	6.09405e-06
1920.77	8.76191e-07
1929.45	2.61245e-06
1938.13	8.55663e-06
1946.8	7.20338e-06
1955.48	2.98975e-06
1964.16	1.17311e-06
1972.84	9.02622e-07
1981.52	6.9759e-07
1990.2	4.3664e-07
1998.87	2.40117e-07
2007.55	5.32719e-08
2016.23	2.94516e-08
2024.91	-7.04496e-08
2033.59	-8.50918e-08
2042.26	-2.76164e-08
2050.94	-6.40726e-08
2059.62	-2.33007e-07
2068.3	-3.5717e-07
2076.98	-2.96717e-07
2085.66	-9.11924e-08
2094.33	-2.56143e-07
2103.01	1.46243e-07
2111.69	4.19495e-07
2120.37	5.56396e-07
2129.05	1.93795e-07
2137.72	-3.49316e-07
2146.4	-2.41783e-07
2155.08	-1.378e-07
2163.76	-1.17988e-07
2172.44	-1.20648e-07
2181.12	-2.03751e-07
2189.79	-3.09122e-08
2198.47	4.82852e-07
2207.15	9.13613e-07
2215.83	7.19371e-07
2224.51	3.92755e-07
2233.18	2.08037e-07
2241.86	1.45985e-08
2250.54	-1.77701e-07
2259.22	1.43422e-07
2267.9	7.53496e-07
2276.58	1.02135e-06
2285.25	7.59416e-07
2293.93	2.98582e-07
2302.61	1.36239e-07
2311.29	7.64124e-07
2319.97	8.60809e-07
2328.64	1.0355e-07
2337.32	9.96557e-08
2346	4.79444e-07
2354.68	-2.47192e-07
2363.36	-1.67002e-06
2372.04	-7.70572e-07
2380.71	-9.06885e-08
2389.39	1.34399e-07
2398.07	2.83948e-07
2406.75	8.95153e-07
2415.43	1.18877e-06
2424.1	1.65372e-06
2432.78	2.10953e-06
2441.46	2.36456e-06
2450.14	1.90986e-06
2458.82	1.14785e-06
2467.5	7.4361e-07
2476.17	5.77495e-07
2484.85	6.06632e-07
2493.53	5.61114e-07
2502.21	4.22256e-07
2510.89	3.6103e-07
2519.56	2.81815e-07
2528.24	-9.53649e-09
2536.92	-8.00753e-08
2545.6	6.09131e-08
2554.28	4.41955e-07
2562.96	1.4638e-06
2571.63	2.79216e-06
2580.31	2.69411e-06
2588.99	1.75011e-06
2597.67	8.25742e-07
2606.35	9.97554e-07
2615.02	1.1074e-06
2623.7	7.4879e-07
2632.38	2.30611e-07
2641.06	-1.56971e-08
2649.74	2.44806e-08
2658.42	1.79134e-07
2667.09	3.24166e-07
2675.77	5.80449e-07
2684.45	6.63231e-07
2693.13	6.55446e-07
2701.81	7.11319e-07
2710.48	1.2964e-06
2719.16	2.66399e-06
2727.84	5.07256e-06
2736.52	1.10124e-05
2745.2	1.1169e-05
2753.88	7.39359e-06
2762.55	3.81463e-06
2771.23	4.88756e-06
2779.91	5.05228e-06
2788.59	3.53061e-06
2797.27	3.5006e-06
2805.94	4.58972e-06
2814.62	6.56533e-06
2823.3	8.71397e-06
2831.98	1.10605e-05
2840.66	1.41178e-05
2849.34	2.10857e-05
2858.01	4.04101e-05
2866.69	7.33122e-05
2875.37	0.000107437
2884.05	0.000118934
2892.73	0.000110134
2901.4	9.18885e-05
2910.08	8.89622e-05
2918.76	0.000111001
2927.44	0.000165109
2936.12	0.000205896
2944.8	0.000201021
2953.47	0.000204343
2962.15	0.000146468
2970.83	0.000164597
2979.51	0.000161326
2988.19	0.000141305
2996.86	6.28465e-05
3005.54	5.15307e-05
3014.22	9.37803e-05
3022.9	0.000173051
3031.58	0.000203533
3040.26	0.000134471
3048.93	9.70841e-05
3057.61	0.000117183
3066.29	0.000143013
3074.97	0.000139732
3083.65	0.000116505
3092.32	7.26473e-05
3101	3.73729e-05
3109.68	2.9558e-05
3118.36	2.52297e-05
3127.04	1.66946e-05
3135.72	6.44145e-06
3144.39	4.31208e-06
3153.07	3.60508e-06
3161.75	3.53302e-06
3170.43	3.49378e-06
3179.11	2.74535e-06
3187.78	1.70681e-06
3196.46	1.2287e-06
3205.14	8.61678e-07
3213.82	5.91052e-07
3222.5	5.13848e-07
3231.18	3.82202e-07
3239.85	2.02338e-07
3248.53	1.33818e-07
3257.21	1.18469e-07
3265.89	-4.53816e-08
3274.57	3.98612e-08
3283.24	1.02222e-07
3291.92	2.58124e-07
3300.6	1.67306e-07
3309.28	5.88396e-08
3317.96	1.97667e-07
3326.64	-4.13418e-08
3335.31	-7.09808e-08
3343.99	-4.60982e-08
3352.67	-5.50217e-08
3361.35	7.94859e-08
3370.03	1.56862e-07
3378.7	3.72189e-07
3387.38	3.37953e-07
3396.06	2.31577e-07
3404.74	-5.26753e-08
3413.42	-8.6938e-08
3422.1	-3.58069e-08
3430.77	7.96023e-08
3439.45	6.81906e-08
3448.13	1.95781e-07
3456.81	4.10808e-07
3465.49	4.12034e-07
3474.16	2.41253e-07
3482.84	1.86732e-07
3491.52	-7.62938e-08
3500.2	-1.5993e-07
3508.88	-1.42789e-07
3517.56	-1.75804e-07
3526.23	-1.84797e-07
3534.91	-2.17342e-07
3543.59	-1.09309e-07
3552.27	-1.20662e-07
3560.95	-1.29213e-07
3569.62	3.3335e-08
3578.3	9.71529e-08
3586.98	-1.25617e-07
3595.66	1.50103e-07
3604.34	3.89585e-07
3613.02	3.10079e-07
3621.69	-7.87893e-08
3630.37	-3.95473e-07
3639.05	-1.31783e-07
3647.73	-2.38465e-07
3656.41	-2.75623e-07
3665.08	-1.02228e-07
3673.76	-3.39349e-07
3682.44	-1.64194e-07
3691.12	-3.27397e-07
3699.8	-2.22584e-07
3708.48	-3.46302e-07
3717.15	-3.12061e-07
3725.83	-3.28666e-07
3734.51	-3.8274e-07
3743.19	-2.10048e-07
3751.87	-1.54357e-07
3760.54	2.81257e-07
3769.22	7.46295e-09
3777.9	-7.63811e-08
3786.58	8.26144e-08
3795.26	1.79233e-07
3803.94	2.79558e-07
3812.61	2.50413e-07
3821.29	1.50103e-07
3829.97	8.62792e-07
3838.65	6.641e-07
3847.33	1.12356e-06
3856	1.43473e-06
3864.68	1.51594e-06
3873.36	1.59052e-06
3882.04	1.82873e-06
3890.72	2.18451e-06
3899.4	2.54494e-06
3908.07	2.60178e-06
3916.75	1.5063e-06
3925.43	1.01601e-06
3934.11	7.60589e-07
3942.79	6.48154e-07
3951.46	9.21904e-07
3960.14	1.18374e-06
3968.82	1.2017e-06
