Infrared Spectrum: 1,2-Dimethylbenzene
Formula: 1,2-( C H3)2 C6 H4
CAS: 95-47-6
State: gas
Melting point: -25.18 C
Boiling point: 144.4 C
Class: IUPAC A
Instrument: IFS66V (Bruker)
Instrument parameters: KBr Beam Splitter; MCT Detector; Multipass cell
Sampling: 1 L/min Flow
Resolution: 0.9640
Temperature: 23 C
Pressure: 101.3 Pa
Origin: NIST, Analytical Chemistry Division, 301-975-3108
cm-1	(micromol/mol)-1m-1 (base 10)
575.17	3.1106e-06
583.848	2.79698e-06
592.526	1.1029e-06
601.205	8.70198e-08
609.883	-1.94677e-07
618.561	-1.77861e-07
627.239	-1.17865e-07
635.917	-9.99431e-08
644.595	-3.9712e-07
653.274	-3.49829e-08
661.952	-4.11508e-08
670.63	4.36423e-07
679.308	2.62922e-07
687.986	4.69231e-07
696.665	5.25677e-07
705.343	1.46766e-06
714.021	4.93117e-06
722.699	5.73707e-05
731.377	0.00022431
740.055	0.000781995
748.734	0.000238859
757.412	8.9258e-05
766.09	6.41612e-06
774.768	1.54154e-06
783.446	1.10971e-06
792.125	6.74901e-07
800.803	4.43042e-07
809.481	7.96474e-07
818.159	1.49092e-06
826.837	1.3832e-06
835.515	9.6423e-07
844.194	8.32791e-07
852.872	9.42607e-07
861.55	2.15288e-06
870.228	3.12623e-06
878.906	2.09244e-06
887.584	1.21248e-06
896.263	1.62293e-06
904.941	1.7885e-06
913.619	1.96544e-06
922.297	2.26367e-06
930.975	7.08506e-06
939.654	3.43582e-06
948.332	2.67096e-06
957.01	1.9724e-06
965.688	2.91969e-06
974.366	1.20509e-05
983.044	2.20155e-05
991.723	2.12085e-05
1000.4	9.6367e-06
1009.08	1.17286e-05
1017.76	1.56772e-05
1026.44	1.51113e-05
1035.11	1.17116e-05
1043.79	2.30593e-05
1052.47	3.33696e-05
1061.15	3.53833e-05
1069.83	5.29507e-06
1078.5	1.49622e-06
1087.18	1.17692e-06
1095.86	1.34657e-06
1104.54	3.34322e-06
1113.22	1.39913e-05
1121.9	1.70488e-05
1130.57	1.71316e-05
1139.25	1.0986e-05
1147.93	8.35243e-06
1156.61	5.19249e-06
1165.29	4.16649e-06
1173.96	3.52227e-06
1182.64	2.91426e-06
1191.32	2.30154e-06
1200	1.99685e-06
1208.68	2.70566e-06
1217.36	7.30243e-06
1226.03	9.40442e-06
1234.71	6.03669e-06
1243.39	1.0025e-06
1252.07	8.34619e-07
1260.75	1.20563e-06
1269.42	1.5071e-06
1278.1	1.70512e-06
1286.78	1.96702e-06
1295.46	2.13386e-06
1304.14	1.64301e-06
1312.82	1.61454e-06
1321.49	2.209e-06
1330.17	2.83937e-06
1338.85	3.212e-06
1347.53	3.94261e-06
1356.21	4.69208e-06
1364.88	6.46299e-06
1373.56	1.35391e-05
1382.24	2.42737e-05
1390.92	2.13414e-05
1399.6	1.55517e-05
1408.28	7.08166e-06
1416.95	7.98285e-06
1425.63	1.14063e-05
1434.31	2.32358e-05
1442.99	4.53392e-05
1451.67	7.37721e-05
1460.34	0.00012635
1469.02	0.000133891
1477.7	0.000115339
1486.38	7.94896e-05
1495.06	0.00012457
1503.74	9.27469e-05
1512.41	3.89751e-05
1521.09	8.38311e-06
1529.77	7.81177e-06
1538.45	7.33918e-06
1547.13	7.23621e-06
1555.8	6.61126e-06
1564.48	5.87256e-06
1573.16	6.36187e-06
1581.84	1.22368e-05
1590.52	2.36755e-05
1599.2	2.47692e-05
1607.87	2.99241e-05
1616.55	2.18982e-05
1625.23	1.04111e-05
1633.91	2.56673e-06
1642.59	1.26489e-06
1651.26	1.14445e-06
1659.94	3.36912e-06
1668.62	5.68274e-06
1677.3	6.1905e-06
1685.98	2.43189e-06
1694.66	1.65808e-06
1703.33	2.51152e-06
1712.01	3.25699e-06
1720.69	3.24582e-06
1729.37	1.19753e-06
1738.05	1.10679e-06
1746.72	1.25521e-06
1755.4	1.56055e-06
1764.08	1.90185e-06
1772.76	3.48744e-06
1781.44	9.28054e-06
1790.12	9.56974e-06
1798.79	3.82619e-06
1807.47	8.35283e-07
1816.15	2.63927e-06
1824.83	5.65954e-06
1833.51	6.04118e-06
1842.18	9.90853e-07
1850.86	2.76008e-06
1859.54	5.04167e-06
1868.22	5.44953e-06
1876.9	4.1334e-06
1885.58	6.31401e-06
1894.25	1.26704e-05
1902.93	1.09879e-05
1911.61	6.67995e-06
1920.29	7.20219e-07
1928.97	2.18698e-06
1937.64	8.81396e-06
1946.32	6.59452e-06
1955	3.28284e-06
1963.68	1.1264e-06
1972.36	8.57671e-07
1981.04	6.84754e-07
1989.71	4.243e-07
1998.39	1.77337e-07
2007.07	2.39833e-07
2015.75	1.8962e-08
2024.43	-8.21779e-08
2033.1	-1.23863e-07
2041.78	-4.27605e-08
2050.46	-6.81342e-08
2059.14	-2.09776e-07
2067.82	-3.40283e-07
2076.5	-3.49289e-07
2085.17	-1.35754e-07
2093.85	-3.11867e-07
2102.53	6.91455e-08
2111.21	3.95087e-07
2119.89	6.66127e-07
2128.56	1.50652e-07
2137.24	-3.75757e-07
2145.92	-2.55255e-07
2154.6	-1.28858e-07
2163.28	-1.37465e-07
2171.96	-1.77596e-07
2180.63	-1.69451e-07
2189.31	-9.81769e-08
2197.99	4.40299e-07
2206.67	9.57418e-07
2215.35	7.41445e-07
2224.02	4.00469e-07
2232.7	2.02311e-07
2241.38	2.71216e-08
2250.06	-2.20318e-07
2258.74	1.24282e-07
2267.42	7.20123e-07
2276.09	1.05381e-06
2284.77	7.98011e-07
2293.45	2.3157e-07
2302.13	1.21837e-07
2310.81	6.27822e-07
2319.48	1.05755e-06
2328.16	3.3781e-07
2336.84	8.47453e-07
2345.52	5.00534e-07
2354.2	-3.88171e-07
2362.88	-2.32221e-06
2371.55	-9.85576e-07
2380.23	-6.88254e-08
2388.91	1.02619e-07
2397.59	2.28348e-07
2406.27	8.98975e-07
2414.94	1.16153e-06
2423.62	1.65211e-06
2432.3	2.12719e-06
2440.98	2.3211e-06
2449.66	1.88818e-06
2458.34	1.22035e-06
2467.01	7.46755e-07
2475.69	5.29738e-07
2484.37	5.81642e-07
2493.05	6.21234e-07
2501.73	3.87437e-07
2510.4	3.27353e-07
2519.08	3.27891e-07
2527.76	-2.86841e-08
2536.44	-1.08348e-07
2545.12	-3.65999e-08
2553.8	3.46717e-07
2562.47	1.39915e-06
2571.15	2.74298e-06
2579.83	2.73462e-06
2588.51	1.72309e-06
2597.19	7.62467e-07
2605.86	9.38896e-07
2614.54	1.15166e-06
2623.22	7.26028e-07
2631.9	1.78088e-07
2640.58	-1.85892e-08
2649.26	-2.45624e-08
2657.93	1.02484e-07
2666.61	2.84843e-07
2675.29	5.32743e-07
2683.97	5.94136e-07
2692.65	5.7817e-07
2701.32	5.69347e-07
2710	1.18598e-06
2718.68	2.42768e-06
2727.36	4.76643e-06
2736.04	1.09888e-05
2744.72	1.13243e-05
2753.39	7.82378e-06
2762.07	3.56755e-06
2770.75	4.61298e-06
2779.43	5.09788e-06
2788.11	3.29622e-06
2796.78	3.20635e-06
2805.46	4.31493e-06
2814.14	6.29363e-06
2822.82	8.20324e-06
2831.5	1.05958e-05
2840.18	1.335e-05
2848.85	1.982e-05
2857.53	3.81928e-05
2866.21	7.11611e-05
2874.89	0.000107106
2883.57	0.000120661
2892.24	0.000111358
2900.92	9.16141e-05
2909.6	8.6982e-05
2918.28	0.000107805
2926.96	0.000163088
2935.63	0.000205873
2944.31	0.000202403
2952.99	0.000214031
2961.67	0.000145796
2970.35	0.00016186
2979.03	0.00016634
2987.7	0.000148265
2996.38	6.30449e-05
3005.06	4.86876e-05
3013.74	8.77842e-05
3022.42	0.000174794
3031.09	0.000209558
3039.77	0.000136849
3048.45	9.61538e-05
3057.13	0.000115201
3065.81	0.000143259
3074.49	0.000143268
3083.16	0.000120406
3091.84	7.58071e-05
3100.52	3.8141e-05
3109.2	2.89432e-05
3117.88	2.49915e-05
3126.55	1.73523e-05
3135.23	6.33172e-06
3143.91	4.11869e-06
3152.59	3.43499e-06
3161.27	3.35376e-06
3169.95	3.44946e-06
3178.62	2.70821e-06
3187.3	1.6195e-06
3195.98	1.10164e-06
3204.66	7.65526e-07
3213.34	4.41403e-07
3222.01	3.65761e-07
3230.69	2.54022e-07
3239.37	3.43899e-08
3248.05	7.91931e-08
3256.73	7.03405e-08
3265.41	-2.28254e-08
3274.08	8.18505e-09
3282.76	-1.20593e-08
3291.44	1.96083e-07
3300.12	4.07525e-08
3308.8	-5.62404e-09
3317.47	1.60092e-07
3326.15	-6.01765e-08
3334.83	-5.11038e-08
3343.51	-1.92749e-08
3352.19	-1.60158e-07
3360.87	3.9943e-08
3369.54	1.65456e-07
3378.22	4.71783e-07
3386.9	2.20534e-07
3395.58	2.20709e-07
3404.26	-1.26441e-07
3412.93	-1.15873e-07
3421.61	-3.61124e-08
3430.29	7.90294e-08
3438.97	9.56196e-09
3447.65	-2.87914e-08
3456.33	3.47568e-07
3465	4.92229e-07
3473.68	2.74239e-07
3482.36	2.26577e-07
3491.04	-4.35099e-08
3499.72	-1.08792e-07
3508.39	-1.09898e-07
3517.07	-1.79191e-07
3525.75	-1.70638e-07
3534.43	-2.58873e-07
3543.11	-1.29542e-07
3551.79	-2.56125e-07
3560.46	-1.07584e-07
3569.14	3.91773e-08
3577.82	6.87799e-08
3586.5	-2.63258e-07
3595.18	1.53821e-07
3603.85	5.15556e-07
3612.53	1.92367e-07
3621.21	1.0255e-08
3629.89	-6.96941e-07
3638.57	-1.40148e-07
3647.25	-3.18639e-07
3655.92	-3.24872e-07
3664.6	-1.39893e-07
3673.28	-1.68861e-07
3681.96	-1.36476e-07
3690.64	-3.56741e-07
3699.31	-2.24196e-07
3707.99	-3.43608e-07
3716.67	-3.68651e-07
3725.35	-3.54802e-07
3734.03	-3.24585e-07
3742.71	-7.42239e-08
3751.38	4.29515e-08
3760.06	5.94307e-08
3768.74	1.66111e-07
3777.42	-1.22667e-08
3786.1	6.06585e-08
3794.77	2.19097e-07
3803.45	2.0121e-07
3812.13	2.29045e-07
3820.81	5.55056e-08
3829.49	8.42695e-07
3838.17	2.24725e-07
3846.84	1.0706e-06
3855.52	1.38675e-06
3864.2	1.62503e-06
3872.88	1.65674e-06
3881.56	1.80867e-06
3890.23	2.22031e-06
3898.91	2.4741e-06
3907.59	2.7377e-06
3916.27	1.61107e-06
3924.95	1.01529e-06
3933.63	7.39643e-07
3942.3	6.17415e-07
3950.98	8.08046e-07
3959.66	1.08974e-06
3968.34	1.10481e-06
