Infrared Spectrum: 1,2-Dimethylbenzene
Formula: 1,2-( C H3)2 C6 H4
CAS: 95-47-6
State: gas
Melting point: -25.18 C
Boiling point: 144.4 C
Class: IUPAC A
Instrument: IFS66V (Bruker)
Instrument parameters: KBr Beam Splitter; MCT Detector; Multipass cell
Sampling: 1 L/min Flow
Resolution: 0.1250
Temperature: 23 C
Pressure: 101.3 Pa
Origin: NIST, Analytical Chemistry Division, 301-975-3108
cm-1	(micromol/mol)-1m-1 (base 10)
575.05	-1.65056e-06
583.608	-1.23744e-06
592.165	6.13466e-07
600.723	-8.23973e-07
609.281	-5.41594e-07
617.838	7.08283e-07
626.396	5.70049e-07
634.954	1.39721e-06
643.511	-2.57611e-08
652.069	-3.33055e-07
660.626	9.89372e-08
669.184	4.26687e-07
677.742	-2.40488e-07
686.299	-1.2623e-07
694.857	3.59278e-07
703.415	1.18735e-06
711.972	2.62401e-06
720.53	3.16587e-05
729.088	0.000191683
737.645	0.000236326
746.203	0.000206063
754.761	0.000155991
763.318	1.55439e-05
771.876	2.60764e-06
780.434	1.24507e-06
788.991	3.90743e-07
797.549	1.93033e-07
806.106	8.05533e-07
814.664	9.69188e-07
823.222	1.87636e-06
831.779	9.18048e-07
840.337	7.61148e-07
848.895	7.25152e-07
857.452	1.70974e-06
866.01	2.65148e-06
874.568	2.45779e-06
883.125	1.67634e-06
891.683	1.37337e-06
900.241	1.8368e-06
908.798	2.06606e-06
917.356	2.06845e-06
925.914	2.68923e-06
934.471	3.03587e-06
943.029	3.50256e-06
951.586	2.22339e-06
960.144	2.08659e-06
968.702	4.54198e-06
977.259	1.72846e-05
985.817	2.29862e-05
994.375	1.76406e-05
1002.93	8.9538e-06
1011.49	1.34725e-05
1020.05	1.74336e-05
1028.61	1.37448e-05
1037.16	1.11756e-05
1045.72	3.20186e-05
1054.28	5.19548e-05
1062.84	2.92742e-05
1071.39	3.90146e-06
1079.95	1.25119e-06
1088.51	1.65789e-06
1097.07	1.39329e-06
1105.62	3.79678e-06
1114.18	1.53852e-05
1122.74	1.84431e-05
1131.3	1.65539e-05
1139.85	1.06338e-05
1148.41	8.29886e-06
1156.97	4.92323e-06
1165.53	4.11774e-06
1174.09	3.61881e-06
1182.64	2.86422e-06
1191.2	2.12541e-06
1199.76	1.96701e-06
1208.32	2.65534e-06
1216.87	7.00923e-06
1225.43	9.28408e-06
1233.99	6.77255e-06
1242.55	1.29047e-06
1251.1	8.23682e-07
1259.66	1.29978e-06
1268.22	1.35426e-06
1276.78	1.75947e-06
1285.33	2.01726e-06
1293.89	1.99809e-06
1302.45	1.51027e-06
1311.01	1.89551e-06
1319.57	2.16983e-06
1328.12	2.47389e-06
1336.68	3.11046e-06
1345.24	4.13816e-06
1353.8	3.498e-06
1362.35	5.47935e-06
1370.91	1.091e-05
1379.47	1.48514e-05
1388.03	2.3528e-05
1396.58	2.21568e-05
1405.14	7.82156e-06
1413.7	7.19223e-06
1422.26	9.03866e-06
1430.81	1.78896e-05
1439.37	3.11358e-05
1447.93	6.76932e-05
1456.49	9.63256e-05
1465.05	0.000143858
1473.6	0.000123318
1482.16	8.95233e-05
1490.72	9.45192e-05
1499.28	0.000110283
1507.83	9.34145e-05
1516.39	1.42989e-05
1524.95	8.52618e-06
1533.51	8.00327e-06
1542.06	6.54389e-06
1550.62	7.14915e-06
1559.18	6.24626e-06
1567.74	5.83047e-06
1576.29	6.19154e-06
1584.85	1.52269e-05
1593.41	2.61846e-05
1601.97	3.02516e-05
1610.53	2.51968e-05
1619.08	2.12681e-05
1627.64	6.77448e-06
1636.2	2.11828e-06
1644.76	1.00483e-06
1653.31	-1.25023e-06
1661.87	4.4644e-06
1670.43	6.97043e-06
1678.99	5.92274e-06
1687.54	2.50206e-06
1696.1	7.9873e-07
1704.66	2.74521e-06
1713.22	3.50057e-06
1721.77	3.2888e-06
1730.33	1.2777e-06
1738.89	1.02106e-06
1747.45	1.29995e-06
1756.01	1.46001e-06
1764.56	1.95863e-06
1773.12	4.44955e-06
1781.68	9.29232e-06
1790.24	9.57396e-06
1798.79	3.98409e-06
1807.35	8.41316e-07
1815.91	2.53701e-06
1824.47	5.85418e-06
1833.02	5.80196e-06
1841.58	1.23133e-06
1850.14	2.47352e-06
1858.7	4.52504e-06
1867.25	5.50172e-06
1875.81	4.04267e-06
1884.37	5.83768e-06
1892.93	1.16605e-05
1901.49	9.75477e-06
1910.04	8.49675e-06
1918.6	1.17698e-06
1927.16	1.28981e-06
1935.72	7.91236e-06
1944.27	1.25425e-05
1952.83	5.90125e-06
1961.39	1.10106e-06
1969.95	1.03103e-06
1978.5	7.17763e-07
1987.06	3.61248e-07
1995.62	3.06828e-07
2004.18	1.46611e-07
2012.73	-4.8963e-08
2021.29	9.67109e-09
2029.85	7.64211e-08
2038.41	-6.90909e-08
2046.97	-4.4563e-09
2055.52	-1.48195e-07
2064.08	-4.68771e-07
2072.64	-3.98612e-07
2081.2	-2.34038e-07
2089.75	-1.47669e-07
2098.31	-1.71269e-07
2106.87	2.50912e-07
2115.43	7.5602e-07
2123.98	2.89487e-07
2132.54	-1.22154e-07
2141.1	-6.04975e-07
2149.66	-1.27041e-07
2158.21	2.91948e-07
2166.77	-1.88345e-07
2175.33	-3.5958e-07
2183.89	-1.95519e-07
2192.45	1.18792e-07
2201	6.07427e-07
2209.56	9.00539e-07
2218.12	6.1373e-07
2226.68	4.0026e-07
2235.23	1.51172e-07
2243.79	-4.67821e-08
2252.35	-2.87363e-07
2260.91	1.65327e-07
2269.46	9.68437e-07
2278.02	9.52089e-07
2286.58	7.33846e-07
2295.14	5.23388e-08
2303.69	1.48188e-07
2312.25	9.86215e-07
2320.81	4.57341e-07
2329.37	9.94871e-07
2337.93	7.48883e-07
2346.48	1.13406e-06
2355.04	4.50836e-07
2363.6	-3.91389e-07
2372.16	-1.52089e-07
2380.71	-3.58636e-07
2389.27	1.96676e-07
2397.83	2.12704e-07
2406.39	9.54155e-07
2414.94	1.2207e-06
2423.5	1.69798e-06
2432.06	2.16173e-06
2440.62	2.2662e-06
2449.17	1.84733e-06
2457.73	1.38643e-06
2466.29	8.00913e-07
2474.85	5.10131e-07
2483.41	4.54048e-07
2491.96	5.4971e-07
2500.52	4.68625e-07
2509.08	4.81872e-07
2517.64	4.79791e-07
2526.19	-7.00277e-09
2534.75	6.35524e-09
2543.31	-1.76435e-07
2551.87	2.50346e-07
2560.42	1.06679e-06
2568.98	2.47653e-06
2577.54	2.73116e-06
2586.1	2.26515e-06
2594.65	9.61058e-07
2603.21	7.55504e-07
2611.77	9.52645e-07
2620.33	1.01741e-06
2628.89	1.36812e-07
2637.44	-2.02533e-07
2646	1.71781e-07
2654.56	-7.9013e-08
2663.12	2.28017e-08
2671.67	4.64571e-07
2680.23	4.72896e-07
2688.79	5.88014e-07
2697.35	5.43686e-07
2705.9	1.12358e-06
2714.46	1.58071e-06
2723.02	3.58691e-06
2731.58	6.98136e-06
2740.13	1.14174e-05
2748.69	1.1977e-05
2757.25	4.06352e-06
2765.81	4.15568e-06
2774.37	4.4286e-06
2782.92	3.88558e-06
2791.48	3.19361e-06
2800.04	3.61096e-06
2808.6	4.71115e-06
2817.15	6.90754e-06
2825.71	9.16323e-06
2834.27	1.15347e-05
2842.83	1.52805e-05
2851.38	2.32767e-05
2859.94	4.68032e-05
2868.5	8.13627e-05
2877.06	0.000113044
2885.61	0.000118664
2894.17	0.000108164
2902.73	9.04566e-05
2911.29	9.13588e-05
2919.85	0.000115904
2928.4	0.0001716
2936.96	0.000210528
2945.52	0.000198512
2954.08	0.000197742
2962.63	0.000146083
2971.19	0.000167514
2979.75	0.000157785
2988.31	0.000141575
2996.86	6.08959e-05
3005.42	4.97397e-05
3013.98	9.01657e-05
3022.54	0.000175278
3031.09	0.000209464
3039.65	0.000137447
3048.21	9.63581e-05
3056.77	0.000113787
3065.33	0.000141562
3073.88	0.00014585
3082.44	0.000124137
3091	8.072e-05
3099.56	4.24084e-05
3108.11	2.87367e-05
3116.67	2.58205e-05
3125.23	1.96033e-05
3133.79	7.06528e-06
3142.34	4.26015e-06
3150.9	3.34735e-06
3159.46	3.24736e-06
3168.02	3.48712e-06
3176.57	2.75591e-06
3185.13	1.53832e-06
3193.69	1.20011e-06
3202.25	1.17805e-06
3210.81	9.03584e-07
3219.36	4.7127e-07
3227.92	4.49648e-07
3236.48	2.75365e-07
3245.04	-3.18729e-07
3253.59	1.85395e-07
3262.15	5.65833e-07
3270.71	-1.45652e-07
3279.27	-2.60927e-07
3287.82	4.15282e-07
3296.38	2.86953e-07
3304.94	-3.33586e-08
3313.5	5.78363e-07
3322.05	-6.8578e-08
3330.61	-3.51388e-07
3339.17	1.94586e-08
3347.73	-6.3046e-07
3356.29	-7.68378e-07
3364.84	5.05012e-07
3373.4	1.4451e-07
3381.96	1.43346e-07
3390.52	3.08676e-07
3399.07	-6.36324e-08
3407.63	2.46788e-07
3416.19	-2.51054e-07
3424.75	9.17144e-08
3433.3	8.04227e-08
3441.86	1.05727e-07
3450.42	2.43161e-07
3458.98	3.30078e-07
3467.53	7.06788e-07
3476.09	-5.31392e-08
3484.65	2.41608e-07
3493.21	3.29561e-07
3501.77	-8.59376e-08
3510.32	-2.11938e-07
3518.88	-1.58646e-07
3527.44	-2.71369e-07
3536	-3.55293e-07
3544.55	1.84704e-07
3553.11	-1.26539e-07
3561.67	-2.27937e-07
3570.23	2.71844e-07
3578.78	-2.27341e-07
3587.34	6.34469e-08
3595.9	1.78589e-07
3604.46	3.59473e-07
3613.01	5.27954e-07
3621.57	-2.2687e-07
3630.13	-1.7562e-07
3638.69	-2.83978e-07
3647.25	-2.71254e-07
3655.8	-8.30419e-08
3664.36	-2.25522e-07
3672.92	-1.22034e-07
3681.48	-8.20797e-08
3690.03	-5.15735e-07
3698.59	-5.33163e-07
3707.15	-9.20327e-08
3715.71	-7.34817e-08
3724.26	-3.27633e-07
3732.82	-3.94167e-07
3741.38	-3.09248e-07
3749.94	-9.57287e-08
3758.49	3.55155e-07
3767.05	4.11401e-07
3775.61	5.86231e-09
3784.17	-1.25013e-08
3792.73	4.74024e-08
3801.28	-6.54202e-07
3809.84	8.0713e-07
3818.4	4.57326e-07
3826.96	7.42821e-07
3835.51	1.00059e-06
3844.07	1.48887e-06
3852.63	1.18543e-06
3861.19	1.47917e-06
3869.74	1.65563e-06
3878.3	1.84932e-06
3886.86	2.43778e-06
3895.42	3.08056e-06
3903.97	2.88994e-06
3912.53	2.24863e-06
3921.09	1.32428e-06
3929.65	6.67229e-07
3938.21	5.51018e-07
3946.76	8.20628e-07
3955.32	8.32305e-07
3963.88	1.19479e-06
3972.44	6.14635e-07
