Infrared Spectrum: 1,2-Dimethylbenzene
Formula: 1,2-( C H3)2 C6 H4
CAS: 95-47-6
State: gas
Melting point: -25.18 C
Boiling point: 144.4 C
Class: IUPAC A
Instrument: IFS66V (Bruker)
Instrument parameters: KBr Beam Splitter; MCT Detector; Multipass cell
Sampling: 1 L/min Flow
Resolution: 0.1250
Temperature: 23 C
Pressure: 101.3 Pa
Origin: NIST, Analytical Chemistry Division, 301-975-3108
cm-1	(micromol/mol)-1m-1 (base 10)
575.05	-2.18075e-06
583.608	-1.55295e-06
592.165	6.04351e-07
600.723	-9.38556e-07
609.281	-6.5089e-07
617.838	7.71397e-07
626.396	7.23793e-07
634.954	1.52866e-06
643.511	-5.53582e-08
652.069	-4.35559e-07
660.626	1.19935e-07
669.184	4.18394e-07
677.742	-2.86857e-07
686.299	-1.77032e-07
694.857	3.45516e-07
703.415	1.11435e-06
711.972	2.44066e-06
720.53	3.14016e-05
729.088	0.000191806
737.645	0.000234912
746.203	0.000205434
754.761	0.000155976
763.318	1.53592e-05
771.876	2.58176e-06
780.434	1.18927e-06
788.991	3.19608e-07
797.549	1.57486e-07
806.106	7.96318e-07
814.664	9.6654e-07
823.222	1.87419e-06
831.779	8.69372e-07
840.337	7.85967e-07
848.895	7.13302e-07
857.452	1.70409e-06
866.01	2.61322e-06
874.568	2.42866e-06
883.125	1.66015e-06
891.683	1.37909e-06
900.241	1.85555e-06
908.798	2.07849e-06
917.356	2.07195e-06
925.914	2.69977e-06
934.471	2.99541e-06
943.029	3.51721e-06
951.586	2.20592e-06
960.144	2.08486e-06
968.702	4.53756e-06
977.259	1.73002e-05
985.817	2.30051e-05
994.375	1.76549e-05
1002.93	8.92737e-06
1011.49	1.34496e-05
1020.05	1.74299e-05
1028.61	1.36927e-05
1037.16	1.1143e-05
1045.72	3.20876e-05
1054.28	5.23046e-05
1062.84	2.92891e-05
1071.39	3.89002e-06
1079.95	1.22805e-06
1088.51	1.68685e-06
1097.07	1.40042e-06
1105.62	3.7652e-06
1114.18	1.53808e-05
1122.74	1.84662e-05
1131.3	1.65821e-05
1139.85	1.06229e-05
1148.41	8.31234e-06
1156.97	4.89984e-06
1165.53	4.09546e-06
1174.09	3.62216e-06
1182.64	2.86262e-06
1191.2	2.09892e-06
1199.76	1.96411e-06
1208.32	2.63954e-06
1216.87	7.02479e-06
1225.43	9.31489e-06
1233.99	6.81878e-06
1242.55	1.3265e-06
1251.1	8.05351e-07
1259.66	1.28875e-06
1268.22	1.33274e-06
1276.78	1.77133e-06
1285.33	2.01462e-06
1293.89	1.99841e-06
1302.45	1.48534e-06
1311.01	1.91512e-06
1319.57	2.15884e-06
1328.12	2.46022e-06
1336.68	3.10258e-06
1345.24	4.16181e-06
1353.8	3.41793e-06
1362.35	5.43987e-06
1370.91	1.08696e-05
1379.47	1.48507e-05
1388.03	2.34823e-05
1396.58	2.22023e-05
1405.14	7.77214e-06
1413.7	7.15144e-06
1422.26	8.99586e-06
1430.81	1.78558e-05
1439.37	3.10925e-05
1447.93	6.80077e-05
1456.49	9.62599e-05
1465.05	0.000144031
1473.6	0.00012332
1482.16	8.95541e-05
1490.72	9.45207e-05
1499.28	0.000110222
1507.83	9.35948e-05
1516.39	1.41704e-05
1524.95	8.49818e-06
1533.51	8.02125e-06
1542.06	6.46536e-06
1550.62	7.15327e-06
1559.18	6.24694e-06
1567.74	5.8207e-06
1576.29	6.08528e-06
1584.85	1.5213e-05
1593.41	2.62167e-05
1601.97	3.03031e-05
1610.53	2.52264e-05
1619.08	2.1311e-05
1627.64	6.75853e-06
1636.2	2.13024e-06
1644.76	9.80358e-07
1653.31	-1.43641e-06
1661.87	4.46839e-06
1670.43	6.99551e-06
1678.99	5.96467e-06
1687.54	2.52382e-06
1696.1	8.24991e-07
1704.66	2.75477e-06
1713.22	3.48896e-06
1721.77	3.31456e-06
1730.33	1.28794e-06
1738.89	1.00133e-06
1747.45	1.2872e-06
1756.01	1.44291e-06
1764.56	1.94998e-06
1773.12	4.49671e-06
1781.68	9.29853e-06
1790.24	9.60121e-06
1798.79	3.99476e-06
1807.35	8.33698e-07
1815.91	2.53073e-06
1824.47	5.85644e-06
1833.02	5.80612e-06
1841.58	1.21065e-06
1850.14	2.47061e-06
1858.7	4.51388e-06
1867.25	5.51412e-06
1875.81	4.02891e-06
1884.37	5.8368e-06
1892.93	1.1671e-05
1901.49	9.73489e-06
1910.04	8.49819e-06
1918.6	1.18498e-06
1927.16	1.27805e-06
1935.72	7.94177e-06
1944.27	1.26894e-05
1952.83	5.91179e-06
1961.39	1.09879e-06
1969.95	1.04104e-06
1978.5	7.19582e-07
1987.06	3.48447e-07
1995.62	3.15332e-07
2004.18	1.59921e-07
2012.73	-5.06873e-08
2021.29	-9.22182e-10
2029.85	8.24689e-08
2038.41	-7.1259e-08
2046.97	2.24088e-09
2055.52	-1.59352e-07
2064.08	-4.88684e-07
2072.64	-3.95578e-07
2081.2	-2.35724e-07
2089.75	-1.52557e-07
2098.31	-1.85968e-07
2106.87	2.51236e-07
2115.43	7.46369e-07
2123.98	2.62314e-07
2132.54	-1.29113e-07
2141.1	-6.28914e-07
2149.66	-1.15284e-07
2158.21	3.17673e-07
2166.77	-1.99466e-07
2175.33	-3.6651e-07
2183.89	-1.97922e-07
2192.45	1.31501e-07
2201	6.21474e-07
2209.56	8.90593e-07
2218.12	6.24674e-07
2226.68	4.09069e-07
2235.23	1.4489e-07
2243.79	-4.83955e-08
2252.35	-3.15821e-07
2260.91	1.68599e-07
2269.46	9.71074e-07
2278.02	9.43509e-07
2286.58	7.43814e-07
2295.14	4.85337e-08
2303.69	1.39579e-07
2312.25	1.0012e-06
2320.81	4.79235e-07
2329.37	1.04441e-06
2337.93	8.75824e-07
2346.48	1.17333e-06
2355.04	5.04948e-07
2363.6	-3.07705e-07
2372.16	-1.059e-07
2380.71	-3.92719e-07
2389.27	2.21495e-07
2397.83	2.12809e-07
2406.39	9.60197e-07
2414.94	1.23781e-06
2423.5	1.70968e-06
2432.06	2.17023e-06
2440.62	2.27051e-06
2449.17	1.83799e-06
2457.73	1.38339e-06
2466.29	8.12708e-07
2474.85	5.0907e-07
2483.41	4.47231e-07
2491.96	5.47818e-07
2500.52	4.62901e-07
2509.08	4.9167e-07
2517.64	5.04295e-07
2526.19	-2.97463e-08
2534.75	1.08879e-08
2543.31	-1.95041e-07
2551.87	2.46281e-07
2560.42	1.05665e-06
2568.98	2.49137e-06
2577.54	2.72243e-06
2586.1	2.27822e-06
2594.65	9.58824e-07
2603.21	7.59645e-07
2611.77	9.42017e-07
2620.33	1.01396e-06
2628.89	1.43289e-07
2637.44	-2.32495e-07
2646	1.84924e-07
2654.56	-9.7664e-08
2663.12	4.90739e-09
2671.67	4.55569e-07
2680.23	4.62754e-07
2688.79	5.74194e-07
2697.35	5.47713e-07
2705.9	1.15489e-06
2714.46	1.57675e-06
2723.02	3.5887e-06
2731.58	6.96045e-06
2740.13	1.14287e-05
2748.69	1.19966e-05
2757.25	4.02397e-06
2765.81	4.1329e-06
2774.37	4.43374e-06
2782.92	3.85745e-06
2791.48	3.16332e-06
2800.04	3.60604e-06
2808.6	4.67713e-06
2817.15	6.90691e-06
2825.71	9.11984e-06
2834.27	1.1521e-05
2842.83	1.52457e-05
2851.38	2.32451e-05
2859.94	4.67668e-05
2868.5	8.13791e-05
2877.06	0.000113114
2885.61	0.000118747
2894.17	0.000108163
2902.73	9.03663e-05
2911.29	9.13734e-05
2919.85	0.000115856
2928.4	0.000171667
2936.96	0.000210645
2945.52	0.00019839
2954.08	0.000197862
2962.63	0.000146061
2971.19	0.000167563
2979.75	0.000157659
2988.31	0.000141672
2996.86	6.07639e-05
3005.42	4.96352e-05
3013.98	9.00758e-05
3022.54	0.000175497
3031.09	0.000209791
3039.65	0.000137401
3048.21	9.62304e-05
3056.77	0.000113798
3065.33	0.000141585
3073.88	0.000145964
3082.44	0.000124249
3091	8.0751e-05
3099.56	4.23459e-05
3108.11	2.87476e-05
3116.67	2.58044e-05
3125.23	1.95947e-05
3133.79	7.04168e-06
3142.34	4.23547e-06
3150.9	3.32114e-06
3159.46	3.21296e-06
3168.02	3.4802e-06
3176.57	2.74032e-06
3185.13	1.51043e-06
3193.69	1.18892e-06
3202.25	1.2214e-06
3210.81	9.15976e-07
3219.36	4.52411e-07
3227.92	4.42051e-07
3236.48	2.52145e-07
3245.04	-3.80823e-07
3253.59	2.06787e-07
3262.15	6.06216e-07
3270.71	-1.61533e-07
3279.27	-3.06592e-07
3287.82	4.46696e-07
3296.38	2.9663e-07
3304.94	-5.85977e-08
3313.5	6.14121e-07
3322.05	-6.97694e-08
3330.61	-3.82507e-07
3339.17	2.15849e-08
3347.73	-6.80238e-07
3356.29	-8.40848e-07
3364.84	5.48917e-07
3373.4	1.35841e-07
3381.96	1.33333e-07
3390.52	3.26542e-07
3399.07	-8.62577e-08
3407.63	2.98967e-07
3416.19	-2.70838e-07
3424.75	1.02741e-07
3433.3	1.11697e-07
3441.86	1.13228e-07
3450.42	2.51454e-07
3458.98	3.126e-07
3467.53	7.18258e-07
3476.09	-1.01909e-07
3484.65	2.57991e-07
3493.21	3.4148e-07
3501.77	-6.22973e-08
3510.32	-2.28008e-07
3518.88	-1.53741e-07
3527.44	-2.82353e-07
3536	-3.58942e-07
3544.55	2.04743e-07
3553.11	-1.39544e-07
3561.67	-2.45486e-07
3570.23	2.89894e-07
3578.78	-2.66032e-07
3587.34	9.08904e-08
3595.9	1.90923e-07
3604.46	3.59376e-07
3613.01	5.58346e-07
3621.57	-2.33954e-07
3630.13	-1.436e-07
3638.69	-2.95064e-07
3647.25	-2.8082e-07
3655.8	-6.85125e-08
3664.36	-2.43245e-07
3672.92	-1.17317e-07
3681.48	-6.3425e-08
3690.03	-5.57795e-07
3698.59	-5.84631e-07
3707.15	-7.31543e-08
3715.71	-5.13603e-08
3724.26	-3.10159e-07
3732.82	-3.9718e-07
3741.38	-3.231e-07
3749.94	-9.80696e-08
3758.49	3.46002e-07
3767.05	4.06857e-07
3775.61	6.99731e-09
3784.17	-2.75873e-08
3792.73	3.95192e-08
3801.28	-6.78841e-07
3809.84	8.45552e-07
3818.4	4.62377e-07
3826.96	7.53192e-07
3835.51	1.01081e-06
3844.07	1.55235e-06
3852.63	1.19618e-06
3861.19	1.48906e-06
3869.74	1.70289e-06
3878.3	1.8461e-06
3886.86	2.49839e-06
3895.42	3.11624e-06
3903.97	2.9355e-06
3912.53	2.28383e-06
3921.09	1.3081e-06
3929.65	6.53896e-07
3938.21	5.2689e-07
3946.76	8.5417e-07
3955.32	8.31314e-07
3963.88	1.18711e-06
3972.44	5.72228e-07
