Infrared Spectrum: BENZENE, 1-CHLORO-2-METHYL-
Formula: C7 H7 Cl
CAS: 95-49-8
State: SOLUTION (2% IN CCl4 FOR 3800-1333 AND 2% IN CS2 FOR 1333-450 CM^-^1)
Class: COBLENTZ III
Instrument: DOW KBr FOREPRISM-GRATING
Instrument parameters: BLAZED AT 3.5, 12.0, 20.0 MICRON, CHANGED AT 5.0, 7.5, 14.9 MICRON
Sampling: TRANSMISSION
Path length: 0.012, 0.011 CM
Resolution: 4
Origin: DOW CHEMICAL COMPANY
1/CM	TRANSMITTANCE
449.538	0.989
458.229	0.986
466.92	0.978
475.611	0.979
484.302	0.968
492.993	0.971
501.684	0.97
510.375	0.976
519.066	0.978
527.756	0.971
536.447	0.982
545.138	0.979
553.829	0.951
562.52	0.989
571.211	0.987
579.902	0.985
588.593	0.987
597.284	0.98
605.975	0.975
614.666	0.979
623.357	0.971
632.048	0.957
640.739	0.936
649.43	0.921
658.121	0.936
666.812	0.949
675.503	0.876
684.193	0.868
692.884	0.959
701.575	0.942
710.266	0.972
718.957	0.972
727.648	0.964
736.339	0.936
745.03	0.487
753.721	0.761
762.412	0.952
771.103	0.965
779.794	0.963
788.485	0.955
797.176	0.965
805.867	0.866
814.558	0.965
823.249	0.97
831.939	0.957
840.63	0.922
849.321	0.834
858.012	0.783
866.703	0.817
875.394	0.855
884.085	0.889
892.776	0.933
901.467	0.942
910.158	0.945
918.849	0.945
927.54	0.938
936.231	0.906
944.922	0.94
953.613	0.945
962.304	0.949
970.995	0.948
979.685	0.946
988.376	0.929
997.067	0.94
1005.76	0.934
1014.45	0.891
1023.14	0.915
1031.83	0.872
1040.52	0.748
1049.21	0.812
1057.9	0.4461
1066.59	0.912
1075.29	0.937
1083.98	0.949
1092.67	0.944
1101.36	0.96
1110.05	0.963
1118.74	0.967
1127.43	0.929
1136.12	0.941
1144.81	0.961
1153.5	0.967
1162.2	0.971
1170.89	0.972
1179.58	0.959
1188.27	0.972
1196.96	0.97
1205.65	0.961
1214.34	0.968
1223.03	0.97
1231.72	0.965
1240.41	0.96
1249.1	0.945
1257.8	0.931
1266.49	0.933
1275.18	0.926
1283.87	0.915
1292.56	0.941
1301.25	0.951
1309.94	0.957
1318.63	0.96
1327.32	0.965
1336.01	0.961
1344.71	0.964
1353.4	0.963
1362.09	0.967
1370.78	0.963
1379.47	0.949
1388.16	0.97
1396.85	0.967
1405.54	0.955
1414.23	0.953
1422.92	0.936
1431.61	0.899
1440.31	0.817
1449	0.866
1457.69	0.774
1466.38	0.824
1475.07	0.549
1483.76	0.774
1492.45	0.804
1501.14	0.802
1509.83	0.771
1518.52	0.725
1527.21	0.682
1535.91	0.598
1544.6	0.5
1553.29	0.491
1561.98	0.563
1570.67	0.629
1579.36	0.646
1588.05	0.7
1596.74	0.764
1605.43	0.869
1614.12	0.927
1622.82	0.959
1631.51	0.97
1640.2	0.982
1648.89	1.002
1657.58	0.99
1666.27	0.986
1674.96	0.98
1683.65	0.975
1692.34	0.978
1701.03	0.978
1709.72	0.972
1718.42	0.978
1727.11	0.975
1735.8	0.978
1744.49	0.971
1753.18	0.978
1761.87	0.976
1770.56	0.978
1779.25	0.972
1787.94	0.963
1796.63	0.964
1805.33	0.97
1814.02	0.97
1822.71	0.965
1831.4	0.957
1840.09	0.967
1848.78	0.965
1857.47	0.961
1866.16	0.965
1874.85	0.957
1883.54	0.965
1892.23	0.967
1900.93	0.964
1909.62	0.952
1918.31	0.97
1927	0.968
1935.69	0.965
1944.38	0.961
1953.07	0.97
1961.76	1.001
1970.45	0.967
1979.14	0.97
1987.83	0.967
1996.53	0.983
2005.22	0.986
2013.91	0.987
2022.6	0.987
2031.29	0.99
2039.98	0.989
2048.67	0.989
2057.36	0.99
2066.05	0.98
2074.74	0.989
2083.44	0.987
2092.13	0.99
2100.82	0.99
2109.51	0.993
2118.2	0.9901
2126.89	0.989
2135.58	0.987
2144.27	0.987
2152.96	0.983
2161.65	0.98
2170.34	0.982
2179.04	0.983
2187.73	0.979
2196.42	0.9801
2205.11	0.986
2213.8	0.982
2222.49	0.9819
2231.18	0.9789
2239.87	0.975
2248.56	0.975
2257.25	0.9709
2265.95	0.963
2274.64	0.9569
2283.33	0.9549
2292.02	0.952
2300.71	0.955
2309.4	0.9562
2318.09	0.961
2326.78	0.963
2335.47	0.965
2344.16	0.9671
2352.85	0.97
2361.55	0.9711
2370.24	0.9722
2378.93	0.975
2387.62	0.975
2396.31	0.971
2405	0.97
2413.69	0.972
2422.38	0.9747
2431.07	0.9711
2439.76	0.9722
2448.45	0.975
2457.15	0.975
2465.84	0.972
2474.53	0.9719
2483.22	0.9711
2491.91	0.974
2500.6	0.975
2509.29	0.975
2517.98	0.97
2526.67	0.972
2535.36	0.97
2544.06	0.97
2552.75	0.9706
2561.44	0.9641
2570.13	0.9703
2578.82	0.9701
2587.51	0.964
2596.2	0.965
2604.89	0.9719
2613.58	0.968
2622.27	0.9667
2630.96	0.964
2639.66	0.9639
2648.35	0.9653
2657.04	0.965
2665.73	0.968
2674.42	0.965
2683.11	0.971
2691.8	0.9665
2700.49	0.97
2709.18	0.961
2717.87	0.961
2726.56	0.9638
2735.26	0.957
2743.95	0.956
2752.64	0.963
2761.33	0.96
2770.02	0.959
2778.71	0.9552
2787.4	0.96
2796.09	0.957
2804.78	0.96
2813.47	0.959
2822.17	0.96
2830.86	0.9598
2839.55	0.9568
2848.24	0.952
2856.93	0.948
2865.62	0.949
2874.31	0.9534
2883	0.956
2891.69	0.9544
2900.38	0.9456
2909.07	0.9326
2917.77	0.9253
2926.46	0.9124
2935.15	0.927
2943.84	0.9298
2952.53	0.9053
2961.22	0.9157
2969.91	0.9213
2978.6	0.9068
2987.29	0.9037
2995.98	0.931
3004.68	0.936
3013.37	0.9283
3022.06	0.9045
3030.75	0.9285
3039.44	0.9338
3048.13	0.9265
3056.82	0.9125
3065.51	0.8952
3074.2	0.8898
3082.89	0.9361
3091.58	0.95
3100.28	0.961
3108.97	0.968
3117.66	0.9725
3126.35	0.976
3135.04	0.975
3143.73	0.9765
3152.42	0.982
3161.11	0.983
3169.8	0.9827
3178.49	0.9783
3187.18	0.9806
3195.88	0.985
3204.57	0.985
3213.26	0.986
3221.95	0.9867
3230.64	0.985
3239.33	0.9863
3248.02	0.9876
3256.71	0.9903
3265.4	0.991
3274.09	0.99
3282.79	0.9943
3291.48	0.9986
3300.17	1.001
3308.86	1.0006
3317.55	1.0014
3326.24	1.001
3334.93	0.9994
3343.62	0.994
3352.31	0.9964
3361	0.993
3369.69	0.993
3378.39	0.99
3387.08	0.991
3395.77	0.983
3404.46	0.99
3413.15	0.99
3421.84	0.9903
3430.53	0.992
3439.22	0.9937
3447.91	0.9987
3456.6	1
3465.3	0.998
3473.99	1.001
3482.68	1
3491.37	1.0007
3500.06	1.0016
3508.75	0.998
3517.44	1.004
3526.13	1.001
3534.82	0.9993
3543.51	0.9987
3552.2	1.002
3560.9	1
3569.59	0.9981
3578.28	0.998
3586.97	0.997
3595.66	0.9938
3604.35	0.9914
3613.04	0.995
3621.73	0.994
3630.42	0.9922
3639.11	0.9944
3647.8	0.99
3656.5	1.001
3665.19	0.99
3673.88	0.997
3682.57	1
3691.26	0.9958
3699.95	0.991
3708.64	0.995
3717.33	0.994
3726.02	0.9944
3734.71	0.9962
3743.41	0.991
3752.1	0.99
3760.79	0.9923
3769.48	1
3778.17	0.9976
3786.86	0.9959
3795.55	0.9961
