Infrared Spectrum: 1,2-Dimethylbenzene
Formula: 1,2-( C H3)2 C6 H4
CAS: 95-47-6
State: gas
Melting point: -25.18 C
Boiling point: 144.4 C
Class: IUPAC A
Instrument: IFS66V (Bruker)
Instrument parameters: KBr Beam Splitter; MCT Detector; Multipass cell
Sampling: 1 L/min Flow
Resolution: 1.9290
Temperature: 23 C
Pressure: 101.3 Pa
Origin: NIST, Analytical Chemistry Division, 301-975-3108
cm-1	(micromol/mol)-1m-1 (base 10)
575.652	2.44569e-06
584.33	4.07258e-06
593.008	8.61267e-07
601.687	1.3642e-06
610.365	-1.3779e-06
619.043	8.98831e-07
627.721	-7.19628e-07
636.399	8.90086e-07
645.077	-1.54013e-06
653.756	1.35159e-06
662.434	-1.40385e-06
671.112	2.07151e-06
679.79	-1.59083e-06
688.468	2.31875e-06
697.147	-1.59362e-06
705.825	4.436e-06
714.503	1.44196e-06
723.181	7.07035e-05
731.859	0.000215455
740.537	0.00126721
749.216	0.000255357
757.894	7.27968e-05
766.572	9.92608e-06
775.25	-1.34885e-06
783.928	3.2757e-06
792.607	-1.0614e-06
801.285	2.14699e-06
809.963	-6.44669e-07
818.641	2.83989e-06
827.319	1.05014e-07
835.997	2.176e-06
844.676	-4.48159e-08
853.354	1.90447e-06
862.032	1.59467e-06
870.71	3.78609e-06
879.388	1.4257e-06
888.066	1.89994e-06
896.745	1.1162e-06
905.423	2.50885e-06
914.101	1.37586e-06
922.779	2.93078e-06
931.457	6.7141e-06
940.136	3.83931e-06
948.814	2.33586e-06
957.492	2.453e-06
966.17	2.77928e-06
974.848	1.33842e-05
983.526	2.28731e-05
992.205	2.1036e-05
1000.88	9.18871e-06
1009.56	1.24122e-05
1018.24	1.5525e-05
1026.92	1.51426e-05
1035.6	1.11276e-05
1044.27	2.558e-05
1052.95	3.75655e-05
1061.63	3.44479e-05
1070.31	4.42913e-06
1078.99	1.6382e-06
1087.66	8.88436e-07
1096.34	1.39645e-06
1105.02	3.31733e-06
1113.7	1.49583e-05
1122.38	1.75528e-05
1131.06	1.69353e-05
1139.73	1.05263e-05
1148.41	8.54168e-06
1157.09	4.71683e-06
1165.77	4.35065e-06
1174.45	3.2066e-06
1183.12	3.13797e-06
1191.8	2.10798e-06
1200.48	2.2646e-06
1209.16	2.54719e-06
1217.84	7.77254e-06
1226.52	9.32013e-06
1235.19	5.71727e-06
1243.87	7.61477e-07
1252.55	9.75067e-07
1261.23	1.12319e-06
1269.91	1.66245e-06
1278.58	1.54915e-06
1287.26	2.17543e-06
1295.94	1.99937e-06
1304.62	1.71748e-06
1313.3	1.58471e-06
1321.98	2.48655e-06
1330.65	2.74233e-06
1339.33	3.54216e-06
1348.01	3.93762e-06
1356.69	4.79957e-06
1365.37	6.6169e-06
1374.04	1.41268e-05
1382.72	2.50682e-05
1391.4	2.01032e-05
1400.08	1.42714e-05
1408.76	7.34205e-06
1417.44	7.79089e-06
1426.11	1.22153e-05
1434.79	2.35565e-05
1443.47	4.81692e-05
1452.15	7.60687e-05
1460.83	0.00012831
1469.5	0.000132681
1478.18	0.000110388
1486.86	7.98219e-05
1495.54	0.000127099
1504.22	9.59198e-05
1512.9	3.38718e-05
1521.57	8.54078e-06
1530.25	7.71958e-06
1538.93	6.85316e-06
1547.61	7.10903e-06
1556.29	6.50433e-06
1564.96	5.79414e-06
1573.64	6.42492e-06
1582.32	1.2614e-05
1591	2.41484e-05
1599.68	2.6362e-05
1608.36	2.94478e-05
1617.03	2.18815e-05
1625.71	9.51658e-06
1634.39	2.46119e-06
1643.07	1.24586e-06
1651.75	8.92754e-07
1660.42	3.68001e-06
1669.1	5.52004e-06
1677.78	6.10464e-06
1686.46	2.51563e-06
1695.14	1.27256e-06
1703.82	2.53002e-06
1712.49	3.34513e-06
1721.17	3.21932e-06
1729.85	1.14717e-06
1738.53	1.16824e-06
1747.21	1.2739e-06
1755.88	1.50989e-06
1764.56	1.98812e-06
1773.24	3.99303e-06
1781.92	9.5169e-06
1790.6	9.37104e-06
1799.28	3.45306e-06
1807.95	7.27489e-07
1816.63	2.93527e-06
1825.31	5.48883e-06
1833.99	6.16563e-06
1842.67	9.45861e-07
1851.34	3.01261e-06
1860.02	5.36561e-06
1868.7	5.3881e-06
1877.38	4.14574e-06
1886.06	6.57781e-06
1894.74	1.29263e-05
1903.41	1.18418e-05
1912.09	6.03872e-06
1920.77	7.0914e-07
1929.45	2.42491e-06
1938.13	8.8901e-06
1946.8	7.23103e-06
1955.48	2.84075e-06
1964.16	1.15262e-06
1972.84	7.84612e-07
1981.52	6.49082e-07
1990.2	4.03196e-07
1998.87	2.09123e-07
2007.55	1.08858e-07
2016.23	-1.92949e-08
2024.91	-9.35697e-08
2033.59	-1.45876e-07
2042.26	-1.60736e-08
2050.94	-1.28889e-07
2059.62	-2.55168e-07
2068.3	-4.1239e-07
2076.98	-3.06777e-07
2085.66	-7.7336e-08
2094.33	-2.51448e-07
2103.01	1.64583e-07
2111.69	5.44851e-07
2120.37	4.93666e-07
2129.05	1.884e-07
2137.72	-4.25368e-07
2146.4	-2.33312e-07
2155.08	-1.84586e-07
2163.76	-1.39435e-07
2172.44	-7.92076e-08
2181.12	-2.3765e-07
2189.79	-8.32329e-08
2198.47	4.91349e-07
2207.15	9.52034e-07
2215.83	7.59469e-07
2224.51	3.13755e-07
2233.18	2.27906e-07
2241.86	-5.88032e-08
2250.54	-2.00901e-07
2259.22	1.13572e-07
2267.9	7.71121e-07
2276.58	1.02685e-06
2285.25	8.0387e-07
2293.93	2.83015e-07
2302.61	6.05112e-08
2311.29	6.13131e-07
2319.97	1.4372e-06
2328.64	-1.5789e-07
2337.32	2.59233e-07
2346	3.51064e-07
2354.68	-1.6279e-07
2363.36	-1.82197e-06
2372.04	-6.94818e-07
2380.71	-2.02316e-07
2389.39	1.87294e-07
2398.07	1.59372e-07
2406.75	9.38967e-07
2415.43	1.11268e-06
2424.1	1.72408e-06
2432.78	1.99779e-06
2441.46	2.42982e-06
2450.14	1.75605e-06
2458.82	1.13336e-06
2467.5	6.59695e-07
2476.17	6.15143e-07
2484.85	5.29291e-07
2493.53	6.14679e-07
2502.21	2.982e-07
2510.89	4.27523e-07
2519.56	2.37255e-07
2528.24	5.68224e-09
2536.92	-2.40073e-07
2545.6	1.69527e-07
2554.28	3.23297e-07
2562.96	1.48979e-06
2571.63	2.81255e-06
2580.31	2.75066e-06
2588.99	1.64019e-06
2597.67	8.28271e-07
2606.35	8.97562e-07
2615.02	1.2287e-06
2623.7	6.79783e-07
2632.38	1.90912e-07
2641.06	-1.58348e-07
2649.74	5.72408e-09
2658.42	9.0654e-08
2667.09	3.34472e-07
2675.77	4.67952e-07
2684.45	6.60728e-07
2693.13	5.25511e-07
2701.81	7.00095e-07
2710.48	1.14673e-06
2719.16	2.61627e-06
2727.84	4.8777e-06
2736.52	1.12007e-05
2745.2	1.09736e-05
2753.88	7.37321e-06
2762.55	3.62421e-06
2771.23	4.91652e-06
2779.91	4.98881e-06
2788.59	3.38627e-06
2797.27	3.21942e-06
2805.94	4.46258e-06
2814.62	6.45036e-06
2823.3	8.45987e-06
2831.98	1.0716e-05
2840.66	1.36935e-05
2849.34	2.03661e-05
2858.01	3.98634e-05
2866.69	7.30808e-05
2875.37	0.000108435
2884.05	0.000119618
2892.73	0.000110564
2901.4	9.10872e-05
2910.08	8.77333e-05
2918.76	0.000110214
2927.44	0.000165679
2936.12	0.000208036
2944.8	0.000199007
2953.47	0.000205908
2962.15	0.000145821
2970.83	0.000164872
2979.51	0.000160765
2988.19	0.000142817
2996.86	6.08346e-05
3005.54	4.94522e-05
3014.22	9.25476e-05
3022.9	0.000176429
3031.58	0.000207807
3040.26	0.000133914
3048.93	9.57041e-05
3057.61	0.000117129
3066.29	0.000144655
3074.97	0.000140738
3083.65	0.000117911
3092.32	7.2066e-05
3101	3.63968e-05
3109.68	2.90963e-05
3118.36	2.50017e-05
3127.04	1.62869e-05
3135.72	6.06369e-06
3144.39	3.8583e-06
3153.07	3.50663e-06
3161.75	3.18301e-06
3170.43	3.50773e-06
3179.11	2.4077e-06
3187.78	1.77077e-06
3196.46	1.01072e-06
3205.14	8.84778e-07
3213.82	3.77529e-07
3222.5	5.05581e-07
3231.18	1.62591e-07
3239.85	2.93532e-07
3248.53	-3.14451e-08
3257.21	2.7246e-07
3265.89	-3.41653e-07
3274.57	1.24609e-07
3283.24	-1.48113e-08
3291.92	4.36903e-07
3300.6	-6.37706e-09
3309.28	7.2565e-08
3317.96	9.86135e-08
3326.64	7.59627e-08
3335.31	-2.50479e-07
3343.99	8.72854e-08
3352.67	-2.7469e-07
3361.35	2.14614e-07
3370.03	5.38558e-08
3378.7	5.12832e-07
3387.38	1.88176e-07
3396.06	4.47389e-07
3404.74	-1.88022e-07
3413.42	1.48986e-07
3422.1	-2.82275e-07
3430.77	2.2998e-07
3439.45	-4.96451e-08
3448.13	3.28522e-07
3456.81	4.09052e-07
3465.49	4.78751e-07
3474.16	-4.03978e-09
3482.84	4.54881e-07
3491.52	-3.15807e-07
3500.2	-6.60497e-08
3508.88	-3.43672e-07
3517.56	-1.87529e-09
3526.23	-3.40529e-07
3534.91	-9.0654e-08
3543.59	-2.83654e-07
3552.27	-8.83603e-08
3560.95	-3.19184e-07
3569.62	2.84099e-07
3578.3	-5.64678e-08
3586.98	-1.63401e-07
3595.66	-2.6485e-08
3604.34	5.77952e-07
3613.02	1.7848e-07
3621.69	-4.65511e-08
3630.37	-5.46918e-07
3639.05	-8.42151e-09
3647.73	-3.53012e-07
3656.41	-2.23705e-07
3665.08	-2.82673e-07
3673.76	-1.35257e-07
3682.44	-3.7868e-07
3691.12	-2.65756e-07
3699.8	-5.15545e-07
3708.48	-1.35192e-07
3717.15	-5.35899e-07
3725.83	-2.09124e-07
3734.51	-7.59935e-07
3743.19	2.54768e-07
3751.87	-6.41053e-07
3760.54	4.54643e-07
3769.22	-1.67071e-07
3777.9	-1.9655e-08
3786.58	-5.31137e-08
3795.26	4.0399e-07
3803.94	1.14547e-07
3812.61	3.92526e-07
3821.29	-1.52333e-07
3829.97	1.09971e-06
3838.65	5.3906e-07
3847.33	1.41179e-06
3856	1.33021e-06
3864.68	1.59876e-06
3873.36	1.42304e-06
3882.04	2.01621e-06
3890.72	1.95747e-06
3899.4	2.63294e-06
3908.07	2.45944e-06
3916.75	1.6505e-06
3925.43	7.23949e-07
3934.11	9.63375e-07
3942.79	4.18924e-07
3951.46	1.08846e-06
3960.14	1.09978e-06
3968.82	1.48662e-06
