Infrared Spectrum: 1,2-Dimethylbenzene
Formula: 1,2-( C H3)2 C6 H4
CAS: 95-47-6
State: gas
Melting point: -25.18 C
Boiling point: 144.4 C
Class: IUPAC A
Instrument: IFS66V (Bruker)
Instrument parameters: KBr Beam Splitter; MCT Detector; Multipass cell
Sampling: 1 L/min Flow
Resolution: 0.4820
Temperature: 23 C
Pressure: 101.3 Pa
Origin: NIST, Analytical Chemistry Division, 301-975-3108
cm-1	(micromol/mol)-1m-1 (base 10)
575.17	1.91487e-06
583.848	6.08586e-06
592.526	8.67755e-07
601.205	-3.75275e-07
609.883	-3.64844e-07
618.561	-1.19541e-06
627.239	-1.99904e-07
635.917	4.79968e-07
644.595	-2.2496e-07
653.274	1.29962e-07
661.952	-2.5346e-07
670.63	2.59697e-07
679.308	1.27536e-07
687.986	6.32994e-07
696.665	3.87719e-07
705.343	1.57247e-06
714.021	4.67492e-06
722.699	5.66034e-05
731.377	0.000224486
740.055	0.000749311
748.734	0.00024017
757.412	8.98926e-05
766.09	6.80683e-06
774.768	1.71616e-06
783.446	1.11703e-06
792.124	9.73792e-07
800.803	3.02407e-07
809.481	4.35252e-07
818.159	1.34557e-06
826.837	1.52448e-06
835.515	1.49693e-06
844.194	7.61028e-07
852.872	9.97163e-07
861.55	2.3265e-06
870.228	3.23625e-06
878.906	1.86272e-06
887.584	1.29504e-06
896.263	1.65594e-06
904.941	1.80786e-06
913.619	1.99208e-06
922.297	2.0538e-06
930.975	7.88369e-06
939.654	3.40907e-06
948.332	2.47265e-06
957.01	1.92636e-06
965.688	2.93498e-06
974.366	1.19578e-05
983.044	2.19557e-05
991.723	2.11499e-05
1000.4	9.40892e-06
1009.08	1.15849e-05
1017.76	1.56214e-05
1026.44	1.49847e-05
1035.11	1.18808e-05
1043.79	2.27582e-05
1052.47	3.24737e-05
1061.15	3.56656e-05
1069.83	5.59121e-06
1078.5	1.37056e-06
1087.18	1.17864e-06
1095.86	1.41021e-06
1104.54	3.18354e-06
1113.22	1.37545e-05
1121.9	1.73266e-05
1130.57	1.70565e-05
1139.25	1.09629e-05
1147.93	8.27881e-06
1156.61	5.1425e-06
1165.29	4.23683e-06
1173.96	3.71059e-06
1182.64	3.02123e-06
1191.32	2.19958e-06
1200	1.80981e-06
1208.68	2.7254e-06
1217.36	7.47279e-06
1226.03	9.39717e-06
1234.71	5.9653e-06
1243.39	9.37448e-07
1252.07	8.97738e-07
1260.75	1.3035e-06
1269.42	1.65876e-06
1278.1	1.65455e-06
1286.78	1.9936e-06
1295.46	2.13871e-06
1304.14	1.67113e-06
1312.82	1.74645e-06
1321.49	2.20875e-06
1330.17	2.7481e-06
1338.85	3.34412e-06
1347.53	3.8111e-06
1356.21	4.20455e-06
1364.88	6.37476e-06
1373.56	1.36011e-05
1382.24	2.40855e-05
1390.92	2.07852e-05
1399.6	1.56554e-05
1408.28	6.96514e-06
1416.95	8.10058e-06
1425.63	1.15151e-05
1434.31	2.33632e-05
1442.99	4.56366e-05
1451.67	7.39247e-05
1460.34	0.00012484
1469.02	0.000134007
1477.7	0.000115552
1486.38	7.93615e-05
1495.06	0.00012477
1503.74	9.2664e-05
1512.41	3.85887e-05
1521.09	7.93166e-06
1529.77	7.84044e-06
1538.45	7.56245e-06
1547.13	7.43058e-06
1555.8	6.56045e-06
1564.48	6.07886e-06
1573.16	6.41013e-06
1581.84	1.22836e-05
1590.52	2.373e-05
1599.2	2.46844e-05
1607.87	2.99182e-05
1616.55	2.14772e-05
1625.23	1.03897e-05
1633.91	2.59242e-06
1642.59	1.28851e-06
1651.26	1.20039e-06
1659.94	3.40234e-06
1668.62	5.8945e-06
1677.3	6.26967e-06
1685.98	2.40099e-06
1694.66	1.68085e-06
1703.33	2.33634e-06
1712.01	3.2034e-06
1720.69	3.24712e-06
1729.37	1.18026e-06
1738.05	1.16312e-06
1746.72	1.37934e-06
1755.4	1.55948e-06
1764.08	1.89429e-06
1772.76	2.36138e-06
1781.44	9.30643e-06
1790.12	9.76528e-06
1798.79	3.90102e-06
1807.47	8.42866e-07
1816.15	2.652e-06
1824.83	5.67121e-06
1833.51	6.23486e-06
1842.18	9.84483e-07
1850.86	2.79698e-06
1859.54	4.81251e-06
1868.22	5.61544e-06
1876.9	4.04088e-06
1885.58	6.29865e-06
1894.25	1.26894e-05
1902.93	1.0978e-05
1911.61	6.77198e-06
1920.29	6.87773e-07
1928.97	2.12408e-06
1937.64	8.84693e-06
1946.32	6.53804e-06
1955	3.26368e-06
1963.68	1.18829e-06
1972.36	7.33571e-07
1981.04	6.69488e-07
1989.71	5.27586e-07
1998.39	2.13708e-07
2007.07	4.48965e-07
2015.75	-3.83897e-08
2024.43	-1.50147e-07
2033.1	-1.62793e-07
2041.78	-1.06429e-07
2050.46	-3.66836e-08
2059.14	-1.17408e-07
2067.82	-3.15681e-07
2076.5	-3.66725e-07
2085.17	-1.95823e-07
2093.85	-3.72842e-07
2102.53	1.98968e-07
2111.21	1.94739e-07
2119.89	7.57574e-07
2128.56	-1.63519e-09
2137.24	-3.92733e-07
2145.92	-3.39198e-07
2154.6	-5.77373e-08
2163.28	-1.21037e-07
2171.96	-2.24694e-07
2180.63	-1.51776e-07
2189.31	-7.91658e-08
2197.99	3.16461e-07
2206.67	9.23208e-07
2215.35	7.19704e-07
2224.02	3.71241e-07
2232.7	7.00495e-08
2241.38	-7.21376e-09
2250.06	-2.99455e-07
2258.74	7.88602e-08
2267.42	7.11885e-07
2276.09	9.6527e-07
2284.77	7.87691e-07
2293.45	3.25381e-07
2302.13	6.08331e-08
2310.81	9.63224e-07
2319.48	1.82411e-06
2328.16	1.09637e-06
2336.84	1.454e-06
2345.52	7.2364e-07
2354.2	-1.5676e-07
2362.88	-5.51088e-06
2371.55	-1.79905e-06
2380.23	2.82166e-08
2388.91	-7.59082e-08
2397.59	3.24901e-07
2406.27	9.36459e-07
2414.94	1.16669e-06
2423.62	1.72082e-06
2432.3	2.13921e-06
2440.98	2.24931e-06
2449.66	1.66524e-06
2458.34	1.35417e-06
2467.01	7.69837e-07
2475.69	6.80272e-07
2484.37	5.57469e-07
2493.05	6.70043e-07
2501.73	3.6336e-07
2510.4	2.19381e-07
2519.08	3.23691e-07
2527.76	-2.33201e-08
2536.44	-1.96201e-07
2545.12	-6.11423e-08
2553.8	2.4519e-07
2562.47	1.28781e-06
2571.15	2.76874e-06
2579.83	2.80328e-06
2588.51	1.59905e-06
2597.19	7.68523e-07
2605.86	7.58661e-07
2614.54	1.15043e-06
2623.22	6.963e-07
2631.9	1.60516e-07
2640.58	-1.5286e-08
2649.26	-9.41281e-09
2657.93	1.85488e-07
2666.61	2.77288e-07
2675.29	5.18659e-07
2683.97	6.38983e-07
2692.65	6.64715e-07
2701.32	4.19027e-07
2710	1.17355e-06
2718.68	2.34537e-06
2727.36	4.71727e-06
2736.04	1.09393e-05
2744.71	1.11853e-05
2753.39	7.8017e-06
2762.07	3.51242e-06
2770.75	4.75707e-06
2779.43	4.81041e-06
2788.11	3.3096e-06
2796.78	3.22262e-06
2805.46	4.29701e-06
2814.14	6.40349e-06
2822.82	8.20269e-06
2831.5	1.08193e-05
2840.17	1.33673e-05
2848.85	1.97139e-05
2857.53	3.81062e-05
2866.21	7.11894e-05
2874.89	0.000106979
2883.57	0.000120751
2892.24	0.000111564
2900.92	9.13214e-05
2909.6	8.66573e-05
2918.28	0.000107664
2926.96	0.000163285
2935.63	0.000206001
2944.31	0.000202646
2952.99	0.000214619
2961.67	0.000145646
2970.35	0.000161812
2979.03	0.000166246
2987.7	0.000148143
2996.38	6.31118e-05
3005.06	4.86958e-05
3013.74	8.77175e-05
3022.42	0.000175024
3031.09	0.000209972
3039.77	0.000136694
3048.45	9.63807e-05
3057.13	0.000115256
3065.81	0.000143469
3074.49	0.000143173
3083.16	0.00012042
3091.84	7.59719e-05
3100.52	3.81236e-05
3109.2	2.90513e-05
3117.88	2.48774e-05
3126.55	1.73065e-05
3135.23	6.37499e-06
3143.91	4.26053e-06
3152.59	3.16701e-06
3161.27	3.30106e-06
3169.95	3.60551e-06
3178.62	2.48149e-06
3187.3	1.64803e-06
3195.98	7.87007e-07
3204.66	7.36298e-07
3213.34	2.99196e-07
3222.01	3.97881e-07
3230.69	1.27689e-07
3239.37	-1.03374e-07
3248.05	1.06755e-07
3256.73	-2.91224e-08
3265.41	-1.60591e-08
3274.08	-1.58233e-07
3282.76	1.05794e-07
3291.44	8.63977e-08
3300.12	-8.97263e-09
3308.8	-5.56402e-09
3317.47	2.71915e-07
3326.15	-2.86933e-07
3334.83	-1.76843e-07
3343.51	-9.06904e-08
3352.19	-2.93545e-07
3360.87	1.74991e-07
3369.54	8.73163e-08
3378.22	7.2187e-07
3386.9	-1.34866e-07
3395.58	2.40379e-07
3404.26	2.00074e-07
3412.93	-5.00689e-08
3421.61	-3.8178e-07
3430.29	1.22292e-07
3438.97	4.05797e-09
3447.65	-1.27203e-07
3456.33	5.95955e-07
3465	5.46165e-07
3473.68	4.49106e-07
3482.36	4.40338e-07
3491.04	-1.66842e-07
3499.72	-2.31604e-07
3508.39	1.76521e-07
3517.07	-1.73789e-07
3525.75	-2.85884e-07
3534.43	-5.49177e-07
3543.11	-1.0674e-07
3551.79	-2.7212e-07
3560.46	-8.35184e-08
3569.14	1.87003e-07
3577.82	-1.64352e-07
3586.5	-4.32533e-07
3595.18	8.74891e-10
3603.85	3.48054e-07
3612.53	-1.04408e-07
3621.21	4.67312e-08
3629.89	-5.34849e-07
3638.57	-7.40729e-08
3647.25	-4.46813e-07
3655.92	4.23331e-08
3664.6	-2.63808e-07
3673.28	1.09594e-07
3681.96	-1.49923e-07
3690.64	-6.47792e-07
3699.31	-3.62107e-08
3707.99	-3.48423e-07
3716.67	-3.09082e-07
3725.35	-5.45021e-07
3734.03	-5.04023e-07
3742.71	5.02198e-08
3751.38	-3.41735e-08
3760.06	-8.50208e-08
3768.74	4.01757e-07
3777.42	2.7337e-07
3786.1	-1.39973e-07
3794.77	1.6295e-07
3803.45	1.424e-07
3812.13	-7.07898e-08
3820.81	-4.00285e-08
3829.49	6.919e-07
3838.17	7.38797e-07
3846.84	1.30066e-06
3855.52	1.25512e-06
3864.2	1.49566e-06
3872.88	1.66328e-06
3881.56	1.93599e-06
3890.23	2.19575e-06
3898.91	2.62057e-06
3907.59	2.9714e-06
3916.27	1.54536e-06
3924.95	9.1192e-07
3933.63	7.82151e-07
3942.3	6.49249e-07
3950.98	9.22095e-07
3959.66	1.17733e-06
3968.34	8.30612e-07
