Infrared Spectrum: 1,2-Dimethylbenzene
Formula: 1,2-( C H3)2 C6 H4
CAS: 95-47-6
State: gas
Melting point: -25.18 C
Boiling point: 144.4 C
Class: IUPAC A
Instrument: IFS66V (Bruker)
Instrument parameters: KBr Beam Splitter; MCT Detector; Multipass cell
Sampling: 1 L/min Flow
Resolution: 1.9290
Temperature: 23 C
Pressure: 101.3 Pa
Origin: NIST, Analytical Chemistry Division, 301-975-3108
cm-1	(micromol/mol)-1m-1 (base 10)
575.652	2.90503e-06
584.33	2.91058e-06
593.008	1.01021e-06
601.687	1.50581e-07
610.365	-3.96175e-07
619.043	-4.97033e-08
627.721	-4.19493e-08
636.399	4.08489e-08
645.077	-3.09971e-07
653.756	8.54428e-08
662.434	-8.21142e-08
671.112	4.00862e-07
679.79	5.31846e-08
688.468	5.31932e-07
697.147	6.91089e-07
705.825	1.5568e-06
714.503	5.4141e-06
723.181	6.61357e-05
731.859	0.000224731
740.537	0.00111683
749.216	0.000241774
757.894	7.93019e-05
766.572	6.27903e-06
775.25	1.30186e-06
783.928	1.09808e-06
792.607	6.49513e-07
801.285	6.43942e-07
809.963	6.84321e-07
818.641	1.61125e-06
827.319	1.26317e-06
835.997	1.15399e-06
844.676	6.41262e-07
853.354	1.11913e-06
862.032	2.30209e-06
870.71	3.06312e-06
879.388	2.12484e-06
888.066	1.30104e-06
896.745	1.67002e-06
905.423	1.90128e-06
914.101	1.88112e-06
922.779	2.40188e-06
931.457	6.4229e-06
940.136	3.45557e-06
948.814	2.58984e-06
957.492	2.08421e-06
966.17	3.07493e-06
974.848	1.2999e-05
983.526	2.30291e-05
992.205	2.05985e-05
1000.88	9.53245e-06
1009.56	1.21717e-05
1018.24	1.59356e-05
1026.92	1.47136e-05
1035.6	1.15407e-05
1044.27	2.5342e-05
1052.95	3.9924e-05
1061.63	3.38724e-05
1070.31	4.79979e-06
1078.99	1.44389e-06
1087.66	1.18389e-06
1096.34	1.27235e-06
1105.02	3.61179e-06
1113.7	1.472e-05
1122.38	1.77115e-05
1131.06	1.67318e-05
1139.73	1.05666e-05
1148.41	8.31489e-06
1157.09	5.01417e-06
1165.77	4.19548e-06
1174.45	3.4216e-06
1183.12	2.9667e-06
1191.8	2.26702e-06
1200.48	2.02153e-06
1209.16	2.71645e-06
1217.84	7.54802e-06
1226.52	9.09128e-06
1235.19	5.61465e-06
1243.87	9.09754e-07
1252.55	8.81852e-07
1261.23	1.24488e-06
1269.91	1.47473e-06
1278.58	1.68481e-06
1287.26	2.04501e-06
1295.94	2.07482e-06
1304.62	1.61721e-06
1313.3	1.69929e-06
1321.98	2.28984e-06
1330.65	2.8686e-06
1339.33	3.27706e-06
1348.01	3.95131e-06
1356.69	4.89039e-06
1365.37	6.69592e-06
1374.04	1.39998e-05
1382.72	2.47951e-05
1391.4	2.06649e-05
1400.08	1.44659e-05
1408.76	7.10864e-06
1417.44	8.00283e-06
1426.11	1.19832e-05
1434.79	2.36523e-05
1443.47	4.76534e-05
1452.15	7.58224e-05
1460.83	0.000130656
1469.5	0.00013235
1478.18	0.000110923
1486.86	8.02242e-05
1495.54	0.000121578
1504.22	9.47481e-05
1512.9	3.46464e-05
1521.57	8.60542e-06
1530.25	7.7683e-06
1538.93	7.03579e-06
1547.61	7.14893e-06
1556.29	6.50314e-06
1564.96	5.80863e-06
1573.64	6.52489e-06
1582.32	1.26393e-05
1591	2.41529e-05
1599.68	2.62597e-05
1608.36	2.92946e-05
1617.03	2.20363e-05
1625.71	9.58444e-06
1634.39	2.30198e-06
1643.07	1.20852e-06
1651.75	7.24632e-07
1660.42	3.63134e-06
1669.1	5.85244e-06
1677.78	6.07463e-06
1686.46	2.35369e-06
1695.14	1.26779e-06
1703.82	2.56854e-06
1712.49	3.35205e-06
1721.17	3.20628e-06
1729.85	1.18156e-06
1738.53	1.09726e-06
1747.21	1.28459e-06
1755.88	1.54034e-06
1764.56	1.98316e-06
1773.24	4.12175e-06
1781.92	9.3821e-06
1790.6	9.33957e-06
1799.28	3.52123e-06
1807.95	8.35615e-07
1816.63	2.93877e-06
1825.31	5.61916e-06
1833.99	6.008e-06
1842.67	9.07162e-07
1851.34	2.98631e-06
1860.02	5.23606e-06
1868.7	5.30553e-06
1877.38	4.13601e-06
1886.06	6.53416e-06
1894.74	1.29146e-05
1903.41	1.16677e-05
1912.09	6.06221e-06
1920.77	6.82571e-07
1929.45	2.47914e-06
1938.13	8.752e-06
1946.8	7.11377e-06
1955.48	2.8668e-06
1964.16	1.11994e-06
1972.84	8.7462e-07
1981.52	6.75998e-07
1990.2	4.17077e-07
1998.87	2.17946e-07
2007.55	3.31695e-08
2016.23	6.62989e-09
2024.91	-9.06012e-08
2033.59	-1.05542e-07
2042.26	-3.68964e-08
2050.94	-8.14049e-08
2059.62	-2.49695e-07
2068.3	-3.80157e-07
2076.98	-3.12996e-07
2085.66	-9.72439e-08
2094.33	-2.84983e-07
2103.01	1.38326e-07
2111.69	4.17663e-07
2120.37	5.5903e-07
2129.05	1.9607e-07
2137.72	-3.81763e-07
2146.4	-2.56358e-07
2155.08	-1.61715e-07
2163.76	-1.35393e-07
2172.44	-1.37121e-07
2181.12	-2.23234e-07
2189.79	-5.291e-08
2198.47	4.84793e-07
2207.15	9.13908e-07
2215.83	7.10613e-07
2224.51	3.75261e-07
2233.18	1.9764e-07
2241.86	-5.76046e-09
2250.54	-2.06118e-07
2259.22	1.21868e-07
2267.9	7.5606e-07
2276.58	1.02654e-06
2285.25	7.60064e-07
2293.93	2.77073e-07
2302.61	1.14769e-07
2311.29	7.64671e-07
2319.97	9.07058e-07
2328.64	6.35396e-08
2337.32	9.48083e-08
2346	4.54532e-07
2354.68	-2.60094e-07
2363.36	-1.7523e-06
2372.04	-7.87646e-07
2380.71	-1.09212e-07
2389.39	1.19886e-07
2398.07	2.52463e-07
2406.75	8.94428e-07
2415.43	1.16949e-06
2424.1	1.65285e-06
2432.78	2.10895e-06
2441.46	2.38257e-06
2450.14	1.89545e-06
2458.82	1.12388e-06
2467.5	7.19259e-07
2476.17	5.59426e-07
2484.85	5.87092e-07
2493.53	5.48726e-07
2502.21	3.93815e-07
2510.89	3.4685e-07
2519.56	2.64048e-07
2528.24	-3.7342e-08
2536.92	-1.20262e-07
2545.6	3.01501e-08
2554.28	3.89954e-07
2562.96	1.44373e-06
2571.63	2.81625e-06
2580.31	2.70461e-06
2588.99	1.71823e-06
2597.67	7.75614e-07
2606.35	9.66169e-07
2615.02	1.09269e-06
2623.7	7.19142e-07
2632.38	1.96507e-07
2641.06	-7.18738e-08
2649.74	-2.71143e-08
2658.42	1.28578e-07
2667.09	2.76413e-07
2675.77	5.24778e-07
2684.45	6.15561e-07
2693.13	5.80406e-07
2701.81	6.32082e-07
2710.48	1.19447e-06
2719.16	2.57789e-06
2727.84	4.9564e-06
2736.52	1.11789e-05
2745.2	1.11707e-05
2753.88	7.31719e-06
2762.55	3.62774e-06
2771.23	4.82065e-06
2779.91	4.98862e-06
2788.59	3.35551e-06
2797.27	3.29816e-06
2805.94	4.38342e-06
2814.62	6.35469e-06
2823.3	8.47731e-06
2831.98	1.07529e-05
2840.66	1.36736e-05
2849.34	2.04578e-05
2858.01	3.99338e-05
2866.69	7.34306e-05
2875.37	0.000108377
2884.05	0.000119846
2892.73	0.000110577
2901.4	9.13516e-05
2910.08	8.80263e-05
2918.76	0.000110162
2927.44	0.000165876
2936.12	0.000207638
2944.8	0.000200819
2953.47	0.000206513
2962.15	0.000145709
2970.83	0.00016516
2979.51	0.000161346
2988.19	0.000142647
2996.86	6.09106e-05
3005.54	4.95546e-05
3014.22	9.26832e-05
3022.9	0.000175558
3031.58	0.000207457
3040.26	0.000134234
3048.93	9.57184e-05
3057.61	0.000117226
3066.29	0.000144216
3074.97	0.000140862
3083.65	0.000117592
3092.32	7.24315e-05
3101	3.64373e-05
3109.68	2.91749e-05
3118.36	2.49709e-05
3127.04	1.64535e-05
3135.72	6.00931e-06
3144.39	4.00843e-06
3153.07	3.3821e-06
3161.75	3.35724e-06
3170.43	3.38077e-06
3179.11	2.62259e-06
3187.78	1.5849e-06
3196.46	1.10664e-06
3205.14	7.71235e-07
3213.82	4.86558e-07
3222.5	4.4274e-07
3231.18	2.96181e-07
3239.85	1.36692e-07
3248.53	5.45306e-08
3257.21	7.26814e-08
3265.89	-1.22281e-07
3274.57	-1.11244e-08
3283.24	4.26114e-08
3291.92	2.37627e-07
3300.6	1.13323e-07
3309.28	2.16485e-08
3317.96	1.6731e-07
3326.64	-7.43148e-08
3335.31	-1.20575e-07
3343.99	-6.94347e-08
3352.67	-9.64981e-08
3361.35	5.84649e-08
3370.03	1.2062e-07
3378.7	3.70475e-07
3387.38	3.03387e-07
3396.06	2.25129e-07
3404.74	-8.75891e-08
3413.42	-1.04185e-07
3422.1	-6.18935e-08
3430.77	7.64284e-08
3439.45	3.07249e-08
3448.13	1.79971e-07
3456.81	3.8572e-07
3465.49	4.03487e-07
3474.16	2.17946e-07
3482.84	1.89733e-07
3491.52	-1.08315e-07
3500.2	-1.67872e-07
3508.88	-1.6439e-07
3517.56	-1.80579e-07
3526.23	-2.10534e-07
3534.91	-2.28534e-07
3543.59	-1.27141e-07
3552.27	-1.2295e-07
3560.95	-1.56558e-07
3569.62	3.45882e-08
3578.3	7.86965e-08
3586.98	-1.47251e-07
3595.66	1.40494e-07
3604.34	4.00684e-07
3613.02	2.9801e-07
3621.69	-8.16686e-08
3630.37	-4.43151e-07
3639.05	-1.29498e-07
3647.73	-2.71655e-07
3656.41	-2.84867e-07
3665.08	-1.13143e-07
3673.76	-3.31706e-07
3682.44	-1.83231e-07
3691.12	-3.14086e-07
3699.8	-2.49551e-07
3708.48	-3.51e-07
3717.15	-3.36811e-07
3725.83	-3.30654e-07
3734.51	-4.08723e-07
3743.19	-2.30971e-07
3751.87	-1.84071e-07
3760.54	2.86848e-07
3769.22	-2.80474e-08
3777.9	-8.42005e-08
3786.58	6.5173e-08
3795.26	1.75591e-07
3803.94	2.88405e-07
3812.61	2.60195e-07
3821.29	9.46992e-08
3829.97	8.78989e-07
3838.65	6.17364e-07
3847.33	1.14178e-06
3856	1.42133e-06
3864.68	1.53094e-06
3873.36	1.56895e-06
3882.04	1.83309e-06
3890.72	2.17022e-06
3899.4	2.56465e-06
3908.07	2.62181e-06
3916.75	1.50839e-06
3925.43	9.88259e-07
3934.11	7.5711e-07
3942.79	6.10752e-07
3951.46	9.23137e-07
3960.14	1.17061e-06
3968.82	1.22255e-06
