Infrared Spectrum: 1,2-Dimethylbenzene
Formula: 1,2-( C H3)2 C6 H4
CAS: 95-47-6
State: gas
Melting point: -25.18 C
Boiling point: 144.4 C
Class: IUPAC A
Instrument: IFS66V (Bruker)
Instrument parameters: KBr Beam Splitter; MCT Detector; Multipass cell
Sampling: 1 L/min Flow
Resolution: 0.2410
Temperature: 23 C
Pressure: 101.3 Pa
Origin: NIST, Analytical Chemistry Division, 301-975-3108
cm-1	(micromol/mol)-1m-1 (base 10)
575.05	3.67763e-08
583.608	4.23806e-07
592.165	8.2864e-07
600.723	-1.29352e-06
609.281	-5.75114e-07
617.838	1.87156e-07
626.396	7.46213e-07
634.954	8.78778e-07
643.511	-1.6654e-07
652.069	-3.23109e-07
660.626	2.49695e-07
669.184	4.07961e-08
677.742	-1.15742e-07
686.299	-1.18647e-08
694.857	7.43626e-07
703.415	1.27278e-06
711.972	2.59115e-06
720.53	3.14088e-05
729.088	0.000192451
737.645	0.000234549
746.203	0.000205346
754.761	0.000156038
763.318	1.5308e-05
771.876	2.35865e-06
780.434	1.32057e-06
788.991	6.03726e-07
797.549	3.6209e-07
806.106	6.55146e-07
814.664	1.23231e-06
823.222	1.92829e-06
831.779	9.32126e-07
840.337	8.1807e-07
848.895	7.40545e-07
857.452	1.71369e-06
866.01	2.66851e-06
874.568	2.57446e-06
883.125	1.55135e-06
891.683	1.26054e-06
900.241	1.92618e-06
908.798	2.05298e-06
917.356	2.11887e-06
925.914	2.42326e-06
934.471	3.1557e-06
943.029	3.47291e-06
951.586	2.17889e-06
960.144	2.10417e-06
968.702	4.38359e-06
977.259	1.73212e-05
985.817	2.29303e-05
994.375	1.7702e-05
1002.93	9.0812e-06
1011.49	1.33839e-05
1020.05	1.75234e-05
1028.61	1.38604e-05
1037.16	1.11799e-05
1045.72	3.19537e-05
1054.28	5.24466e-05
1062.84	2.94322e-05
1071.39	3.90758e-06
1079.95	1.19359e-06
1088.51	1.52335e-06
1097.07	1.36592e-06
1105.62	3.7852e-06
1114.18	1.5266e-05
1122.74	1.83824e-05
1131.3	1.66845e-05
1139.85	1.05488e-05
1148.41	8.42205e-06
1156.97	5.01681e-06
1165.53	4.09417e-06
1174.09	3.56157e-06
1182.64	2.9436e-06
1191.2	2.21857e-06
1199.76	2.04236e-06
1208.32	2.60332e-06
1216.87	7.01574e-06
1225.43	9.27593e-06
1233.99	6.84508e-06
1242.55	1.34172e-06
1251.1	8.5057e-07
1259.66	1.20346e-06
1268.22	1.2123e-06
1276.78	1.74602e-06
1285.33	1.99238e-06
1293.89	2.10171e-06
1302.45	1.54187e-06
1311.01	1.83231e-06
1319.57	2.07891e-06
1328.12	2.49614e-06
1336.68	3.04217e-06
1345.24	4.06986e-06
1353.8	3.35309e-06
1362.35	5.4438e-06
1370.91	1.09331e-05
1379.47	1.46228e-05
1388.03	2.33026e-05
1396.58	2.21672e-05
1405.14	7.70659e-06
1413.7	7.15094e-06
1422.26	9.06884e-06
1430.81	1.78335e-05
1439.37	3.10256e-05
1447.93	6.82651e-05
1456.49	9.64929e-05
1465.05	0.000143927
1473.6	0.000123288
1482.16	8.94074e-05
1490.72	9.44977e-05
1499.28	0.000110182
1507.83	9.36567e-05
1516.39	1.42584e-05
1524.95	8.42956e-06
1533.51	7.95141e-06
1542.06	6.4528e-06
1550.62	7.07273e-06
1559.18	6.22296e-06
1567.74	5.75437e-06
1576.29	6.10808e-06
1584.85	1.51693e-05
1593.41	2.61452e-05
1601.97	3.03406e-05
1610.53	2.51724e-05
1619.08	2.12758e-05
1627.64	6.69251e-06
1636.2	2.00871e-06
1644.76	1.04267e-06
1653.31	-1.12676e-06
1661.87	4.39405e-06
1670.43	7.04285e-06
1678.99	5.82819e-06
1687.54	2.48193e-06
1696.1	4.95152e-07
1704.66	2.67779e-06
1713.22	3.54658e-06
1721.77	3.21658e-06
1730.33	1.26556e-06
1738.89	1.05776e-06
1747.45	1.26571e-06
1756.01	1.49887e-06
1764.56	1.93054e-06
1773.12	4.42476e-06
1781.68	9.29611e-06
1790.24	9.58247e-06
1798.79	3.89596e-06
1807.35	8.38151e-07
1815.91	2.5916e-06
1824.47	5.88793e-06
1833.02	5.79215e-06
1841.58	1.15223e-06
1850.14	2.38915e-06
1858.7	4.45724e-06
1867.25	5.47061e-06
1875.81	4.12447e-06
1884.37	5.80897e-06
1892.93	1.16418e-05
1901.49	9.70424e-06
1910.04	8.47836e-06
1918.6	1.14312e-06
1927.16	1.19417e-06
1935.72	7.80611e-06
1944.27	1.26289e-05
1952.83	5.95245e-06
1961.39	1.00521e-06
1969.95	9.7548e-07
1978.5	6.7805e-07
1987.06	4.83957e-07
1995.62	2.959e-07
2004.18	1.09953e-07
2012.73	-5.72881e-08
2021.29	-1.79234e-08
2029.85	5.63422e-08
2038.41	-7.28579e-08
2046.97	-1.44402e-08
2055.52	-1.25641e-07
2064.08	-4.39855e-07
2072.64	-4.457e-07
2081.2	-2.24867e-07
2089.75	-1.64276e-07
2098.31	-1.48719e-07
2106.87	1.58093e-07
2115.43	7.71996e-07
2123.98	3.11696e-07
2132.54	-1.12501e-07
2141.1	-5.18927e-07
2149.66	-1.18527e-07
2158.21	3.16027e-07
2166.77	-1.55272e-07
2175.33	-3.31684e-07
2183.89	-1.97489e-07
2192.45	-1.85528e-10
2201	6.83099e-07
2209.56	9.99866e-07
2218.12	6.59297e-07
2226.68	4.01342e-07
2235.23	2.00972e-07
2243.79	-3.73966e-08
2252.35	-2.633e-07
2260.91	1.4579e-07
2269.46	9.24647e-07
2278.02	9.42947e-07
2286.58	7.16828e-07
2295.14	1.21221e-07
2303.69	1.61968e-07
2312.25	1.0071e-06
2320.81	5.21355e-07
2329.37	9.59051e-07
2337.93	5.526e-07
2346.48	1.04752e-06
2355.04	5.61644e-07
2363.6	-2.51216e-07
2372.16	-1.13134e-07
2380.71	-2.56818e-07
2389.27	2.76782e-07
2397.83	1.69863e-07
2406.39	9.57192e-07
2414.94	1.16628e-06
2423.5	1.71095e-06
2432.06	2.19209e-06
2440.62	2.32595e-06
2449.17	1.95466e-06
2457.73	1.33342e-06
2466.29	7.88269e-07
2474.85	4.84848e-07
2483.41	5.52174e-07
2491.96	6.12296e-07
2500.52	4.13159e-07
2509.08	4.44676e-07
2517.64	4.00354e-07
2526.19	-2.41805e-08
2534.75	-9.15689e-08
2543.31	-1.66373e-07
2551.87	2.32686e-07
2560.42	1.04913e-06
2568.98	2.48612e-06
2577.54	2.77188e-06
2586.1	2.24492e-06
2594.65	9.98138e-07
2603.21	7.90392e-07
2611.77	9.80236e-07
2620.33	9.79027e-07
2628.89	1.55945e-07
2637.44	-7.31507e-08
2646	1.35006e-07
2654.56	-3.58996e-08
2663.12	2.49098e-08
2671.67	5.23179e-07
2680.23	5.46263e-07
2688.79	5.51041e-07
2697.35	5.32154e-07
2705.9	1.10873e-06
2714.46	1.65849e-06
2723.02	3.5616e-06
2731.58	6.9881e-06
2740.13	1.14429e-05
2748.69	1.19219e-05
2757.25	4.13322e-06
2765.81	4.01757e-06
2774.37	4.42656e-06
2782.92	3.98283e-06
2791.48	3.215e-06
2800.04	3.50459e-06
2808.6	4.72596e-06
2817.15	6.8538e-06
2825.71	9.28963e-06
2834.27	1.12593e-05
2842.83	1.51874e-05
2851.38	2.32398e-05
2859.94	4.66977e-05
2868.5	8.15045e-05
2877.06	0.000113022
2885.61	0.000118542
2894.17	0.000108213
2902.73	9.0549e-05
2911.29	9.11752e-05
2919.85	0.000115743
2928.4	0.000171621
2936.96	0.000210587
2945.52	0.00019843
2954.08	0.000197711
2962.63	0.000146069
2971.19	0.000167572
2979.75	0.000157842
2988.31	0.0001416
2996.86	6.07041e-05
3005.42	4.95814e-05
3013.98	9.00267e-05
3022.54	0.000175478
3031.09	0.000209834
3039.65	0.000137447
3048.21	9.62799e-05
3056.77	0.000113795
3065.33	0.000141753
3073.88	0.000145985
3082.44	0.000124165
3091	8.08587e-05
3099.56	4.24301e-05
3108.11	2.8613e-05
3116.67	2.57098e-05
3125.23	1.97409e-05
3133.79	7.1003e-06
3142.34	4.19939e-06
3150.9	3.23315e-06
3159.46	3.26081e-06
3168.02	3.55812e-06
3176.57	2.84415e-06
3185.13	1.72078e-06
3193.69	1.24278e-06
3202.25	1.0975e-06
3210.81	7.22025e-07
3219.36	3.65157e-07
3227.92	3.59416e-07
3236.48	2.78421e-07
3245.04	-2.69625e-07
3253.59	2.31033e-07
3262.15	3.54478e-07
3270.71	-3.37333e-08
3279.27	-7.86092e-08
3287.82	2.90613e-07
3296.38	3.69506e-07
3304.94	1.0194e-07
3313.5	4.32091e-07
3322.05	5.7359e-08
3330.61	-2.67218e-07
3339.17	4.65093e-09
3347.73	-3.85183e-07
3356.29	-6.15112e-07
3364.84	3.57019e-07
3373.4	8.63959e-08
3381.96	1.5435e-07
3390.52	2.89172e-07
3399.07	-7.49914e-08
3407.63	1.08532e-07
3416.19	-5.41887e-08
3424.75	8.87914e-08
3433.3	1.1691e-07
3441.86	8.27909e-08
3450.42	2.47229e-07
3458.98	3.88613e-07
3467.53	6.16693e-07
3476.09	-1.53151e-09
3484.65	3.72924e-07
3493.21	1.83611e-07
3501.77	-1.16113e-07
3510.32	-1.29315e-07
3518.88	-2.14958e-07
3527.44	-2.38023e-07
3536	-3.39323e-07
3544.55	1.16029e-07
3553.11	-8.0861e-08
3561.67	-1.29078e-07
3570.23	1.90966e-07
3578.78	-2.59137e-07
3587.34	-9.64563e-08
3595.9	1.28458e-07
3604.46	4.45918e-07
3613.01	5.46001e-07
3621.57	-1.89118e-07
3630.13	-2.30475e-07
3638.69	-2.68104e-07
3647.25	-4.15195e-07
3655.8	-1.17485e-07
3664.36	-1.81157e-07
3672.92	-1.66437e-07
3681.48	-7.70504e-08
3690.03	-5.35522e-07
3698.59	-3.97764e-07
3707.15	-1.23134e-07
3715.71	-7.42784e-08
3724.26	-3.51102e-07
3732.82	-2.56016e-07
3741.38	-3.17382e-07
3749.94	-3.60561e-08
3758.49	3.12907e-07
3767.05	3.66548e-07
3775.61	-2.18213e-08
3784.17	-1.05212e-07
3792.73	1.06222e-07
3801.28	-9.03148e-07
3809.84	6.2214e-07
3818.4	4.86756e-07
3826.96	6.05259e-07
3835.51	1.01891e-06
3844.07	1.43384e-06
3852.63	1.19851e-06
3861.19	1.59614e-06
3869.74	1.69157e-06
3878.3	1.82838e-06
3886.86	2.2192e-06
3895.42	2.83919e-06
3903.97	2.7723e-06
3912.53	2.09327e-06
3921.09	1.26365e-06
3929.65	5.81559e-07
3938.21	5.29993e-07
3946.76	8.438e-07
3955.32	9.75713e-07
3963.88	1.21653e-06
3972.44	8.27612e-07
