Infrared Spectrum: 1,2-Dimethylbenzene
Formula: 1,2-( C H3)2 C6 H4
CAS: 95-47-6
State: gas
Melting point: -25.18 C
Boiling point: 144.4 C
Class: IUPAC A
Instrument: IFS66V (Bruker)
Instrument parameters: KBr Beam Splitter; MCT Detector; Multipass cell
Sampling: 1 L/min Flow
Resolution: 0.4820
Temperature: 23 C
Pressure: 101.3 Pa
Origin: NIST, Analytical Chemistry Division, 301-975-3108
cm-1	(micromol/mol)-1m-1 (base 10)
575.17	2.63827e-06
583.848	3.60965e-06
592.526	1.04984e-06
601.205	9.91937e-08
609.883	-1.64856e-07
618.561	-5.80093e-07
627.239	-2.29192e-07
635.917	-2.11538e-09
644.595	-3.1951e-07
653.274	-1.07983e-07
661.952	-1.60869e-07
670.63	4.61881e-07
679.308	1.75065e-07
687.986	4.93648e-07
696.665	4.11168e-07
705.343	1.56883e-06
714.021	4.81531e-06
722.699	5.69815e-05
731.377	0.000224524
740.055	0.000759183
748.734	0.000239582
757.412	8.94228e-05
766.09	6.54486e-06
774.768	1.63292e-06
783.446	1.23214e-06
792.124	7.51957e-07
800.803	4.10573e-07
809.481	7.5705e-07
818.159	1.47025e-06
826.837	1.49341e-06
835.515	1.11722e-06
844.194	8.57717e-07
852.872	9.91097e-07
861.55	2.19743e-06
870.228	3.21147e-06
878.906	2.00315e-06
887.584	1.20799e-06
896.263	1.62672e-06
904.941	1.79385e-06
913.619	1.97925e-06
922.297	2.16841e-06
930.975	7.5005e-06
939.654	3.44516e-06
948.332	2.58483e-06
957.01	1.96855e-06
965.688	2.92547e-06
974.366	1.20089e-05
983.044	2.19657e-05
991.723	2.12102e-05
1000.4	9.57041e-06
1009.08	1.17131e-05
1017.76	1.56591e-05
1026.44	1.49708e-05
1035.11	1.17808e-05
1043.79	2.29348e-05
1052.47	3.28947e-05
1061.15	3.55521e-05
1069.83	5.35637e-06
1078.5	1.41178e-06
1087.18	1.15308e-06
1095.86	1.38012e-06
1104.54	3.26658e-06
1113.22	1.3972e-05
1121.9	1.71345e-05
1130.57	1.70788e-05
1139.25	1.09969e-05
1147.93	8.30934e-06
1156.61	5.21695e-06
1165.29	4.14845e-06
1173.96	3.62194e-06
1182.64	2.92108e-06
1191.32	2.30553e-06
1200	1.92166e-06
1208.68	2.73799e-06
1217.36	7.3479e-06
1226.03	9.43362e-06
1234.71	6.02718e-06
1243.39	1.01107e-06
1252.07	8.44319e-07
1260.75	1.20847e-06
1269.42	1.56636e-06
1278.1	1.68429e-06
1286.78	1.93389e-06
1295.46	2.13692e-06
1304.14	1.67012e-06
1312.82	1.65658e-06
1321.49	2.19322e-06
1330.17	2.80001e-06
1338.85	3.26125e-06
1347.53	3.88892e-06
1356.21	4.51878e-06
1364.88	6.43859e-06
1373.56	1.35643e-05
1382.24	2.42936e-05
1390.92	2.09758e-05
1399.6	1.55811e-05
1408.28	7.04229e-06
1416.95	8.06849e-06
1425.63	1.14461e-05
1434.31	2.32884e-05
1442.99	4.54848e-05
1451.67	7.38437e-05
1460.34	0.000125248
1469.02	0.000133957
1477.7	0.000115395
1486.38	7.94247e-05
1495.06	0.000124788
1503.74	9.25689e-05
1512.41	3.87613e-05
1521.09	8.0613e-06
1529.77	7.8123e-06
1538.45	7.55244e-06
1547.13	7.30715e-06
1555.8	6.56839e-06
1564.48	5.96594e-06
1573.16	6.39187e-06
1581.84	1.22444e-05
1590.52	2.37029e-05
1599.2	2.47189e-05
1607.87	2.99377e-05
1616.55	2.15966e-05
1625.23	1.04073e-05
1633.91	2.54537e-06
1642.59	1.30375e-06
1651.26	1.20491e-06
1659.94	3.36285e-06
1668.62	5.78357e-06
1677.3	6.18198e-06
1685.98	2.4289e-06
1694.66	1.65897e-06
1703.33	2.46343e-06
1712.01	3.26827e-06
1720.69	3.2406e-06
1729.37	1.19501e-06
1738.05	1.08636e-06
1746.72	1.27013e-06
1755.4	1.5637e-06
1764.08	1.89405e-06
1772.76	2.97881e-06
1781.44	9.2973e-06
1790.12	9.65075e-06
1798.79	3.83971e-06
1807.47	8.22885e-07
1816.15	2.6396e-06
1824.83	5.657e-06
1833.51	6.12729e-06
1842.18	9.77582e-07
1850.86	2.77556e-06
1859.54	4.92997e-06
1868.22	5.50957e-06
1876.9	4.0902e-06
1885.58	6.30865e-06
1894.25	1.26978e-05
1902.93	1.10008e-05
1911.61	6.6941e-06
1920.29	6.89159e-07
1928.97	2.16652e-06
1937.64	8.83626e-06
1946.32	6.548e-06
1955	3.27643e-06
1963.68	1.17845e-06
1972.36	8.20109e-07
1981.04	6.85824e-07
1989.71	4.47542e-07
1998.39	1.81441e-07
2007.07	2.56336e-07
2015.75	2.06991e-08
2024.43	-1.14001e-07
2033.1	-1.38491e-07
2041.78	-6.82015e-08
2050.46	-4.50269e-08
2059.14	-1.85089e-07
2067.82	-3.20212e-07
2076.5	-3.7308e-07
2085.17	-1.31406e-07
2093.85	-3.35389e-07
2102.53	8.90261e-08
2111.21	3.25103e-07
2119.89	7.23462e-07
2128.56	1.00943e-07
2137.24	-3.76012e-07
2145.92	-2.68986e-07
2154.6	-7.08334e-08
2163.28	-1.37585e-07
2171.96	-1.85564e-07
2180.63	-1.47698e-07
2189.31	-1.09565e-07
2197.99	3.85454e-07
2206.67	9.36361e-07
2215.35	7.39292e-07
2224.02	3.95201e-07
2232.7	1.86774e-07
2241.38	4.156e-08
2250.06	-2.35204e-07
2258.74	1.19838e-07
2267.42	7.03172e-07
2276.09	1.05217e-06
2284.77	8.32732e-07
2293.45	2.26948e-07
2302.13	1.57218e-07
2310.81	6.76964e-07
2319.48	1.29908e-06
2328.16	9.70827e-07
2336.84	1.06508e-06
2345.52	7.16514e-07
2354.2	-5.86553e-07
2362.88	-3.86966e-06
2371.55	-1.47885e-06
2380.23	-7.51569e-09
2388.91	1.91548e-08
2397.59	2.3438e-07
2406.27	9.11473e-07
2414.94	1.15667e-06
2423.62	1.68672e-06
2432.3	2.13161e-06
2440.98	2.28801e-06
2449.66	1.83653e-06
2458.34	1.269e-06
2467.01	7.71934e-07
2475.69	5.74505e-07
2484.37	5.73217e-07
2493.05	6.41742e-07
2501.73	3.81654e-07
2510.4	3.10492e-07
2519.08	3.27115e-07
2527.76	-4.47904e-08
2536.44	-1.39613e-07
2545.12	-6.5384e-08
2553.8	3.28848e-07
2562.47	1.37109e-06
2571.15	2.75244e-06
2579.83	2.77839e-06
2588.51	1.67079e-06
2597.19	7.53347e-07
2605.86	8.89886e-07
2614.54	1.17134e-06
2623.22	6.85378e-07
2631.9	1.34044e-07
2640.58	-4.59636e-09
2649.26	-2.87768e-08
2657.93	1.05436e-07
2666.61	2.9317e-07
2675.29	5.37732e-07
2683.97	5.84065e-07
2692.65	5.99631e-07
2701.32	5.04987e-07
2710	1.20223e-06
2718.68	2.41849e-06
2727.36	4.78674e-06
2736.04	1.09549e-05
2744.71	1.1259e-05
2753.39	7.80702e-06
2762.07	3.54946e-06
2770.75	4.63409e-06
2779.43	4.99715e-06
2788.11	3.27827e-06
2796.78	3.17902e-06
2805.46	4.2921e-06
2814.14	6.35496e-06
2822.82	8.17833e-06
2831.5	1.06384e-05
2840.17	1.33868e-05
2848.85	1.97571e-05
2857.53	3.81589e-05
2866.21	7.11716e-05
2874.89	0.00010712
2883.57	0.000120694
2892.24	0.000111475
2900.92	9.14814e-05
2909.6	8.68033e-05
2918.28	0.000107777
2926.96	0.000163203
2935.63	0.000206014
2944.31	0.000202534
2952.99	0.000214321
2961.67	0.000145584
2970.35	0.000161812
2979.03	0.0001663
2987.7	0.000148313
2996.38	6.30525e-05
3005.06	4.87043e-05
3013.74	8.78045e-05
3022.42	0.00017491
3031.09	0.000209706
3039.77	0.000136771
3048.45	9.61669e-05
3057.13	0.000115132
3065.81	0.000143339
3074.49	0.000143246
3083.16	0.000120386
3091.84	7.59881e-05
3100.52	3.80784e-05
3109.2	2.90378e-05
3117.88	2.49702e-05
3126.55	1.73123e-05
3135.23	6.3167e-06
3143.91	4.1826e-06
3152.59	3.36434e-06
3161.27	3.38647e-06
3169.95	3.48184e-06
3178.62	2.64847e-06
3187.3	1.61878e-06
3195.98	9.53151e-07
3204.66	7.28828e-07
3213.34	4.14222e-07
3222.01	3.96517e-07
3230.69	2.13561e-07
3239.37	-4.9214e-08
3248.05	1.04447e-07
3256.73	3.68109e-08
3265.41	1.92767e-08
3274.08	-9.99304e-08
3282.76	5.46398e-09
3291.44	2.15096e-07
3300.12	-1.27177e-08
3308.8	4.65275e-09
3317.47	1.95592e-07
3326.15	-1.06733e-07
3334.83	-6.64608e-08
3343.51	-7.59755e-09
3352.19	-3.11256e-07
3360.87	1.37483e-07
3369.54	1.77878e-07
3378.22	6.16538e-07
3386.9	5.07291e-08
3395.58	1.90894e-07
3404.26	-2.66542e-08
3412.93	-1.09698e-07
3421.61	-1.99344e-07
3430.29	9.89027e-08
3438.97	-6.60079e-09
3447.65	-1.04885e-07
3456.33	4.42124e-07
3465	4.87853e-07
3473.68	3.19442e-07
3482.36	2.48109e-07
3491.04	-7.08552e-08
3499.72	-2.14963e-07
3508.39	-4.44175e-09
3517.07	-1.81253e-07
3525.75	-2.09303e-07
3534.43	-3.77873e-07
3543.11	-1.01526e-07
3551.79	-2.59963e-07
3560.46	-1.25655e-07
3569.14	8.77765e-08
3577.82	-1.75124e-08
3586.5	-3.85931e-07
3595.18	5.43269e-08
3603.85	4.89837e-07
3612.53	2.96044e-08
3621.21	5.1273e-08
3629.89	-7.52901e-07
3638.57	-1.44646e-07
3647.25	-3.99338e-07
3655.92	-2.2363e-07
3664.6	-1.80184e-07
3673.28	-7.40256e-08
3681.96	-1.04485e-07
3690.64	-4.18814e-07
3699.31	-1.73634e-07
3707.99	-3.40351e-07
3716.67	-3.29639e-07
3725.35	-3.9753e-07
3734.03	-4.01717e-07
3742.71	-5.29791e-08
3751.38	1.37254e-08
3760.06	-3.48592e-08
3768.74	1.98322e-07
3777.42	1.12053e-07
3786.1	2.68069e-08
3794.77	2.34802e-07
3803.45	1.50345e-07
3812.13	1.70213e-07
3820.81	-1.46712e-08
3829.49	7.63498e-07
3838.17	2.521e-07
3846.84	1.10648e-06
3855.52	1.34214e-06
3864.2	1.60682e-06
3872.88	1.66331e-06
3881.56	1.85314e-06
3890.23	2.20001e-06
3898.91	2.52766e-06
3907.59	2.82935e-06
3916.27	1.57484e-06
3924.95	9.35258e-07
3933.63	7.67814e-07
3942.3	6.12675e-07
3950.98	8.02537e-07
3959.66	1.05467e-06
3968.34	1.0175e-06
