Infrared Spectrum: 1,2-Dimethylbenzene
Formula: 1,2-( C H3)2 C6 H4
CAS: 95-47-6
State: gas
Melting point: -25.18 C
Boiling point: 144.4 C
Class: IUPAC A
Instrument: IFS66V (Bruker)
Instrument parameters: KBr Beam Splitter; MCT Detector; Multipass cell
Sampling: 1 L/min Flow
Resolution: 1.9290
Temperature: 23 C
Pressure: 101.3 Pa
Origin: NIST, Analytical Chemistry Division, 301-975-3108
cm-1	(micromol/mol)-1m-1 (base 10)
575.652	2.87822e-06
584.33	2.75509e-06
593.008	1.02845e-06
601.687	-5.48762e-09
610.365	-2.81004e-07
619.043	-1.45505e-07
627.721	-1.71886e-09
636.399	-1.45457e-08
645.077	-1.64974e-07
653.756	-2.92297e-08
662.434	5.55783e-08
671.112	2.43753e-07
679.79	1.65178e-07
688.468	4.09169e-07
697.147	8.76091e-07
705.825	1.33672e-06
714.503	5.81566e-06
723.181	6.6292e-05
731.859	0.000224423
740.537	0.00102777
749.216	0.000239674
757.894	8.02892e-05
766.572	6.10042e-06
775.25	1.50234e-06
783.928	9.38743e-07
792.607	7.779e-07
801.285	5.21406e-07
809.963	7.88857e-07
818.641	1.5081e-06
827.319	1.38067e-06
835.997	1.04627e-06
844.676	6.72738e-07
853.354	1.07607e-06
862.032	2.35691e-06
870.71	3.00861e-06
879.388	2.18799e-06
888.066	1.25064e-06
896.745	1.70544e-06
905.423	1.84029e-06
914.101	1.93055e-06
922.779	2.33971e-06
931.457	6.14373e-06
940.136	3.41368e-06
948.814	2.59946e-06
957.492	2.04777e-06
966.17	3.10086e-06
974.848	1.29676e-05
983.526	2.29679e-05
992.205	2.05078e-05
1000.88	9.59226e-06
1009.56	1.2149e-05
1018.24	1.60264e-05
1026.92	1.49447e-05
1035.6	1.15933e-05
1044.27	2.53616e-05
1052.95	4.0208e-05
1061.63	3.36157e-05
1070.31	4.88548e-06
1078.99	1.42897e-06
1087.66	1.21029e-06
1096.34	1.28163e-06
1105.02	3.66679e-06
1113.7	1.46844e-05
1122.38	1.77439e-05
1131.06	1.67055e-05
1139.73	1.05309e-05
1148.41	8.28558e-06
1157.09	5.0664e-06
1165.77	4.18542e-06
1174.45	3.44805e-06
1183.12	2.94537e-06
1191.8	2.27901e-06
1200.48	1.9952e-06
1209.16	2.74296e-06
1217.84	7.50122e-06
1226.52	8.96925e-06
1235.19	5.60086e-06
1243.87	9.24721e-07
1252.55	8.79824e-07
1261.23	1.25807e-06
1269.91	1.45309e-06
1278.58	1.69443e-06
1287.26	2.02661e-06
1295.94	2.07357e-06
1304.62	1.60974e-06
1313.3	1.71823e-06
1321.98	2.26751e-06
1330.65	2.88704e-06
1339.33	3.24292e-06
1348.01	3.93242e-06
1356.69	4.904e-06
1365.37	6.70408e-06
1374.04	1.39818e-05
1382.72	2.45758e-05
1391.4	2.11508e-05
1400.08	1.45079e-05
1408.76	7.09517e-06
1417.44	8.02421e-06
1426.11	1.19747e-05
1434.79	2.35884e-05
1443.47	4.76099e-05
1452.15	7.57546e-05
1460.83	0.000131125
1469.5	0.000131974
1478.18	0.00011118
1486.86	8.04344e-05
1495.54	0.000119711
1504.22	9.53417e-05
1512.9	3.50444e-05
1521.57	8.66888e-06
1530.25	7.77344e-06
1538.93	7.1122e-06
1547.61	7.14308e-06
1556.29	6.45005e-06
1564.96	5.81944e-06
1573.64	6.52856e-06
1582.32	1.26472e-05
1591	2.41387e-05
1599.68	2.62253e-05
1608.36	2.91898e-05
1617.03	2.20223e-05
1625.71	9.60718e-06
1634.39	2.29016e-06
1643.07	1.20595e-06
1651.75	7.07019e-07
1660.42	3.62303e-06
1669.1	5.93169e-06
1677.78	6.02661e-06
1686.46	2.30422e-06
1695.14	1.30131e-06
1703.82	2.58875e-06
1712.49	3.35979e-06
1721.17	3.18542e-06
1729.85	1.20231e-06
1738.53	1.08579e-06
1747.21	1.28554e-06
1755.88	1.54872e-06
1764.56	1.97869e-06
1773.24	4.16666e-06
1781.92	9.32519e-06
1790.6	9.26489e-06
1799.28	3.53721e-06
1807.95	8.55345e-07
1816.63	2.94151e-06
1825.31	5.67347e-06
1833.99	5.92716e-06
1842.67	9.07387e-07
1851.34	2.97285e-06
1860.02	5.17087e-06
1868.7	5.28947e-06
1877.38	4.13024e-06
1886.06	6.53398e-06
1894.74	1.2881e-05
1903.41	1.16137e-05
1912.09	6.06739e-06
1920.77	6.90866e-07
1929.45	2.49594e-06
1938.13	8.70702e-06
1946.8	7.23989e-06
1955.48	2.90497e-06
1964.16	1.11176e-06
1972.84	8.94537e-07
1981.52	6.78308e-07
1990.2	4.18396e-07
1998.87	2.17486e-07
2007.55	2.0208e-08
2016.23	1.06879e-08
2024.91	-8.56102e-08
2033.59	-1.03625e-07
2042.26	-4.08561e-08
2050.94	-7.51606e-08
2059.62	-2.47887e-07
2068.3	-3.77716e-07
2076.98	-3.12045e-07
2085.66	-1.11529e-07
2094.33	-2.83803e-07
2103.01	1.25815e-07
2111.69	3.96327e-07
2120.37	5.61298e-07
2129.05	1.96436e-07
2137.72	-3.68447e-07
2146.4	-2.62294e-07
2155.08	-1.57695e-07
2163.76	-1.22628e-07
2172.44	-1.60314e-07
2181.12	-2.11109e-07
2189.79	-5.55747e-08
2198.47	4.87778e-07
2207.15	9.07306e-07
2215.83	7.06239e-07
2224.51	3.91074e-07
2233.18	1.98608e-07
2241.86	-3.26856e-09
2250.54	-2.01903e-07
2259.22	1.20488e-07
2267.9	7.55e-07
2276.58	1.02506e-06
2285.25	7.54945e-07
2293.93	2.71354e-07
2302.61	1.25384e-07
2311.29	7.6868e-07
2319.97	8.27678e-07
2328.64	7.30088e-08
2337.32	8.16577e-08
2346	4.86408e-07
2354.68	-2.675e-07
2363.36	-1.74237e-06
2372.04	-7.97851e-07
2380.71	-9.21982e-08
2389.39	1.18601e-07
2398.07	2.71418e-07
2406.75	8.984e-07
2415.43	1.17788e-06
2424.1	1.64602e-06
2432.78	2.12412e-06
2441.46	2.3813e-06
2450.14	1.91686e-06
2458.82	1.13294e-06
2467.5	7.21852e-07
2476.17	5.47292e-07
2484.85	5.89897e-07
2493.53	5.3794e-07
2502.21	4.0661e-07
2510.89	3.42479e-07
2519.56	2.5923e-07
2528.24	-4.07452e-08
2536.92	-1.06857e-07
2545.6	9.59106e-09
2554.28	3.97375e-07
2562.96	1.45118e-06
2571.63	2.80501e-06
2580.31	2.71237e-06
2588.99	1.72168e-06
2597.67	7.78115e-07
2606.35	9.75469e-07
2615.02	1.07333e-06
2623.7	7.19608e-07
2632.38	1.97762e-07
2641.06	-5.84904e-08
2649.74	-3.04575e-08
2658.42	1.24757e-07
2667.09	2.69512e-07
2675.77	5.27705e-07
2684.45	6.15605e-07
2693.13	5.8022e-07
2701.81	6.23361e-07
2710.48	1.19158e-06
2719.16	2.56911e-06
2727.84	4.97046e-06
2736.52	1.11465e-05
2745.2	1.1271e-05
2753.88	7.32577e-06
2762.55	3.61571e-06
2771.23	4.77455e-06
2779.91	4.97367e-06
2788.59	3.35365e-06
2797.27	3.31043e-06
2805.94	4.36823e-06
2814.62	6.32046e-06
2823.3	8.47866e-06
2831.98	1.07516e-05
2840.66	1.36782e-05
2849.34	2.04954e-05
2858.01	3.99717e-05
2866.69	7.349e-05
2875.37	0.000108324
2884.05	0.000119877
2892.73	0.000110547
2901.4	9.15058e-05
2910.08	8.81913e-05
2918.76	0.000110281
2927.44	0.000165828
2936.12	0.000207526
2944.8	0.000201283
2953.47	0.000206041
2962.15	0.000145754
2970.83	0.000165215
2979.51	0.000161925
2988.19	0.000142446
2996.86	6.10365e-05
3005.54	4.95616e-05
3014.22	9.28661e-05
3022.9	0.000174895
3031.58	0.000207079
3040.26	0.000134331
3048.93	9.58774e-05
3057.61	0.000117205
3066.29	0.000144074
3074.97	0.000140828
3083.65	0.000117465
3092.32	7.25964e-05
3101	3.65537e-05
3109.68	2.91545e-05
3118.36	2.50429e-05
3127.04	1.64636e-05
3135.72	6.0213e-06
3144.39	4.02139e-06
3153.07	3.36187e-06
3161.75	3.37414e-06
3170.43	3.36928e-06
3179.11	2.65022e-06
3187.78	1.56608e-06
3196.46	1.1203e-06
3205.14	7.67107e-07
3213.82	4.90474e-07
3222.5	4.49232e-07
3231.18	3.04433e-07
3239.85	1.26492e-07
3248.53	5.64059e-08
3257.21	4.87174e-08
3265.89	-8.57248e-08
3274.57	-2.31455e-08
3283.24	4.49414e-08
3291.92	1.98646e-07
3300.6	1.22745e-07
3309.28	4.06797e-08
3317.96	1.67466e-07
3326.64	-7.57263e-08
3335.31	-1.07974e-07
3343.99	-7.44239e-08
3352.67	-6.95766e-08
3361.35	3.8788e-08
3370.03	1.18982e-07
3378.7	3.50689e-07
3387.38	3.12949e-07
3396.06	1.99477e-07
3404.74	-7.58281e-08
3413.42	-1.33878e-07
3422.1	-5.21861e-08
3430.77	5.10311e-08
3439.45	3.64708e-08
3448.13	1.64181e-07
3456.81	3.73447e-07
3465.49	4.06631e-07
3474.16	2.51852e-07
3482.84	1.59829e-07
3491.52	-8.53537e-08
3500.2	-1.76632e-07
3508.88	-1.56054e-07
3517.56	-1.97456e-07
3526.23	-2.05019e-07
3534.91	-2.24858e-07
3543.59	-1.20982e-07
3552.27	-1.09789e-07
3560.95	-1.33707e-07
3569.62	-5.42396e-09
3578.3	7.90476e-08
3586.98	-1.21783e-07
3595.66	1.65373e-07
3604.34	3.85298e-07
3613.02	3.00944e-07
3621.69	-8.74291e-08
3630.37	-4.38984e-07
3639.05	-1.48917e-07
3647.73	-2.7652e-07
3656.41	-2.6172e-07
3665.08	-1.08956e-07
3673.76	-3.53249e-07
3682.44	-1.76828e-07
3691.12	-3.04629e-07
3699.8	-2.28905e-07
3708.48	-3.66943e-07
3717.15	-3.17274e-07
3725.83	-3.31864e-07
3734.51	-3.8521e-07
3743.19	-3.14277e-07
3751.87	-1.12355e-07
3760.54	2.79778e-07
3769.22	1.69158e-09
3777.9	-8.8364e-08
3786.58	6.55804e-08
3795.26	1.39355e-07
3803.94	2.79048e-07
3812.61	2.68595e-07
3821.29	1.5489e-07
3829.97	8.45048e-07
3838.65	6.34441e-07
3847.33	1.10814e-06
3856	1.37837e-06
3864.68	1.54726e-06
3873.36	1.58237e-06
3882.04	1.81601e-06
3890.72	2.21218e-06
3899.4	2.58487e-06
3908.07	2.62425e-06
3916.75	1.50514e-06
3925.43	1.01871e-06
3934.11	7.31551e-07
3942.79	6.32593e-07
3951.46	9.04343e-07
3960.14	1.16051e-06
3968.82	1.2009e-06
