Infrared Spectrum: 1,2-Dimethylbenzene
Formula: 1,2-( C H3)2 C6 H4
CAS: 95-47-6
State: gas
Melting point: -25.18 C
Boiling point: 144.4 C
Class: IUPAC A
Instrument: IFS66V (Bruker)
Instrument parameters: KBr Beam Splitter; MCT Detector; Multipass cell
Sampling: 1 L/min Flow
Resolution: 0.9640
Temperature: 23 C
Pressure: 101.3 Pa
Origin: NIST, Analytical Chemistry Division, 301-975-3108
cm-1	(micromol/mol)-1m-1 (base 10)
575.17	3.12871e-06
583.848	2.74678e-06
592.526	1.14937e-06
601.205	2.39131e-08
609.883	-2.58153e-07
618.561	-1.48751e-07
627.239	-6.83634e-08
635.917	-6.91346e-08
644.595	-3.6016e-07
653.274	-2.51281e-08
661.952	-3.26001e-08
670.63	3.48143e-07
679.308	2.40713e-07
687.986	4.11011e-07
696.665	5.29096e-07
705.343	1.35955e-06
714.021	4.91518e-06
722.699	5.74479e-05
731.377	0.000223834
740.055	0.000803936
748.734	0.000238737
757.412	8.9493e-05
766.09	6.51073e-06
774.768	1.57676e-06
783.446	1.10138e-06
792.125	7.03056e-07
800.803	4.69598e-07
809.481	7.9108e-07
818.159	1.51305e-06
826.837	1.41155e-06
835.515	9.96741e-07
844.194	8.12632e-07
852.872	9.75489e-07
861.55	2.18056e-06
870.228	3.11317e-06
878.906	2.15164e-06
887.584	1.22549e-06
896.263	1.63799e-06
904.941	1.8011e-06
913.619	1.95676e-06
922.297	2.29541e-06
930.975	6.86768e-06
939.654	3.42494e-06
948.332	2.69316e-06
957.01	2.0084e-06
965.688	2.92581e-06
974.366	1.20637e-05
983.044	2.20782e-05
991.723	2.11894e-05
1000.4	9.68183e-06
1009.08	1.17407e-05
1017.76	1.57179e-05
1026.44	1.51743e-05
1035.11	1.17095e-05
1043.79	2.31032e-05
1052.47	3.3906e-05
1061.15	3.53001e-05
1069.83	5.34145e-06
1078.5	1.50962e-06
1087.18	1.18506e-06
1095.86	1.33051e-06
1104.54	3.36064e-06
1113.22	1.39758e-05
1121.9	1.70545e-05
1130.57	1.71581e-05
1139.25	1.09682e-05
1147.93	8.35428e-06
1156.61	5.19595e-06
1165.29	4.18191e-06
1173.96	3.50787e-06
1182.64	2.92064e-06
1191.32	2.303e-06
1200	2.01725e-06
1208.68	2.68908e-06
1217.36	7.29999e-06
1226.03	9.36229e-06
1234.71	6.04075e-06
1243.39	1.00267e-06
1252.07	8.40383e-07
1260.75	1.21888e-06
1269.42	1.49001e-06
1278.1	1.70654e-06
1286.78	1.98039e-06
1295.46	2.12965e-06
1304.14	1.63498e-06
1312.82	1.63151e-06
1321.49	2.22168e-06
1330.17	2.8419e-06
1338.85	3.20915e-06
1347.53	3.93538e-06
1356.21	4.74903e-06
1364.88	6.4568e-06
1373.56	1.35526e-05
1382.24	2.42105e-05
1390.92	2.15648e-05
1399.6	1.5576e-05
1408.28	7.0938e-06
1416.95	7.9603e-06
1425.63	1.14212e-05
1434.31	2.32091e-05
1442.99	4.53362e-05
1451.67	7.37555e-05
1460.34	0.000127004
1469.02	0.000133854
1477.7	0.000115358
1486.38	7.95438e-05
1495.06	0.00012402
1503.74	9.29075e-05
1512.41	3.90939e-05
1521.09	8.50108e-06
1529.77	7.80507e-06
1538.45	7.29036e-06
1547.13	7.22052e-06
1555.8	6.61576e-06
1564.48	5.87425e-06
1573.16	6.36389e-06
1581.84	1.22414e-05
1590.52	2.36656e-05
1599.2	2.48052e-05
1607.87	2.98946e-05
1616.55	2.19949e-05
1625.23	1.04139e-05
1633.91	2.57339e-06
1642.59	1.25283e-06
1651.26	1.10528e-06
1659.94	3.3666e-06
1668.62	5.64934e-06
1677.3	6.18678e-06
1685.98	2.39582e-06
1694.66	1.63543e-06
1703.33	2.51784e-06
1712.01	3.25258e-06
1720.69	3.24703e-06
1729.37	1.20753e-06
1738.05	1.10774e-06
1746.72	1.26278e-06
1755.4	1.56373e-06
1764.08	1.90887e-06
1772.76	3.62921e-06
1781.44	9.27688e-06
1790.12	9.51937e-06
1798.79	3.82551e-06
1807.47	8.44954e-07
1816.15	2.64174e-06
1824.83	5.6744e-06
1833.51	6.01156e-06
1842.18	1.0068e-06
1850.86	2.75693e-06
1859.54	5.04954e-06
1868.22	5.42699e-06
1876.9	4.14192e-06
1885.58	6.31509e-06
1894.25	1.26543e-05
1902.93	1.09873e-05
1911.61	6.67246e-06
1920.29	7.35207e-07
1928.97	2.19105e-06
1937.64	8.78789e-06
1946.32	6.63861e-06
1955	3.28983e-06
1963.68	1.11021e-06
1972.36	8.6287e-07
1981.04	6.84672e-07
1989.71	4.23598e-07
1998.39	1.85353e-07
2007.07	2.0386e-07
2015.75	1.46312e-08
2024.43	-7.67903e-08
2033.1	-1.17968e-07
2041.78	-4.19748e-08
2050.46	-6.30904e-08
2059.14	-2.16631e-07
2067.82	-3.54151e-07
2076.5	-3.44007e-07
2085.17	-1.3513e-07
2093.85	-3.03209e-07
2102.53	7.83891e-08
2111.21	3.95331e-07
2119.89	6.44818e-07
2128.56	1.68607e-07
2137.24	-3.72902e-07
2145.92	-2.60965e-07
2154.6	-1.45441e-07
2163.28	-1.3609e-07
2171.96	-1.7159e-07
2180.63	-1.66651e-07
2189.31	-8.71108e-08
2197.99	4.52191e-07
2206.67	9.44671e-07
2215.35	7.45782e-07
2224.02	4.03987e-07
2232.7	1.95315e-07
2241.38	2.4064e-08
2250.06	-2.19203e-07
2258.74	1.14463e-07
2267.42	7.14395e-07
2276.09	1.04463e-06
2284.77	7.87282e-07
2293.45	2.48049e-07
2302.13	1.09836e-07
2310.81	6.48862e-07
2319.48	1.03263e-06
2328.16	2.46466e-07
2336.84	4.87698e-07
2345.52	4.57033e-07
2354.2	-2.45793e-07
2362.88	-1.95424e-06
2371.55	-8.71333e-07
2380.23	-7.91622e-08
2388.91	1.08501e-07
2397.59	2.3345e-07
2406.27	8.87452e-07
2414.94	1.15687e-06
2423.62	1.64785e-06
2432.3	2.1221e-06
2440.98	2.3417e-06
2449.66	1.89501e-06
2458.34	1.20721e-06
2467.01	7.41513e-07
2475.69	5.26477e-07
2484.37	5.81455e-07
2493.05	6.10023e-07
2501.73	3.90665e-07
2510.4	3.27236e-07
2519.08	3.20648e-07
2527.76	-2.56137e-08
2536.44	-1.02699e-07
2545.12	-2.19796e-08
2553.8	3.53938e-07
2562.47	1.39997e-06
2571.15	2.74046e-06
2579.83	2.72171e-06
2588.51	1.73626e-06
2597.19	7.7671e-07
2605.86	9.48895e-07
2614.54	1.14018e-06
2623.22	7.39818e-07
2631.9	1.84084e-07
2640.58	-3.35623e-08
2649.26	-2.81711e-08
2657.93	1.11584e-07
2666.61	2.79188e-07
2675.29	5.32527e-07
2683.97	6.01014e-07
2692.65	5.83678e-07
2701.32	5.8671e-07
2710	1.17334e-06
2718.68	2.42728e-06
2727.36	4.75664e-06
2736.04	1.09917e-05
2744.72	1.13567e-05
2753.39	7.83964e-06
2762.07	3.56688e-06
2770.75	4.62978e-06
2779.43	5.09982e-06
2788.11	3.32414e-06
2796.78	3.22894e-06
2805.46	4.3046e-06
2814.14	6.27628e-06
2822.82	8.21589e-06
2831.5	1.06183e-05
2840.18	1.33446e-05
2848.85	1.98477e-05
2857.53	3.82047e-05
2866.21	7.11752e-05
2874.89	0.000107059
2883.57	0.000120633
2892.24	0.000111326
2900.92	9.16994e-05
2909.6	8.70604e-05
2918.28	0.000107821
2926.96	0.000163047
2935.63	0.000205823
2944.31	0.000202435
2952.99	0.000213779
2961.67	0.00014595
2970.35	0.00016189
2979.03	0.000166356
2987.7	0.000148187
2996.38	6.30797e-05
3005.06	4.86637e-05
3013.74	8.78235e-05
3022.42	0.000174652
3031.09	0.000209425
3039.77	0.000136904
3048.45	9.61852e-05
3057.13	0.000115228
3065.81	0.000143249
3074.49	0.000143224
3083.16	0.000120372
3091.84	7.56964e-05
3100.52	3.81865e-05
3109.2	2.89214e-05
3117.88	2.5017e-05
3126.55	1.7366e-05
3135.23	6.32155e-06
3143.91	4.11956e-06
3152.59	3.43009e-06
3161.27	3.34628e-06
3169.95	3.43866e-06
3178.62	2.71241e-06
3187.3	1.60925e-06
3195.98	1.12678e-06
3204.66	7.75281e-07
3213.34	4.5855e-07
3222.01	3.86065e-07
3230.69	2.65241e-07
3239.37	4.55816e-08
3248.05	7.13936e-08
3256.73	6.80523e-08
3265.41	-5.60021e-08
3274.08	2.07191e-08
3282.76	-2.61012e-09
3291.44	1.91237e-07
3300.12	6.67827e-08
3308.8	1.07752e-08
3317.47	1.6257e-07
3326.15	-6.70919e-08
3334.83	-5.92834e-08
3343.51	-4.11308e-08
3352.19	-1.12635e-07
3360.87	3.88426e-08
3369.54	1.49586e-07
3378.22	4.35647e-07
3386.9	2.54217e-07
3395.58	2.35113e-07
3404.26	-1.32751e-07
3412.93	-1.05378e-07
3421.61	-2.65268e-08
3430.29	6.22573e-08
3438.97	7.01004e-09
3447.65	1.26395e-08
3456.33	3.32197e-07
3465	4.65788e-07
3473.68	2.85545e-07
3482.36	2.2218e-07
3491.04	-5.32538e-08
3499.72	-1.12061e-07
3508.39	-1.26735e-07
3517.07	-1.82019e-07
3525.75	-1.81108e-07
3534.43	-2.36099e-07
3543.11	-1.37134e-07
3551.79	-2.31057e-07
3560.46	-1.21066e-07
3569.14	2.05627e-08
3577.82	7.607e-08
3586.5	-2.1562e-07
3595.18	1.72623e-07
3603.85	4.88877e-07
3612.53	2.2237e-07
3621.21	-9.80387e-09
3629.89	-6.35025e-07
3638.57	-1.40419e-07
3647.25	-2.86751e-07
3655.92	-3.20597e-07
3664.6	-1.26961e-07
3673.28	-2.04535e-07
3681.96	-1.62504e-07
3690.64	-3.62545e-07
3699.31	-2.30165e-07
3707.99	-3.25683e-07
3716.67	-3.6541e-07
3725.35	-3.47201e-07
3734.03	-3.21141e-07
3742.71	-8.33074e-08
3751.38	-1.29306e-08
3760.06	1.13612e-07
3768.74	1.44965e-07
3777.42	-5.09146e-08
3786.1	4.01504e-08
3794.77	2.01472e-07
3803.45	2.25434e-07
3812.13	2.40522e-07
3820.81	6.55841e-08
3829.49	8.59678e-07
3838.17	3.09937e-07
3846.84	1.06966e-06
3855.52	1.37477e-06
3864.2	1.60425e-06
3872.88	1.63165e-06
3881.56	1.79871e-06
3890.23	2.22872e-06
3898.91	2.4808e-06
3907.59	2.70009e-06
3916.27	1.59132e-06
3924.95	1.02287e-06
3933.63	7.37749e-07
3942.3	6.20198e-07
3950.98	8.16797e-07
3959.66	1.09857e-06
3968.34	1.11729e-06
