Infrared Spectrum: 1,2-Dimethylbenzene
Formula: 1,2-( C H3)2 C6 H4
CAS: 95-47-6
State: gas
Melting point: -25.18 C
Boiling point: 144.4 C
Class: IUPAC A
Instrument: IFS66V (Bruker)
Instrument parameters: KBr Beam Splitter; MCT Detector; Multipass cell
Sampling: 1 L/min Flow
Resolution: 0.1250
Temperature: 23 C
Pressure: 101.3 Pa
Origin: NIST, Analytical Chemistry Division, 301-975-3108
cm-1	(micromol/mol)-1m-1 (base 10)
575.05	-3.05205e-06
583.608	-3.03762e-06
592.165	-1.86526e-07
600.723	-1.87596e-07
609.281	-1.19871e-07
617.838	1.9598e-06
626.396	-6.19972e-08
634.954	2.65932e-06
643.511	-4.8035e-07
652.069	4.83937e-08
660.626	-3.41266e-07
669.184	1.05853e-06
677.742	-7.11867e-07
686.299	-6.5625e-07
694.857	-3.33739e-07
703.415	9.38505e-07
711.972	2.23177e-06
720.53	3.16466e-05
729.088	0.000191316
737.645	0.000235134
746.203	0.000205886
754.761	0.000156576
763.318	1.50866e-05
771.876	2.73302e-06
780.434	1.16174e-06
788.991	1.38898e-07
797.549	-3.49352e-07
806.106	5.46607e-07
814.664	3.96587e-07
823.222	1.94846e-06
831.779	9.1104e-07
840.337	8.40108e-07
848.895	4.98235e-07
857.452	1.73276e-06
866.01	2.78879e-06
874.568	2.51559e-06
883.125	2.02585e-06
891.683	1.44154e-06
900.241	1.40522e-06
908.798	2.18398e-06
917.356	1.8734e-06
925.914	3.16654e-06
934.471	2.66525e-06
943.029	3.64277e-06
951.586	2.21461e-06
960.144	2.01067e-06
968.702	4.71037e-06
977.259	1.72702e-05
985.817	2.31393e-05
994.375	1.75363e-05
1002.93	8.74761e-06
1011.49	1.36405e-05
1020.05	1.74394e-05
1028.61	1.34638e-05
1037.16	1.08315e-05
1045.72	3.21678e-05
1054.28	5.1976e-05
1062.84	2.94144e-05
1071.39	3.81567e-06
1079.95	1.31806e-06
1088.51	1.90298e-06
1097.07	1.48939e-06
1105.62	3.87454e-06
1114.18	1.57085e-05
1122.74	1.87074e-05
1131.3	1.63898e-05
1139.85	1.09089e-05
1148.41	8.07287e-06
1156.97	4.83035e-06
1165.53	4.15292e-06
1174.09	3.73328e-06
1182.64	2.93469e-06
1191.2	2.00653e-06
1199.76	1.73952e-06
1208.32	2.63602e-06
1216.87	6.84745e-06
1225.43	9.33016e-06
1233.99	6.63334e-06
1242.55	1.06593e-06
1251.1	7.02008e-07
1259.66	1.4285e-06
1268.22	1.56522e-06
1276.78	1.87639e-06
1285.33	2.01454e-06
1293.89	1.84987e-06
1302.45	1.46226e-06
1311.01	1.99934e-06
1319.57	2.2274e-06
1328.12	2.42725e-06
1336.68	3.1056e-06
1345.24	4.03932e-06
1353.8	3.58418e-06
1362.35	5.42175e-06
1370.91	1.09403e-05
1379.47	1.50577e-05
1388.03	2.39482e-05
1396.58	2.22439e-05
1405.14	8.07589e-06
1413.7	7.13531e-06
1422.26	8.81417e-06
1430.81	1.78938e-05
1439.37	3.12382e-05
1447.93	6.77475e-05
1456.49	9.61087e-05
1465.05	0.000143903
1473.6	0.000123387
1482.16	8.9738e-05
1490.72	9.44736e-05
1499.28	0.00011029
1507.83	9.34492e-05
1516.39	1.41274e-05
1524.95	8.51358e-06
1533.51	8.0847e-06
1542.06	6.58664e-06
1550.62	7.18866e-06
1559.18	6.41686e-06
1567.74	5.84085e-06
1576.29	5.93831e-06
1584.85	1.53901e-05
1593.41	2.63284e-05
1601.97	3.01464e-05
1610.53	2.52857e-05
1619.08	2.1423e-05
1627.64	6.81889e-06
1636.2	2.26905e-06
1644.76	9.98783e-07
1653.31	-1.56488e-06
1661.87	4.67558e-06
1670.43	6.94136e-06
1678.99	6.08397e-06
1687.54	2.58668e-06
1696.1	9.49799e-07
1704.66	2.75463e-06
1713.22	3.43031e-06
1721.77	3.35925e-06
1730.33	1.30371e-06
1738.89	9.52238e-07
1747.45	1.43714e-06
1756.01	1.42801e-06
1764.56	1.96236e-06
1773.12	4.55812e-06
1781.68	9.45239e-06
1790.24	9.6955e-06
1798.79	4.03991e-06
1807.35	7.35707e-07
1815.91	2.45793e-06
1824.47	5.81162e-06
1833.02	5.9046e-06
1841.58	1.22477e-06
1850.14	2.55712e-06
1858.7	4.67386e-06
1867.25	5.55022e-06
1875.81	3.91381e-06
1884.37	5.8665e-06
1892.93	1.16905e-05
1901.49	9.76767e-06
1910.04	8.53046e-06
1918.6	1.15551e-06
1927.16	1.33841e-06
1935.72	8.08978e-06
1944.27	1.27109e-05
1952.83	5.6795e-06
1961.39	1.29078e-06
1969.95	1.04103e-06
1978.5	8.03181e-07
1987.06	-1.99024e-08
1995.62	2.40075e-07
2004.18	1.53544e-07
2012.73	-9.66745e-09
2021.29	1.76206e-07
2029.85	1.5015e-08
2038.41	-1.87383e-08
2046.97	1.38582e-08
2055.52	-1.96392e-07
2064.08	-4.21301e-07
2072.64	-3.21158e-07
2081.2	-2.31288e-07
2089.75	-9.20855e-08
2098.31	-1.8958e-07
2106.87	4.30279e-07
2115.43	6.8506e-07
2123.98	2.39756e-07
2132.54	-1.57928e-07
2141.1	-7.01293e-07
2149.66	-1.25131e-07
2158.21	2.62258e-07
2166.77	-3.18087e-07
2175.33	-3.86389e-07
2183.89	-1.64887e-07
2192.45	3.45746e-07
2201	4.75133e-07
2209.56	8.17499e-07
2218.12	4.40367e-07
2226.68	3.22737e-07
2235.23	1.61991e-08
2243.79	-2.01771e-08
2252.35	-3.37715e-07
2260.91	1.53555e-07
2269.46	1.02119e-06
2278.02	8.64678e-07
2286.58	7.64811e-07
2295.14	-1.00421e-07
2303.69	1.61968e-07
2312.25	8.67226e-07
2320.81	3.35371e-07
2329.37	1.17794e-06
2337.93	1.21715e-06
2346.48	1.42418e-06
2355.04	2.73055e-07
2363.6	-4.91578e-07
2372.16	-1.32063e-07
2380.71	-4.75229e-07
2389.27	1.20453e-07
2397.83	2.09388e-07
2406.39	9.97863e-07
2414.94	1.3496e-06
2423.5	1.63532e-06
2432.06	2.14906e-06
2440.62	2.05471e-06
2449.17	1.69172e-06
2457.73	1.43495e-06
2466.29	9.09066e-07
2474.85	4.73931e-07
2483.41	2.37939e-07
2491.96	3.92782e-07
2500.52	5.48526e-07
2509.08	5.78076e-07
2517.64	5.43185e-07
2526.19	9.16435e-08
2534.75	2.03027e-07
2543.31	-9.97503e-08
2551.87	3.84055e-07
2560.42	1.15582e-06
2568.98	2.53972e-06
2577.54	2.54715e-06
2586.1	2.17557e-06
2594.65	8.77272e-07
2603.21	6.68006e-07
2611.77	9.25304e-07
2620.33	1.04621e-06
2628.89	-7.86274e-08
2637.44	-3.37652e-07
2646	3.23317e-07
2654.56	-1.45015e-07
2663.12	-1.29211e-07
2671.67	2.97021e-07
2680.23	4.02444e-07
2688.79	7.83959e-07
2697.35	4.62597e-07
2705.9	1.04339e-06
2714.46	1.40818e-06
2723.02	3.51859e-06
2731.58	6.9126e-06
2740.13	1.12807e-05
2748.69	1.2127e-05
2757.25	3.82114e-06
2765.81	4.36912e-06
2774.37	4.33665e-06
2782.92	3.73186e-06
2791.48	3.16487e-06
2800.04	3.68726e-06
2808.6	4.59149e-06
2817.15	6.92401e-06
2825.71	8.87993e-06
2834.27	1.19521e-05
2842.83	1.52992e-05
2851.38	2.32084e-05
2859.94	4.69563e-05
2868.5	8.13479e-05
2877.06	0.000113495
2885.61	0.000118887
2894.17	0.000108091
2902.73	9.02507e-05
2911.29	9.14831e-05
2919.85	0.000116099
2928.4	0.00017169
2936.96	0.000210792
2945.52	0.000198385
2954.08	0.000197892
2962.63	0.000146029
2971.19	0.000167497
2979.75	0.000157485
2988.31	0.000141793
2996.86	6.09389e-05
3005.42	4.98422e-05
3013.98	9.01142e-05
3022.54	0.000175593
3031.09	0.000209393
3039.65	0.000137496
3048.21	9.62505e-05
3056.77	0.000113804
3065.33	0.000141396
3073.88	0.000145897
3082.44	0.00012439
3091	8.04314e-05
3099.56	4.23087e-05
3108.11	2.89424e-05
3116.67	2.60266e-05
3125.23	1.9311e-05
3133.79	6.73801e-06
3142.34	4.22245e-06
3150.9	3.48828e-06
3159.46	3.41662e-06
3168.02	3.18729e-06
3176.57	2.55275e-06
3185.13	1.18728e-06
3193.69	9.75278e-07
3202.25	1.15048e-06
3210.81	1.0347e-06
3219.36	5.30535e-07
3227.92	4.75922e-07
3236.48	2.03113e-07
3245.04	-5.38196e-07
3253.59	2.37727e-07
3262.15	9.46876e-07
3270.71	-3.11405e-07
3279.27	-5.77903e-07
3287.82	4.97385e-07
3296.38	1.9633e-07
3304.94	-3.77093e-07
3313.5	9.69927e-07
3322.05	-1.90506e-07
3330.61	-1.50823e-07
3339.17	-8.05809e-08
3347.73	-9.90051e-07
3356.29	-1.02914e-06
3364.84	9.15554e-07
3373.4	2.08682e-07
3381.96	8.73181e-08
3390.52	1.06015e-07
3399.07	2.1373e-07
3407.63	3.92606e-07
3416.19	-6.28315e-07
3424.75	7.47568e-08
3433.3	-1.31203e-07
3441.86	6.74648e-08
3450.42	2.21113e-07
3458.98	2.31131e-07
3467.53	7.87882e-07
3476.09	6.31704e-09
3484.65	3.78677e-08
3493.21	6.98434e-07
3501.77	-1.67139e-08
3510.32	-3.69753e-07
3518.88	-9.43154e-08
3527.44	-3.53229e-07
3536	-4.40372e-07
3544.55	5.13039e-08
3553.11	-2.09061e-07
3561.67	-2.93783e-07
3570.23	3.98114e-07
3578.78	-3.93648e-07
3587.34	2.26017e-07
3595.9	2.30291e-07
3604.46	2.78686e-07
3613.01	5.0975e-07
3621.57	-2.74034e-07
3630.13	-9.92319e-08
3638.69	-2.63053e-07
3647.25	-5.34447e-08
3655.8	1.9977e-07
3664.36	-3.02258e-07
3672.92	-1.21868e-07
3681.48	-9.18945e-08
3690.03	-3.89039e-07
3698.59	-6.68697e-07
3707.15	-4.19275e-08
3715.71	-1.0745e-07
3724.26	-4.9278e-07
3732.82	-5.21109e-07
3741.38	-3.82215e-07
3749.94	-1.19647e-08
3758.49	6.29558e-07
3767.05	5.57044e-07
3775.61	7.3891e-08
3784.17	8.34839e-08
3792.73	1.02519e-07
3801.28	-1.45054e-07
3809.84	1.11288e-06
3818.4	5.0933e-07
3826.96	7.62583e-07
3835.51	1.03733e-06
3844.07	1.60511e-06
3852.63	1.12982e-06
3861.19	1.21664e-06
3869.74	1.54848e-06
3878.3	1.81475e-06
3886.86	2.79585e-06
3895.42	3.30677e-06
3903.97	3.23489e-06
3912.53	2.35807e-06
3921.09	1.47139e-06
3929.65	7.52197e-07
3938.21	7.32335e-07
3946.76	8.02513e-07
3955.32	7.55857e-07
3963.88	1.14433e-06
3972.44	2.68513e-07
