Infrared Spectrum: 1,2-Dimethylbenzene
Formula: 1,2-( C H3)2 C6 H4
CAS: 95-47-6
State: gas
Melting point: -25.18 C
Boiling point: 144.4 C
Class: IUPAC A
Instrument: IFS66V (Bruker)
Instrument parameters: KBr Beam Splitter; MCT Detector; Multipass cell
Sampling: 1 L/min Flow
Resolution: 0.4820
Temperature: 23 C
Pressure: 101.3 Pa
Origin: NIST, Analytical Chemistry Division, 301-975-3108
cm-1	(micromol/mol)-1m-1 (base 10)
575.17	2.64896e-06
583.848	3.61162e-06
592.526	1.04687e-06
601.205	9.1276e-08
609.883	-1.69243e-07
618.561	-5.72875e-07
627.239	-2.26488e-07
635.917	-8.33056e-10
644.595	-3.24403e-07
653.274	-1.01998e-07
661.952	-1.59105e-07
670.63	4.56902e-07
679.308	1.76813e-07
687.986	4.94348e-07
696.665	4.13847e-07
705.343	1.5635e-06
714.021	4.81477e-06
722.699	5.69864e-05
731.377	0.000224509
740.055	0.000759757
748.734	0.000239575
757.412	8.94263e-05
766.09	6.54633e-06
774.768	1.6325e-06
783.446	1.22679e-06
792.124	7.53634e-07
800.803	4.12123e-07
809.481	7.55769e-07
818.159	1.47018e-06
826.837	1.48879e-06
835.515	1.11648e-06
844.194	8.56591e-07
852.872	9.88927e-07
861.55	2.19806e-06
870.228	3.20844e-06
878.906	2.00474e-06
887.584	1.21052e-06
896.263	1.62767e-06
904.941	1.79431e-06
913.619	1.97981e-06
922.297	2.17111e-06
930.975	7.49173e-06
939.654	3.4452e-06
948.332	2.58742e-06
957.01	1.96767e-06
965.688	2.92595e-06
974.366	1.20102e-05
983.044	2.19671e-05
991.723	2.12099e-05
1000.4	9.57036e-06
1009.08	1.17122e-05
1017.76	1.56593e-05
1026.44	1.49758e-05
1035.11	1.17793e-05
1043.79	2.2937e-05
1052.47	3.29027e-05
1061.15	3.55481e-05
1069.83	5.35663e-06
1078.5	1.41563e-06
1087.18	1.15488e-06
1095.86	1.37993e-06
1104.54	3.26871e-06
1113.22	1.39701e-05
1121.9	1.71341e-05
1130.57	1.70806e-05
1139.25	1.09965e-05
1147.93	8.31165e-06
1156.61	5.21446e-06
1165.29	4.15068e-06
1173.96	3.61937e-06
1182.64	2.92279e-06
1191.32	2.30357e-06
1200	1.92287e-06
1208.68	2.73667e-06
1217.36	7.3478e-06
1226.03	9.43266e-06
1234.71	6.02682e-06
1243.39	1.00953e-06
1252.07	8.45057e-07
1260.75	1.20992e-06
1269.42	1.56554e-06
1278.1	1.68494e-06
1286.78	1.93663e-06
1295.46	2.13713e-06
1304.14	1.66943e-06
1312.82	1.65578e-06
1321.49	2.19428e-06
1330.17	2.80142e-06
1338.85	3.26033e-06
1347.53	3.89019e-06
1356.21	4.52107e-06
1364.88	6.43926e-06
1373.56	1.35634e-05
1382.24	2.429e-05
1390.92	2.09867e-05
1399.6	1.55804e-05
1408.28	7.04302e-06
1416.95	8.0655e-06
1425.63	1.14454e-05
1434.31	2.32878e-05
1442.99	4.54805e-05
1451.67	7.38424e-05
1460.34	0.000125278
1469.02	0.000133957
1477.7	0.000115396
1486.38	7.94269e-05
1495.06	0.000124784
1503.74	9.25746e-05
1512.41	3.87661e-05
1521.09	8.07193e-06
1529.77	7.8125e-06
1538.45	7.54305e-06
1547.13	7.30626e-06
1555.8	6.56997e-06
1564.48	5.96341e-06
1573.16	6.3908e-06
1581.84	1.22446e-05
1590.52	2.37023e-05
1599.2	2.47205e-05
1607.87	2.99376e-05
1616.55	2.16073e-05
1625.23	1.04068e-05
1633.91	2.5467e-06
1642.59	1.3022e-06
1651.26	1.20212e-06
1659.94	3.36358e-06
1668.62	5.78203e-06
1677.3	6.1841e-06
1685.98	2.42862e-06
1694.66	1.65967e-06
1703.33	2.46312e-06
1712.01	3.26678e-06
1720.69	3.24128e-06
1729.37	1.19489e-06
1738.05	1.08855e-06
1746.72	1.27091e-06
1755.4	1.56351e-06
1764.08	1.89465e-06
1772.76	2.99024e-06
1781.44	9.29668e-06
1790.12	9.64994e-06
1798.79	3.84018e-06
1807.47	8.23809e-07
1816.15	2.64001e-06
1824.83	5.65703e-06
1833.51	6.12537e-06
1842.18	9.78072e-07
1850.86	2.7753e-06
1859.54	4.93317e-06
1868.22	5.50869e-06
1876.9	4.09131e-06
1885.58	6.30867e-06
1894.25	1.26967e-05
1902.93	1.1e-05
1911.61	6.6949e-06
1920.29	6.90242e-07
1928.97	2.16688e-06
1937.64	8.83586e-06
1946.32	6.54963e-06
1955	3.27639e-06
1963.68	1.17666e-06
1972.36	8.20428e-07
1981.04	6.85574e-07
1989.71	4.47902e-07
1998.39	1.81752e-07
2007.07	2.59695e-07
2015.75	1.99224e-08
2024.43	-1.1299e-07
2033.1	-1.38311e-07
2041.78	-6.76503e-08
2050.46	-4.61528e-08
2059.14	-1.84866e-07
2067.82	-3.20457e-07
2076.5	-3.71721e-07
2085.17	-1.32536e-07
2093.85	-3.35138e-07
2102.53	8.95845e-08
2111.21	3.26567e-07
2119.89	7.21605e-07
2128.56	1.01147e-07
2137.24	-3.76367e-07
2145.92	-2.69052e-07
2154.6	-7.30143e-08
2163.28	-1.37252e-07
2171.96	-1.8603e-07
2180.63	-1.49163e-07
2189.31	-1.08868e-07
2197.99	3.86582e-07
2206.67	9.37681e-07
2215.35	7.38977e-07
2224.02	3.9495e-07
2232.7	1.85846e-07
2241.38	3.99576e-08
2250.06	-2.35677e-07
2258.74	1.19638e-07
2267.42	7.04178e-07
2276.09	1.05102e-06
2284.77	8.30259e-07
2293.45	2.28343e-07
2302.13	1.53835e-07
2310.81	6.78492e-07
2319.48	1.29534e-06
2328.16	9.45533e-07
2336.84	1.07151e-06
2345.52	7.06028e-07
2354.2	-5.73265e-07
2362.88	-3.83085e-06
2371.55	-1.4635e-06
2380.23	-9.85298e-09
2388.91	2.16013e-08
2397.59	2.35675e-07
2406.27	9.11607e-07
2414.94	1.15724e-06
2423.62	1.68546e-06
2432.3	2.13167e-06
2440.98	2.28835e-06
2449.66	1.83603e-06
2458.34	1.26832e-06
2467.01	7.70824e-07
2475.69	5.74163e-07
2484.37	5.7353e-07
2493.05	6.41357e-07
2501.73	3.81805e-07
2510.4	3.09806e-07
2519.08	3.27166e-07
2527.76	-4.35099e-08
2536.44	-1.39009e-07
2545.12	-6.41526e-08
2553.8	3.28297e-07
2562.47	1.3711e-06
2571.15	2.75239e-06
2579.83	2.77715e-06
2588.51	1.6718e-06
2597.19	7.53563e-07
2605.86	8.89657e-07
2614.54	1.17051e-06
2623.22	6.87182e-07
2631.9	1.36636e-07
2640.58	-5.13112e-09
2649.26	-2.82475e-08
2657.93	1.06548e-07
2666.61	2.92386e-07
2675.29	5.37079e-07
2683.97	5.85382e-07
2692.65	5.99526e-07
2701.32	5.06307e-07
2710	1.20119e-06
2718.68	2.41776e-06
2727.36	4.78489e-06
2736.04	1.09561e-05
2744.71	1.12603e-05
2753.39	7.80754e-06
2762.07	3.54965e-06
2770.75	4.63525e-06
2779.43	4.99868e-06
2788.11	3.27903e-06
2796.78	3.18068e-06
2805.46	4.29368e-06
2814.14	6.35303e-06
2822.82	8.17966e-06
2831.5	1.06386e-05
2840.17	1.33846e-05
2848.85	1.9759e-05
2857.53	3.81596e-05
2866.21	7.11714e-05
2874.89	0.000107119
2883.57	0.000120694
2892.24	0.000111472
2900.92	9.14839e-05
2909.6	8.68085e-05
2918.28	0.000107777
2926.96	0.0001632
2935.63	0.000206008
2944.31	0.00020253
2952.99	0.000214315
2961.67	0.000145592
2970.35	0.000161813
2979.03	0.000166301
2987.7	0.000148309
2996.38	6.30525e-05
3005.06	4.87039e-05
3013.74	8.78014e-05
3022.42	0.000174908
3031.09	0.000209705
3039.77	0.000136773
3048.45	9.61696e-05
3057.13	0.000115137
3065.81	0.000143337
3074.49	0.000143246
3083.16	0.000120388
3091.84	7.59812e-05
3100.52	3.80818e-05
3109.2	2.90341e-05
3117.88	2.49691e-05
3126.55	1.73136e-05
3135.23	6.31886e-06
3143.91	4.18039e-06
3152.59	3.36471e-06
3161.27	3.38348e-06
3169.95	3.48224e-06
3178.62	2.64851e-06
3187.3	1.61969e-06
3195.98	9.57191e-07
3204.66	7.3055e-07
3213.34	4.13003e-07
3222.01	3.94234e-07
3230.69	2.13612e-07
3239.37	-4.65165e-08
3248.05	1.03297e-07
3256.73	3.71019e-08
3265.41	1.72159e-08
3274.08	-9.60525e-08
3282.76	5.56947e-09
3291.44	2.11616e-07
3300.12	-1.08097e-08
3308.8	3.77058e-09
3317.47	1.95017e-07
3326.15	-1.07313e-07
3334.83	-6.75849e-08
3343.51	-8.90352e-09
3352.19	-3.04415e-07
3360.87	1.33054e-07
3369.54	1.75828e-07
3378.22	6.11885e-07
3386.9	5.50054e-08
3395.58	1.92689e-07
3404.26	-2.74126e-08
3412.93	-1.09181e-07
3421.61	-1.94899e-07
3430.29	9.87681e-08
3438.97	-5.25662e-09
3447.65	-1.01833e-07
3456.33	4.40629e-07
3465	4.89713e-07
3473.68	3.19041e-07
3482.36	2.50663e-07
3491.04	-7.08734e-08
3499.72	-2.0985e-07
3508.39	-6.32795e-09
3517.07	-1.81242e-07
3525.75	-2.08455e-07
3534.43	-3.75348e-07
3543.11	-1.03177e-07
3551.79	-2.60954e-07
3560.46	-1.23962e-07
3569.14	8.69089e-08
3577.82	-1.66538e-08
3586.5	-3.81727e-07
3595.18	5.77282e-08
3603.85	4.89331e-07
3612.53	3.4972e-08
3621.21	4.95541e-08
3629.89	-7.47939e-07
3638.57	-1.43322e-07
3647.25	-3.96658e-07
3655.92	-2.24332e-07
3664.6	-1.79998e-07
3673.28	-7.56553e-08
3681.96	-1.06229e-07
3690.64	-4.19038e-07
3699.31	-1.73343e-07
3707.99	-3.40933e-07
3716.67	-3.31509e-07
3725.35	-3.98712e-07
3734.03	-4.00327e-07
3742.71	-5.25007e-08
3751.38	1.65574e-08
3760.06	-3.2471e-08
3768.74	2.00437e-07
3777.42	1.0978e-07
3786.1	2.60903e-08
3794.77	2.33005e-07
3803.45	1.51898e-07
3812.13	1.68654e-07
3820.81	-1.17446e-08
3829.49	7.65349e-07
3838.17	2.56792e-07
3846.84	1.10806e-06
3855.52	1.34225e-06
3864.2	1.60681e-06
3872.88	1.66372e-06
3881.56	1.85259e-06
3890.23	2.20015e-06
3898.91	2.52616e-06
3907.59	2.82822e-06
3916.27	1.5765e-06
3924.95	9.3864e-07
3933.63	7.66301e-07
3942.3	6.13311e-07
3950.98	8.04258e-07
3959.66	1.05849e-06
3968.34	1.01856e-06
