Infrared Spectrum: 1,2-Dimethylbenzene
Formula: 1,2-( C H3)2 C6 H4
CAS: 95-47-6
State: gas
Melting point: -25.18 C
Boiling point: 144.4 C
Class: IUPAC A
Instrument: IFS66V (Bruker)
Instrument parameters: KBr Beam Splitter; MCT Detector; Multipass cell
Sampling: 1 L/min Flow
Resolution: 1.9290
Temperature: 23 C
Pressure: 101.3 Pa
Origin: NIST, Analytical Chemistry Division, 301-975-3108
cm-1	(micromol/mol)-1m-1 (base 10)
575.652	2.89014e-06
584.33	2.91815e-06
593.008	1.01036e-06
601.687	1.59734e-07
610.365	-4.04785e-07
619.043	-3.91063e-08
627.721	-5.29045e-08
636.399	5.38067e-08
645.077	-3.20246e-07
653.756	1.0108e-07
662.434	-9.58942e-08
671.112	4.21108e-07
679.79	2.78492e-08
688.468	5.59026e-07
697.147	6.60146e-07
705.825	1.5978e-06
714.503	5.37136e-06
723.181	6.6271e-05
731.859	0.000224459
740.537	0.00110795
749.216	0.000241798
757.894	7.92803e-05
766.572	6.34457e-06
775.25	1.26432e-06
783.928	1.12988e-06
792.607	6.2509e-07
801.285	6.64113e-07
809.963	6.65777e-07
818.641	1.62759e-06
827.319	1.25082e-06
835.997	1.16436e-06
844.676	6.2871e-07
853.354	1.13288e-06
862.032	2.29223e-06
870.71	3.07369e-06
879.388	2.11605e-06
888.066	1.30889e-06
896.745	1.66114e-06
905.423	1.90789e-06
914.101	1.87561e-06
922.779	2.4063e-06
931.457	6.39095e-06
940.136	3.45925e-06
948.814	2.58513e-06
957.492	2.08817e-06
966.17	3.0713e-06
974.848	1.30043e-05
983.526	2.30163e-05
992.205	2.05964e-05
1000.88	9.53231e-06
1009.56	1.21745e-05
1018.24	1.59372e-05
1026.92	1.47618e-05
1035.6	1.15376e-05
1044.27	2.53507e-05
1052.95	3.99009e-05
1061.63	3.38507e-05
1070.31	4.80241e-06
1078.99	1.44646e-06
1087.66	1.18009e-06
1096.34	1.27667e-06
1105.02	3.61212e-06
1113.7	1.47209e-05
1122.38	1.77123e-05
1131.06	1.67331e-05
1139.73	1.05606e-05
1148.41	8.31647e-06
1157.09	5.01396e-06
1165.77	4.19798e-06
1174.45	3.41991e-06
1183.12	2.96794e-06
1191.8	2.26469e-06
1200.48	2.02404e-06
1209.16	2.71591e-06
1217.84	7.54712e-06
1226.52	9.08004e-06
1235.19	5.61521e-06
1243.87	9.08135e-07
1252.55	8.83891e-07
1261.23	1.24367e-06
1269.91	1.47645e-06
1278.58	1.68273e-06
1287.26	2.04575e-06
1295.94	2.0727e-06
1304.62	1.61863e-06
1313.3	1.69921e-06
1321.98	2.29171e-06
1330.65	2.86802e-06
1339.33	3.2791e-06
1348.01	3.9486e-06
1356.69	4.88952e-06
1365.37	6.69504e-06
1374.04	1.40007e-05
1382.72	2.47706e-05
1391.4	2.07209e-05
1400.08	1.44671e-05
1408.76	7.11262e-06
1417.44	8.00067e-06
1426.11	1.19878e-05
1434.79	2.36408e-05
1443.47	4.76616e-05
1452.15	7.58178e-05
1460.83	0.00013066
1469.5	0.000132304
1478.18	0.000110946
1486.86	8.02438e-05
1495.54	0.000121455
1504.22	9.48726e-05
1512.9	3.46833e-05
1521.57	8.61276e-06
1530.25	7.76774e-06
1538.93	7.04185e-06
1547.61	7.14684e-06
1556.29	6.49561e-06
1564.96	5.80964e-06
1573.64	6.52255e-06
1582.32	1.26399e-05
1591	2.41508e-05
1599.68	2.62574e-05
1608.36	2.92837e-05
1617.03	2.20302e-05
1625.71	9.58574e-06
1634.39	2.30468e-06
1643.07	1.20889e-06
1651.75	7.26863e-07
1660.42	3.63127e-06
1669.1	5.85504e-06
1677.78	6.06834e-06
1686.46	2.35094e-06
1695.14	1.27274e-06
1703.82	2.57051e-06
1712.49	3.35294e-06
1721.17	3.20384e-06
1729.85	1.18365e-06
1738.53	1.09759e-06
1747.21	1.28455e-06
1755.88	1.54078e-06
1764.56	1.9826e-06
1773.24	4.12471e-06
1781.92	9.37753e-06
1790.6	9.32968e-06
1799.28	3.52165e-06
1807.95	8.3549e-07
1816.63	2.93902e-06
1825.31	5.62324e-06
1833.99	6.00079e-06
1842.67	9.08213e-07
1851.34	2.98504e-06
1860.02	5.23015e-06
1868.7	5.30542e-06
1877.38	4.13557e-06
1886.06	6.53523e-06
1894.74	1.29102e-05
1903.41	1.16645e-05
1912.09	6.06236e-06
1920.77	6.84414e-07
1929.45	2.48012e-06
1938.13	8.7491e-06
1946.8	7.13603e-06
1955.48	2.87165e-06
1964.16	1.11957e-06
1972.84	8.75038e-07
1981.52	6.75619e-07
1990.2	4.16848e-07
1998.87	2.17675e-07
2007.55	3.33041e-08
2016.23	6.57532e-09
2024.91	-9.00028e-08
2033.59	-1.06306e-07
2042.26	-3.69855e-08
2050.94	-8.17341e-08
2059.62	-2.49619e-07
2068.3	-3.80641e-07
2076.98	-3.12702e-07
2085.66	-9.87226e-08
2094.33	-2.83939e-07
2103.01	1.37232e-07
2111.69	4.17878e-07
2120.37	5.57647e-07
2129.05	1.95877e-07
2137.72	-3.80958e-07
2146.4	-2.56665e-07
2155.08	-1.61691e-07
2163.76	-1.33658e-07
2172.44	-1.38929e-07
2181.12	-2.21857e-07
2189.79	-5.40777e-08
2198.47	4.85317e-07
2207.15	9.14108e-07
2215.83	7.11274e-07
2224.51	3.75925e-07
2233.18	1.98546e-07
2241.86	-6.78995e-09
2250.54	-2.05407e-07
2259.22	1.21466e-07
2267.9	7.56284e-07
2276.58	1.02639e-06
2285.25	7.60506e-07
2293.93	2.76476e-07
2302.61	1.14774e-07
2311.29	7.61475e-07
2319.97	9.09306e-07
2328.64	5.94398e-08
2337.32	9.70692e-08
2346	4.56551e-07
2354.68	-2.58617e-07
2363.36	-1.75265e-06
2372.04	-7.86749e-07
2380.71	-1.09138e-07
2389.39	1.21408e-07
2398.07	2.5278e-07
2406.75	8.96125e-07
2415.43	1.16923e-06
2424.1	1.65374e-06
2432.78	2.10821e-06
2441.46	2.38353e-06
2450.14	1.89488e-06
2458.82	1.1254e-06
2467.5	7.18102e-07
2476.17	5.59083e-07
2484.85	5.8604e-07
2493.53	5.48871e-07
2502.21	3.9315e-07
2510.89	3.48267e-07
2519.56	2.62704e-07
2528.24	-3.67691e-08
2536.92	-1.21473e-07
2545.6	3.08376e-08
2554.28	3.89308e-07
2562.96	1.44594e-06
2571.63	2.81466e-06
2580.31	2.70686e-06
2588.99	1.71668e-06
2597.67	7.77341e-07
2606.35	9.65783e-07
2615.02	1.09344e-06
2623.7	7.18227e-07
2632.38	1.96414e-07
2641.06	-7.22358e-08
2649.74	-2.67378e-08
2658.42	1.27067e-07
2667.09	2.76898e-07
2675.77	5.2375e-07
2684.45	6.16696e-07
2693.13	5.79074e-07
2701.81	6.32499e-07
2710.48	1.19286e-06
2719.16	2.57751e-06
2727.84	4.95643e-06
2736.52	1.11746e-05
2745.2	1.11803e-05
2753.88	7.31988e-06
2762.55	3.62597e-06
2771.23	4.81641e-06
2779.91	4.9865e-06
2788.59	3.35608e-06
2797.27	3.29782e-06
2805.94	4.38328e-06
2814.62	6.35248e-06
2823.3	8.47696e-06
2831.98	1.07518e-05
2840.66	1.36747e-05
2849.34	2.04608e-05
2858.01	3.99372e-05
2866.69	7.34298e-05
2875.37	0.000108371
2884.05	0.000119845
2892.73	0.000110572
2901.4	9.13666e-05
2910.08	8.80423e-05
2918.76	0.00011018
2927.44	0.000165864
2936.12	0.000207631
2944.8	0.000200834
2953.47	0.00020643
2962.15	0.000145717
2970.83	0.000165161
2979.51	0.000161413
2988.19	0.000142623
2996.86	6.09262e-05
3005.54	4.95528e-05
3014.22	9.27057e-05
3022.9	0.000175486
3031.58	0.000207413
3040.26	0.00013424
3048.93	9.57404e-05
3057.61	0.000117221
3066.29	0.000144207
3074.97	0.000140854
3083.65	0.000117582
3092.32	7.24459e-05
3101	3.64528e-05
3109.68	2.917e-05
3118.36	2.4982e-05
3127.04	1.64506e-05
3135.72	6.01227e-06
3144.39	4.00641e-06
3153.07	3.38237e-06
3161.75	3.35515e-06
3170.43	3.3823e-06
3179.11	2.62102e-06
3187.78	1.58702e-06
3196.46	1.10621e-06
3205.14	7.73491e-07
3213.82	4.84373e-07
3222.5	4.4521e-07
3231.18	2.93985e-07
3239.85	1.39237e-07
3248.53	5.27135e-08
3257.21	7.4373e-08
3265.89	-1.22692e-07
3274.57	-9.28367e-09
3283.24	4.16092e-08
3291.92	2.37134e-07
3300.6	1.11673e-07
3309.28	2.5541e-08
3317.96	1.65589e-07
3326.64	-7.05606e-08
3335.31	-1.22032e-07
3343.99	-6.61425e-08
3352.67	-9.72311e-08
3361.35	5.96508e-08
3370.03	1.18778e-07
3378.7	3.71227e-07
3387.38	3.01948e-07
3396.06	2.27148e-07
3404.74	-8.84204e-08
3413.42	-1.01826e-07
3422.1	-6.62934e-08
3430.77	7.66939e-08
3439.45	2.96844e-08
3448.13	1.81601e-07
3456.81	3.84714e-07
3465.49	4.05848e-07
3474.16	2.17093e-07
3482.84	1.92303e-07
3491.52	-1.10416e-07
3500.2	-1.66569e-07
3508.88	-1.67803e-07
3517.56	-1.78381e-07
3526.23	-2.13059e-07
3534.91	-2.24436e-07
3543.59	-1.30373e-07
3552.27	-1.20358e-07
3560.95	-1.57393e-07
3569.62	3.53503e-08
3578.3	7.53279e-08
3586.98	-1.44215e-07
3595.66	1.39606e-07
3604.34	4.03057e-07
3613.02	2.95526e-07
3621.69	-8.17868e-08
3630.37	-4.45158e-07
3639.05	-1.29262e-07
3647.73	-2.74283e-07
3656.41	-2.80129e-07
3665.08	-1.16906e-07
3673.76	-3.29979e-07
3682.44	-1.87145e-07
3691.12	-3.11976e-07
3699.8	-2.53431e-07
3708.48	-3.4761e-07
3717.15	-3.39156e-07
3725.83	-3.27797e-07
3734.51	-4.14626e-07
3743.19	-2.30064e-07
3751.87	-1.85992e-07
3760.54	2.901e-07
3769.22	-2.72253e-08
3777.9	-8.32765e-08
3786.58	6.22246e-08
3795.26	1.76406e-07
3803.94	2.82457e-07
3812.61	2.64721e-07
3821.29	9.69492e-08
3829.97	8.798e-07
3838.65	6.18026e-07
3847.33	1.14388e-06
3856	1.41315e-06
3864.68	1.53477e-06
3873.36	1.56729e-06
3882.04	1.8354e-06
3890.72	2.17075e-06
3899.4	2.56908e-06
3908.07	2.61818e-06
3916.75	1.51143e-06
3925.43	9.85782e-07
3934.11	7.58743e-07
3942.79	6.0901e-07
3951.46	9.24696e-07
3960.14	1.16756e-06
3968.82	1.22625e-06
