Infrared Spectrum: 1,2-Dimethylbenzene
Formula: 1,2-( C H3)2 C6 H4
CAS: 95-47-6
State: gas
Melting point: -25.18 C
Boiling point: 144.4 C
Class: IUPAC A
Instrument: IFS66V (Bruker)
Instrument parameters: KBr Beam Splitter; MCT Detector; Multipass cell
Sampling: 1 L/min Flow
Resolution: 0.1250
Temperature: 23 C
Pressure: 101.3 Pa
Origin: NIST, Analytical Chemistry Division, 301-975-3108
cm-1	(micromol/mol)-1m-1 (base 10)
575.05	-1.44581e-06
583.608	-7.97704e-07
592.165	7.42831e-07
600.723	-1.12564e-06
609.281	-6.87464e-07
617.838	5.05432e-07
626.396	8.32687e-07
634.954	1.25743e-06
643.511	-7.86001e-08
652.069	-4.58225e-07
660.626	2.16031e-07
669.184	2.33132e-07
677.742	-2.12424e-07
686.299	-9.22291e-08
694.857	5.42732e-07
703.415	1.18248e-06
711.972	2.48625e-06
720.53	3.1379e-05
729.088	0.000192042
737.645	0.000234775
746.203	0.000205356
754.761	0.000155931
763.318	1.5368e-05
771.876	2.50306e-06
780.434	1.23737e-06
788.991	4.27632e-07
797.549	2.64857e-07
806.106	7.59353e-07
814.664	1.10346e-06
823.222	1.8896e-06
831.779	8.79895e-07
840.337	8.05631e-07
848.895	7.30274e-07
857.452	1.70012e-06
866.01	2.6138e-06
874.568	2.46971e-06
883.125	1.59141e-06
891.683	1.33412e-06
900.241	1.91674e-06
908.798	2.06748e-06
917.356	2.10366e-06
925.914	2.57705e-06
934.471	3.06462e-06
943.029	3.49875e-06
951.586	2.19034e-06
960.144	2.10026e-06
968.702	4.47629e-06
977.259	1.73058e-05
985.817	2.29739e-05
994.375	1.76798e-05
1002.93	8.99675e-06
1011.49	1.34082e-05
1020.05	1.74661e-05
1028.61	1.37547e-05
1037.16	1.11778e-05
1045.72	3.20369e-05
1054.28	5.23846e-05
1062.84	2.9323e-05
1071.39	3.90772e-06
1079.95	1.2109e-06
1088.51	1.619e-06
1097.07	1.3874e-06
1105.62	3.76719e-06
1114.18	1.53129e-05
1122.74	1.84221e-05
1131.3	1.66362e-05
1139.85	1.05736e-05
1148.41	8.36651e-06
1156.97	4.94273e-06
1165.53	4.08624e-06
1174.09	3.59395e-06
1182.64	2.89005e-06
1191.2	2.14198e-06
1199.76	2.00527e-06
1208.32	2.62264e-06
1216.87	7.03444e-06
1225.43	9.30604e-06
1233.99	6.85511e-06
1242.55	1.3615e-06
1251.1	8.23887e-07
1259.66	1.24649e-06
1268.22	1.27059e-06
1276.78	1.76107e-06
1285.33	2.00524e-06
1293.89	2.04673e-06
1302.45	1.50137e-06
1311.01	1.88694e-06
1319.57	2.12076e-06
1328.12	2.47518e-06
1336.68	3.07936e-06
1345.24	4.13994e-06
1353.8	3.36475e-06
1362.35	5.43531e-06
1370.91	1.08793e-05
1379.47	1.47709e-05
1388.03	2.33904e-05
1396.58	2.21862e-05
1405.14	7.72252e-06
1413.7	7.14741e-06
1422.26	9.03013e-06
1430.81	1.78468e-05
1439.37	3.10594e-05
1447.93	6.81193e-05
1456.49	9.6338e-05
1465.05	0.00014401
1473.6	0.000123292
1482.16	8.94976e-05
1490.72	9.4511e-05
1499.28	0.000110201
1507.83	9.36218e-05
1516.39	1.42005e-05
1524.95	8.47536e-06
1533.51	7.99891e-06
1542.06	6.44327e-06
1550.62	7.12221e-06
1559.18	6.22432e-06
1567.74	5.79608e-06
1576.29	6.09258e-06
1584.85	1.51834e-05
1593.41	2.61829e-05
1601.97	3.033e-05
1610.53	2.52098e-05
1619.08	2.12961e-05
1627.64	6.73016e-06
1636.2	2.08172e-06
1644.76	9.97774e-07
1653.31	-1.34547e-06
1661.87	4.42803e-06
1670.43	7.01802e-06
1678.99	5.91703e-06
1687.54	2.51066e-06
1696.1	7.22638e-07
1704.66	2.7323e-06
1713.22	3.50682e-06
1721.77	3.28285e-06
1730.33	1.2813e-06
1738.89	1.01837e-06
1747.45	1.26688e-06
1756.01	1.46094e-06
1764.56	1.94028e-06
1773.12	4.47469e-06
1781.68	9.28652e-06
1790.24	9.58786e-06
1798.79	3.96045e-06
1807.35	8.41789e-07
1815.91	2.55405e-06
1824.47	5.86737e-06
1833.02	5.79553e-06
1841.58	1.18557e-06
1850.14	2.43508e-06
1858.7	4.48478e-06
1867.25	5.4973e-06
1875.81	4.06755e-06
1884.37	5.82382e-06
1892.93	1.16593e-05
1901.49	9.72262e-06
1910.04	8.48878e-06
1918.6	1.17913e-06
1927.16	1.24617e-06
1935.72	7.88668e-06
1944.27	1.26738e-05
1952.83	5.94298e-06
1961.39	1.05465e-06
1969.95	1.02021e-06
1978.5	6.9932e-07
1987.06	4.16306e-07
1995.62	3.13622e-07
2004.18	1.48075e-07
2012.73	-5.42323e-08
2021.29	-2.22979e-08
2029.85	7.67721e-08
2038.41	-7.50078e-08
2046.97	-2.10083e-09
2055.52	-1.48051e-07
2064.08	-4.8061e-07
2072.64	-4.13607e-07
2081.2	-2.34816e-07
2089.75	-1.61829e-07
2098.31	-1.75495e-07
2106.87	2.06109e-07
2115.43	7.51773e-07
2123.98	2.72648e-07
2132.54	-1.2293e-07
2141.1	-5.9055e-07
2149.66	-1.12759e-07
2158.21	3.2503e-07
2166.77	-1.78671e-07
2175.33	-3.52175e-07
2183.89	-1.97709e-07
2192.45	7.34745e-08
2201	6.56907e-07
2209.56	9.30038e-07
2218.12	6.52763e-07
2226.68	4.1368e-07
2235.23	1.70518e-07
2243.79	-4.69167e-08
2252.35	-3.02476e-07
2260.91	1.65178e-07
2269.46	9.51388e-07
2278.02	9.44276e-07
2286.58	7.37835e-07
2295.14	8.64614e-08
2303.69	1.47358e-07
2312.25	1.01305e-06
2320.81	5.0732e-07
2329.37	1.00404e-06
2337.93	7.79026e-07
2346.48	1.11414e-06
2355.04	5.42969e-07
2363.6	-2.70088e-07
2372.16	-1.09672e-07
2380.71	-3.47606e-07
2389.27	2.55659e-07
2397.83	2.00426e-07
2406.39	9.57451e-07
2414.94	1.20961e-06
2423.5	1.71787e-06
2432.06	2.18187e-06
2440.62	2.30654e-06
2449.17	1.88572e-06
2457.73	1.36119e-06
2466.29	8.03354e-07
2474.85	5.01378e-07
2483.41	4.98526e-07
2491.96	5.7928e-07
2500.52	4.41303e-07
2509.08	4.72061e-07
2517.64	4.69065e-07
2526.19	-4.30334e-08
2534.75	-3.71747e-08
2543.31	-1.92425e-07
2551.87	2.31433e-07
2560.42	1.04257e-06
2568.98	2.48807e-06
2577.54	2.74915e-06
2586.1	2.27566e-06
2594.65	9.77535e-07
2603.21	7.79075e-07
2611.77	9.57809e-07
2620.33	9.95499e-07
2628.89	1.68328e-07
2637.44	-1.752e-07
2646	1.60338e-07
2654.56	-7.55971e-08
2663.12	1.81308e-08
2671.67	4.85604e-07
2680.23	4.93535e-07
2688.79	5.49462e-07
2697.35	5.50668e-07
2705.9	1.15454e-06
2714.46	1.61771e-06
2723.02	3.58149e-06
2731.58	6.9708e-06
2740.13	1.14484e-05
2748.69	1.1962e-05
2757.25	4.06968e-06
2765.81	4.06979e-06
2774.37	4.44153e-06
2782.92	3.90887e-06
2791.48	3.17426e-06
2800.04	3.56654e-06
2808.6	4.6936e-06
2817.15	6.88975e-06
2825.71	9.18749e-06
2834.27	1.14011e-05
2842.83	1.52186e-05
2851.38	2.32489e-05
2859.94	4.67285e-05
2868.5	8.14272e-05
2877.06	0.000113054
2885.61	0.000118675
2894.17	0.000108174
2902.73	9.04217e-05
2911.29	9.13157e-05
2919.85	0.000115803
2928.4	0.000171648
2936.96	0.000210608
2945.52	0.000198395
2954.08	0.000197814
2962.63	0.000146058
2971.19	0.000167571
2979.75	0.000157718
2988.31	0.000141636
2996.86	6.07339e-05
3005.42	4.96112e-05
3013.98	9.00592e-05
3022.54	0.000175482
3031.09	0.000209837
3039.65	0.000137407
3048.21	9.624e-05
3056.77	0.000113804
3065.33	0.000141644
3073.88	0.000145977
3082.44	0.000124212
3091	8.08102e-05
3099.56	4.23781e-05
3108.11	2.87015e-05
3116.67	2.57615e-05
3125.23	1.96648e-05
3133.79	7.08594e-06
3142.34	4.22321e-06
3150.9	3.27945e-06
3159.46	3.21128e-06
3168.02	3.52627e-06
3176.57	2.79011e-06
3185.13	1.6029e-06
3193.69	1.22267e-06
3202.25	1.19314e-06
3210.81	8.45672e-07
3219.36	4.1187e-07
3227.92	4.11874e-07
3236.48	2.59508e-07
3245.04	-3.45156e-07
3253.59	2.20549e-07
3262.15	5.02862e-07
3270.71	-1.04598e-07
3279.27	-2.18996e-07
3287.82	3.93564e-07
3296.38	3.32113e-07
3304.94	1.38036e-08
3313.5	5.35408e-07
3322.05	-1.67975e-08
3330.61	-3.58594e-07
3339.17	2.27672e-08
3347.73	-5.65654e-07
3356.29	-7.61372e-07
3364.84	4.6675e-07
3373.4	1.10516e-07
3381.96	1.42156e-07
3390.52	3.37608e-07
3399.07	-1.04818e-07
3407.63	2.38605e-07
3416.19	-1.78529e-07
3424.75	1.007e-07
3433.3	1.36043e-07
3441.86	1.04992e-07
3450.42	2.53267e-07
3458.98	3.48176e-07
3467.53	6.76993e-07
3476.09	-8.53555e-08
3484.65	3.13422e-07
3493.21	2.62815e-07
3501.77	-7.81927e-08
3510.32	-1.93025e-07
3518.88	-1.81341e-07
3527.44	-2.62691e-07
3536	-3.49865e-07
3544.55	1.79536e-07
3553.11	-1.13636e-07
3561.67	-2.09923e-07
3570.23	2.49549e-07
3578.78	-2.61165e-07
3587.34	2.31037e-08
3595.9	1.68799e-07
3604.46	3.91895e-07
3613.01	5.63764e-07
3621.57	-2.16042e-07
3630.13	-1.73936e-07
3638.69	-2.87544e-07
3647.25	-3.42768e-07
3655.8	-1.00656e-07
3664.36	-2.22499e-07
3672.92	-1.34308e-07
3681.48	-6.16898e-08
3690.03	-5.73577e-07
3698.59	-5.25044e-07
3707.15	-9.10741e-08
3715.71	-5.12111e-08
3724.26	-3.05663e-07
3732.82	-3.40824e-07
3741.38	-3.2136e-07
3749.94	-8.86295e-08
3758.49	3.10952e-07
3767.05	3.80276e-07
3775.61	-5.59494e-09
3784.17	-6.9291e-08
3792.73	5.976e-08
3801.28	-7.8314e-07
3809.84	7.53525e-07
3818.4	4.6627e-07
3826.96	7.04196e-07
3835.51	1.01731e-06
3844.07	1.52045e-06
3852.63	1.20196e-06
3861.19	1.54647e-06
3869.74	1.71862e-06
3878.3	1.83926e-06
3886.86	2.39766e-06
3895.42	3.00986e-06
3903.97	2.87341e-06
3912.53	2.22114e-06
3921.09	1.27316e-06
3929.65	6.21504e-07
3938.21	5.0865e-07
3946.76	8.5989e-07
3955.32	8.90228e-07
3963.88	1.19938e-06
3972.44	6.73606e-07
