Infrared Spectrum: PHENOL, 2-METHYL-
Formula: C7 H8 O
CAS: 95-48-7
State: SOLUTION (10% IN CCl4 FOR 3800-1333, 10% IN CS2 FOR 1333-450 CM^-^1)
Class: COBLENTZ III
Instrument: DOW KBr FOREPRISM-GRATING
Instrument parameters: BLAZED AT 3.5, 12.0, 20.0 MICRON, CHANGED AT 5.0, 7.5, 14.9 MICRON
Sampling: TRANSMISSION
Path length: 0.011, 0.011 CM
Resolution: 4
Origin: DOW CHEMICAL COMPANY
1/CM	TRANSMITTANCE
438.225	0.821
446.926	0.821
455.626	0.827
464.327	0.835
473.028	0.843
481.729	0.844
490.429	0.843
499.13	0.842
507.831	0.836
516.531	0.819
525.232	0.693
533.933	0.804
542.634	0.81
551.334	0.847
560.035	0.851
568.736	0.851
577.436	0.834
586.137	0.82
594.838	0.85
603.539	0.854
612.239	0.855
620.94	0.854
629.641	0.851
638.341	0.839
647.042	0.819
655.743	0.823
664.444	0.863
673.144	0.878
681.845	0.876
690.546	0.874
699.246	0.838
707.947	0.338
716.648	0.733
725.348	0.765
734.049	0.696
742.75	0.3099
751.451	0.008
760.151	0.27
768.852	0.746
777.553	0.846
786.253	0.877
794.954	0.903
803.655	0.889
812.356	0.869
821.056	0.87
829.757	0.817
838.458	0.4359
847.158	0.3071
855.859	0.711
864.56	0.794
873.261	0.839
881.961	0.873
890.662	0.921
899.363	0.942
908.063	0.946
916.764	0.925
925.465	0.785
934.166	0.91
942.866	0.938
951.567	0.934
960.268	0.922
968.968	0.893
977.669	0.805
986.37	0.753
995.071	0.91
1003.77	0.923
1012.47	0.907
1021.17	0.862
1029.87	0.74
1038.57	0.472
1047.27	0.7101
1055.98	0.872
1064.68	0.863
1073.38	0.821
1082.08	0.715
1090.78	0.582
1099.48	0.114
1108.18	0.137
1116.88	0.731
1125.58	0.834
1134.28	0.804
1142.98	0.6689
1151.68	0.398
1160.38	0.2509
1169.08	0.1141
1177.79	0.272
1186.49	0.387
1195.19	0.315
1203.89	0.097
1212.59	0.268
1221.29	0.248
1229.99	0.289
1238.69	0.205
1247.39	0.18
1256.09	0.054
1264.79	0.3442
1273.49	0.677
1282.19	0.763
1290.89	0.738
1299.6	0.4589
1308.3	0.736
1317	0.6229
1325.7	0.1789
1334.4	0.461
1343.1	0.522
1351.8	0.568
1360.5	0.643
1369.2	0.693
1377.9	0.704
1386.6	0.729
1395.3	0.82
1404	0.825
1412.7	0.843
1421.41	0.823
1430.11	0.759
1438.81	0.522
1447.51	0.405
1456.21	0.3649
1464.91	0.104
1473.61	0.349
1482.31	0.372
1491.01	0.106
1499.71	0.146
1508.41	0.157
1517.11	0.2321
1525.81	0.598
1534.51	0.583
1543.22	0.503
1551.92	0.478
1560.62	0.537
1569.32	0.568
1578.02	0.507
1586.72	0.2269
1595.42	0.142
1604.12	0.4321
1612.82	0.511
1621.52	0.804
1630.22	0.9
1638.92	0.957
1647.62	0.983
1656.32	0.975
1665.03	0.959
1673.73	0.937
1682.43	0.929
1691.13	0.942
1699.83	0.96
1708.53	0.961
1717.23	0.963
1725.93	0.96
1734.63	0.957
1743.33	0.96
1752.03	0.955
1760.73	0.941
1769.43	0.922
1778.13	0.922
1786.84	0.937
1795.54	0.959
1804.24	0.948
1812.94	0.946
1821.64	0.955
1830.34	0.965
1839.04	0.964
1847.74	0.948
1856.44	0.945
1865.14	0.955
1873.84	0.96
1882.54	0.923
1891.24	0.891
1899.94	0.911
1908.65	0.946
1917.35	0.953
1926.05	0.926
1934.75	0.926
1943.45	0.957
1952.15	0.968
1960.85	0.978
1969.55	0.97
1978.25	0.974
1986.95	0.971
1995.65	0.974
2004.35	0.9845
2013.05	0.996
2021.75	0.996
2030.46	0.998
2039.16	1.0045
2047.86	1
2056.56	0.9876
2065.26	0.998
2073.96	0.9964
2082.66	0.998
2091.36	0.9909
2100.06	0.9771
2108.76	0.9863
2117.46	1.0066
2126.16	1.0005
2134.86	1.001
2143.56	1.001
2152.27	1.002
2160.97	1.002
2169.67	1.001
2178.37	1.001
2187.07	0.9989
2195.77	0.9934
2204.47	0.993
2213.17	0.994
2221.87	0.9894
2230.57	0.9896
2239.27	0.987
2247.97	0.983
2256.67	0.9794
2265.37	0.9732
2274.08	0.971
2282.78	0.9652
2291.48	0.9658
2300.18	0.9706
2308.88	0.967
2317.58	0.9582
2326.28	0.9658
2334.98	0.9658
2343.68	0.9692
2352.38	0.971
2361.08	0.976
2369.78	0.978
2378.48	0.98
2387.18	0.9784
2395.89	0.9727
2404.59	0.9644
2413.29	0.9537
2421.99	0.9501
2430.69	0.948
2439.39	0.9486
2448.09	0.956
2456.79	0.9467
2465.49	0.9516
2474.19	0.959
2482.89	0.96
2491.59	0.957
2500.29	0.9523
2508.99	0.951
2517.7	0.9557
2526.4	0.9624
2535.1	0.961
2543.8	0.956
2552.5	0.96
2561.2	0.963
2569.9	0.961
2578.6	0.959
2587.3	0.957
2596	0.956
2604.7	0.9584
2613.4	0.961
2622.1	0.9576
2630.8	0.9644
2639.51	0.963
2648.21	0.957
2656.91	0.9637
2665.61	0.968
2674.31	0.965
2683.01	0.964
2691.71	0.9615
2700.41	0.96
2709.11	0.96
2717.81	0.959
2726.51	0.9498
2735.21	0.918
2743.91	0.9389
2752.61	0.9623
2761.32	0.9677
2770.02	0.971
2778.72	0.972
2787.42	0.975
2796.12	0.9685
2804.82	0.9615
2813.52	0.9535
2822.22	0.9452
2830.92	0.9387
2839.62	0.9155
2848.32	0.8637
2857.02	0.7571
2865.72	0.7454
2874.42	0.8122
2883.13	0.8098
2891.83	0.7775
2900.53	0.7654
2909.23	0.7376
2917.93	0.6476
2926.63	0.5721
2935.33	0.6149
2944.03	0.653
2952.73	0.639
2961.43	0.6745
2970.13	0.6992
2978.83	0.6912
2987.53	0.7096
2996.23	0.7965
3004.94	0.8103
3013.64	0.7494
3022.34	0.6746
3031.04	0.5423
3039.74	0.5159
3048.44	0.5991
3057.14	0.691
3065.84	0.6559
3074.54	0.6704
3083.24	0.7474
3091.94	0.8053
3100.64	0.8379
3109.34	0.8699
3118.04	0.8982
3126.74	0.9137
3135.45	0.9248
3144.15	0.923
3152.85	0.9183
3161.55	0.9111
3170.25	0.9031
3178.95	0.892
3187.65	0.8813
3196.35	0.8691
3205.05	0.8514
3213.75	0.8393
3222.45	0.8311
3231.15	0.8143
3239.85	0.8003
3248.55	0.7854
3257.26	0.7652
3265.96	0.7411
3274.66	0.7193
3283.36	0.7023
3292.06	0.6806
3300.76	0.6573
3309.46	0.635
3318.16	0.6065
3326.86	0.5832
3335.56	0.5612
3344.26	0.5441
3352.96	0.5252
3361.66	0.5122
3370.36	0.4991
3379.07	0.4842
3387.77	0.4701
3396.47	0.4591
3405.17	0.447
3413.87	0.4321
3422.57	0.4211
3431.27	0.4091
3439.97	0.401
3448.67	0.393
3457.37	0.385
3466.07	0.378
3474.77	0.374
3483.47	0.378
3492.17	0.382
3500.88	0.391
3509.58	0.41
3518.28	0.4271
3526.98	0.45
3535.68	0.455
3544.38	0.457
3553.08	0.4761
3561.78	0.5122
3570.48	0.536
3579.18	0.5258
3587.88	0.4685
3596.58	0.3944
3605.28	0.2331
3613.98	0.1363
3622.69	0.4035
3631.39	0.7663
3640.09	0.8748
3648.79	0.9261
3657.49	0.9301
3666.19	0.933
3674.89	0.9382
3683.59	0.9604
3692.29	0.9791
3700.99	0.9831
3709.69	0.99
3718.39	0.991
3727.09	0.9952
3735.79	0.9981
3744.5	1.001
3753.2	0.997
3761.9	0.993
3770.6	0.9912
3779.3	0.994
3788	0.9931
3796.7	0.997
