Infrared Spectrum: 1,2-Dimethylbenzene
Formula: 1,2-( C H3)2 C6 H4
CAS: 95-47-6
State: gas
Melting point: -25.18 C
Boiling point: 144.4 C
Class: IUPAC A
Instrument: IFS66V (Bruker)
Instrument parameters: KBr Beam Splitter; MCT Detector; Multipass cell
Sampling: 1 L/min Flow
Resolution: 0.2410
Temperature: 23 C
Pressure: 101.3 Pa
Origin: NIST, Analytical Chemistry Division, 301-975-3108
cm-1	(micromol/mol)-1m-1 (base 10)
575.05	2.85247e-07
583.608	6.1017e-07
592.165	8.86294e-07
600.723	-1.17095e-06
609.281	-5.37327e-07
617.838	1.99964e-07
626.396	7.09724e-07
634.954	8.39888e-07
643.511	-1.38598e-07
652.069	-3.16801e-07
660.626	3.01343e-07
669.184	3.51448e-08
677.742	-8.82057e-08
686.299	5.83121e-08
694.857	8.31972e-07
703.415	1.39607e-06
711.972	2.84504e-06
720.53	3.18643e-05
729.088	0.000192013
737.645	0.000237359
746.203	0.000206457
754.761	0.000155891
763.318	1.57366e-05
771.876	2.48877e-06
780.434	1.39925e-06
788.991	6.84794e-07
797.549	4.11372e-07
806.106	6.89474e-07
814.664	1.24494e-06
823.222	1.91867e-06
831.779	9.51487e-07
840.337	8.23742e-07
848.895	7.51488e-07
857.452	1.70374e-06
866.01	2.69224e-06
874.568	2.58886e-06
883.125	1.56386e-06
891.683	1.27149e-06
900.241	1.93812e-06
908.798	2.04523e-06
917.356	2.12032e-06
925.914	2.44892e-06
934.471	3.18554e-06
943.029	3.47354e-06
951.586	2.19565e-06
960.144	2.12768e-06
968.702	4.42918e-06
977.259	1.72707e-05
985.817	2.29179e-05
994.375	1.76629e-05
1002.93	9.12532e-06
1011.49	1.34051e-05
1020.05	1.75229e-05
1028.61	1.38825e-05
1037.16	1.12437e-05
1045.72	3.18502e-05
1054.28	5.17868e-05
1062.84	2.93333e-05
1071.39	3.95418e-06
1079.95	1.24182e-06
1088.51	1.50415e-06
1097.07	1.38163e-06
1105.62	3.84399e-06
1114.18	1.52457e-05
1122.74	1.83416e-05
1131.3	1.66483e-05
1139.85	1.05426e-05
1148.41	8.39448e-06
1156.97	5.02275e-06
1165.53	4.10861e-06
1174.09	3.55152e-06
1182.64	2.9452e-06
1191.2	2.23152e-06
1199.76	2.04385e-06
1208.32	2.60426e-06
1216.87	7.00293e-06
1225.43	9.24888e-06
1233.99	6.8296e-06
1242.55	1.34016e-06
1251.1	8.61591e-07
1259.66	1.21994e-06
1268.22	1.24119e-06
1276.78	1.74026e-06
1285.33	1.99444e-06
1293.89	2.10153e-06
1302.45	1.55593e-06
1311.01	1.8446e-06
1319.57	2.08687e-06
1328.12	2.52174e-06
1336.68	3.05707e-06
1345.24	4.05128e-06
1353.8	3.45669e-06
1362.35	5.4785e-06
1370.91	1.09476e-05
1379.47	1.47162e-05
1388.03	2.34112e-05
1396.58	2.20761e-05
1405.14	7.76101e-06
1413.7	7.20199e-06
1422.26	9.13569e-06
1430.81	1.78998e-05
1439.37	3.11246e-05
1447.93	6.76322e-05
1456.49	9.65105e-05
1465.05	0.00014365
1473.6	0.000123236
1482.16	8.93877e-05
1490.72	9.44824e-05
1499.28	0.000110293
1507.83	9.3286e-05
1516.39	1.44804e-05
1524.95	8.49907e-06
1533.51	7.95891e-06
1542.06	6.55966e-06
1550.62	7.07284e-06
1559.18	6.20109e-06
1567.74	5.78624e-06
1576.29	6.26637e-06
1584.85	1.51791e-05
1593.41	2.60808e-05
1601.97	3.02646e-05
1610.53	2.51508e-05
1619.08	2.12188e-05
1627.64	6.7306e-06
1636.2	2.0144e-06
1644.76	1.06131e-06
1653.31	-9.46641e-07
1661.87	4.39083e-06
1670.43	6.99954e-06
1678.99	5.79956e-06
1687.54	2.47449e-06
1696.1	6.10175e-07
1704.66	2.69202e-06
1713.22	3.53242e-06
1721.77	3.20977e-06
1730.33	1.25795e-06
1738.89	1.05965e-06
1747.45	1.27255e-06
1756.01	1.5084e-06
1764.56	1.94389e-06
1773.12	4.37822e-06
1781.68	9.27387e-06
1790.24	9.52781e-06
1798.79	3.90441e-06
1807.35	8.60005e-07
1815.91	2.58335e-06
1824.47	5.86341e-06
1833.02	5.78191e-06
1841.58	1.18141e-06
1850.14	2.3949e-06
1858.7	4.48208e-06
1867.25	5.45293e-06
1875.81	4.13037e-06
1884.37	5.80663e-06
1892.93	1.16264e-05
1901.49	9.74321e-06
1910.04	8.47275e-06
1918.6	1.17013e-06
1927.16	1.23202e-06
1935.72	7.77684e-06
1944.27	1.23868e-05
1952.83	5.94509e-06
1961.39	1.02563e-06
1969.95	9.79294e-07
1978.5	6.77695e-07
1987.06	4.87553e-07
1995.62	2.94796e-07
2004.18	1.1582e-07
2012.73	-4.74114e-08
2021.29	-2.13539e-08
2029.85	4.27405e-08
2038.41	-6.60061e-08
2046.97	-1.32671e-08
2055.52	-1.22139e-07
2064.08	-4.29882e-07
2072.64	-4.28531e-07
2081.2	-2.30658e-07
2089.75	-1.60698e-07
2098.31	-1.35113e-07
2106.87	1.63386e-07
2115.43	7.48052e-07
2123.98	3.19268e-07
2132.54	-1.10238e-07
2141.1	-5.08126e-07
2149.66	-1.21184e-07
2158.21	2.91266e-07
2166.77	-1.49535e-07
2175.33	-3.22969e-07
2183.89	-1.8316e-07
2192.45	3.08667e-09
2201	6.70661e-07
2209.56	9.8745e-07
2218.12	6.60206e-07
2226.68	3.99563e-07
2235.23	2.02864e-07
2243.79	-3.77822e-08
2252.35	-2.50517e-07
2260.91	1.57575e-07
2269.46	9.23043e-07
2278.02	9.40006e-07
2286.58	7.18729e-07
2295.14	1.31938e-07
2303.69	1.73414e-07
2312.25	9.91892e-07
2320.81	4.82954e-07
2329.37	8.74647e-07
2337.93	5.33127e-07
2346.48	9.96995e-07
2355.04	4.67121e-07
2363.6	-3.9232e-07
2372.16	-2.08839e-07
2380.71	-2.53784e-07
2389.27	2.64421e-07
2397.83	1.90399e-07
2406.39	9.50343e-07
2414.94	1.1706e-06
2423.5	1.70503e-06
2432.06	2.18733e-06
2440.62	2.33162e-06
2449.17	1.9547e-06
2457.73	1.33328e-06
2466.29	7.90092e-07
2474.85	4.8476e-07
2483.41	5.61362e-07
2491.96	6.06911e-07
2500.52	4.33709e-07
2509.08	4.43866e-07
2517.64	3.94678e-07
2526.19	-2.81693e-08
2534.75	-8.60103e-08
2543.31	-1.525e-07
2551.87	2.2974e-07
2560.42	1.0464e-06
2568.98	2.46322e-06
2577.54	2.77679e-06
2586.1	2.24527e-06
2594.65	9.97658e-07
2603.21	7.94803e-07
2611.77	1.00075e-06
2620.33	9.74099e-07
2628.89	1.79913e-07
2637.44	-5.88141e-08
2646	1.28509e-07
2654.56	-1.87656e-08
2663.12	4.98724e-08
2671.67	5.1755e-07
2680.23	5.4003e-07
2688.79	5.56151e-07
2697.35	5.50968e-07
2705.9	1.10592e-06
2714.46	1.66233e-06
2723.02	3.55798e-06
2731.58	7.01234e-06
2740.13	1.14414e-05
2748.69	1.18905e-05
2757.25	4.17505e-06
2765.81	4.03392e-06
2774.37	4.45034e-06
2782.92	4.01415e-06
2791.48	3.23564e-06
2800.04	3.5314e-06
2808.6	4.76158e-06
2817.15	6.87013e-06
2825.71	9.31268e-06
2834.27	1.131e-05
2842.83	1.52414e-05
2851.38	2.3316e-05
2859.94	4.67613e-05
2868.5	8.14664e-05
2877.06	0.000112877
2885.61	0.000118454
2894.17	0.000108156
2902.73	9.06084e-05
2911.29	9.127e-05
2919.85	0.000115862
2928.4	0.000171503
2936.96	0.000210339
2945.52	0.000198618
2954.08	0.000197522
2962.63	0.000146066
2971.19	0.000167489
2979.75	0.000157986
2988.31	0.000141396
2996.86	6.09751e-05
3005.42	4.98157e-05
3013.98	9.02146e-05
3022.54	0.000175059
3031.09	0.00020923
3039.65	0.000137513
3048.21	9.64867e-05
3056.77	0.000113814
3065.33	0.000141624
3073.88	0.000145764
3082.44	0.000123959
3091	8.08014e-05
3099.56	4.25423e-05
3108.11	2.86685e-05
3116.67	2.57796e-05
3125.23	1.97474e-05
3133.79	7.1706e-06
3142.34	4.24513e-06
3150.9	3.28773e-06
3159.46	3.2831e-06
3168.02	3.55627e-06
3176.57	2.8685e-06
3185.13	1.74168e-06
3193.69	1.26962e-06
3202.25	1.09299e-06
3210.81	7.40019e-07
3219.36	3.79857e-07
3227.92	3.92209e-07
3236.48	2.92579e-07
3245.04	-2.2905e-07
3253.59	2.16857e-07
3262.15	3.33113e-07
3270.71	-3.92701e-09
3279.27	-7.04769e-08
3287.82	2.77519e-07
3296.38	3.584e-07
3304.94	1.17312e-07
3313.5	4.15942e-07
3322.05	5.1755e-08
3330.61	-2.41739e-07
3339.17	-1.63701e-11
3347.73	-3.75305e-07
3356.29	-5.67069e-07
3364.84	3.42481e-07
3373.4	8.44151e-08
3381.96	1.69467e-07
3390.52	3.16982e-07
3399.07	-5.84995e-08
3407.63	9.30895e-08
3416.19	-7.59518e-08
3424.75	7.17374e-08
3433.3	1.21446e-07
3441.86	7.99661e-08
3450.42	2.40611e-07
3458.98	4.1619e-07
3467.53	6.02074e-07
3476.09	1.0244e-08
3484.65	3.3895e-07
3493.21	1.4684e-07
3501.77	-1.32882e-07
3510.32	-1.54181e-07
3518.88	-2.29796e-07
3527.44	-2.2877e-07
3536	-3.34279e-07
3544.55	8.51354e-08
3553.11	-6.12951e-08
3561.67	-1.52251e-07
3570.23	1.74529e-07
3578.78	-2.07875e-07
3587.34	-9.18672e-08
3595.9	1.29922e-07
3604.46	4.28838e-07
3613.01	5.25957e-07
3621.57	-1.83318e-07
3630.13	-2.58304e-07
3638.69	-2.51005e-07
3647.25	-3.89821e-07
3655.8	-1.39011e-07
3664.36	-1.78809e-07
3672.92	-1.72783e-07
3681.48	-9.84625e-08
3690.03	-5.21775e-07
3698.59	-3.83333e-07
3707.15	-1.45759e-07
3715.71	-9.52249e-08
3724.26	-3.41628e-07
3732.82	-2.72362e-07
3741.38	-3.16249e-07
3749.94	-7.2656e-08
3758.49	3.07019e-07
3767.05	3.61113e-07
3775.61	-1.34726e-08
3784.17	-1.02986e-07
3792.73	1.13536e-07
3801.28	-8.03095e-07
3809.84	5.96326e-07
3818.4	4.706e-07
3826.96	6.33126e-07
3835.51	1.01647e-06
3844.07	1.38862e-06
3852.63	1.17625e-06
3861.19	1.57417e-06
3869.74	1.64775e-06
3878.3	1.82243e-06
3886.86	2.22205e-06
3895.42	2.8207e-06
3903.97	2.76911e-06
3912.53	2.08789e-06
3921.09	1.2571e-06
3929.65	6.09641e-07
3938.21	5.38765e-07
3946.76	8.37993e-07
3955.32	9.70274e-07
3963.88	1.22362e-06
3972.44	8.45998e-07
