Infrared Spectrum: ANILINE, o-CHLORO-
Formula: C6 H6 Cl N
CAS: 95-51-2
State: SOLUTION (10% IN CCl4 FOR 4000-1330 CM^-^1, 10% IN CS2 FOR 1330-600 CM^-^1)
Class: COBLENTZ III
Instrument: BECKMAN IR-7 (GRATING)
Instrument parameters: GRATING CHANGES AT 3000, 2200, 1150 CM^-^1
Sampling: TRANSMISSION
Path length: 0.010 CM, 0.010 CM
Resolution: 4
Origin: WESTERN REGIONAL RES. USDA
1/CM	TRANSMITTANCE
599.354	0.59
608.399	0.587
617.444	0.582
626.488	0.572
635.533	0.562
644.578	0.544
653.623	0.528
662.667	0.552
671.712	0.467
680.757	0.2668
689.802	0.545
698.846	0.555
707.891	0.578
716.936	0.608
725.981	0.542
735.026	0.1379
744.07	0.02
753.115	0.403
762.16	0.564
771.205	0.627
780.249	0.651
789.294	0.665
798.339	0.69
807.384	0.704
816.428	0.71
825.473	0.693
834.518	0.571
843.563	0.637
852.608	0.629
861.652	0.651
870.697	0.683
879.742	0.731
888.787	0.778
897.831	0.8
906.876	0.8
915.921	0.781
924.966	0.665
934.01	0.801
943.055	0.816
952.1	0.816
961.145	0.809
970.19	0.816
979.234	0.828
988.279	0.832
997.324	0.822
1006.37	0.782
1015.41	0.556
1024.46	0.5669
1033.5	0.722
1042.55	0.545
1051.59	0.595
1060.64	0.592
1069.68	0.459
1078.73	0.409
1087.77	0.425
1096.82	0.601
1105.86	0.763
1114.91	0.796
1123.95	0.786
1133	0.663
1142.04	0.622
1151.08	0.538
1160.13	0.7399
1169.17	0.795
1178.22	0.809
1187.26	0.816
1196.31	0.824
1205.35	0.828
1214.4	0.828
1223.44	0.826
1232.49	0.818
1241.53	0.785
1250.58	0.734
1259.62	0.52
1268.67	0.768
1277.71	0.782
1286.76	0.746
1295.8	0.537
1304.85	0.137
1313.89	0.377
1322.94	0.752
1331.98	0.814
1341.03	0.832
1350.07	0.835
1359.11	0.831
1368.16	0.814
1377.2	0.788
1386.25	0.825
1395.29	0.814
1404.34	0.827
1413.38	0.807
1422.43	0.81
1431.47	0.799
1440.52	0.663
1449.56	0.117
1458.61	0.713
1467.65	0.669
1476.7	0.309
1485.74	0.012
1494.79	0.258
1503.83	0.4401
1512.88	0.533
1521.92	0.557
1530.97	0.516
1540.01	0.435
1549.05	0.412
1558.1	0.447
1567.14	0.446
1576.19	0.36
1585.23	0.409
1594.28	0.406
1603.32	0.154
1612.37	0.002
1621.41	0.108
1630.46	0.403
1639.5	0.619
1648.55	0.721
1657.59	0.754
1666.64	0.762
1675.68	0.777
1684.73	0.81
1693.77	0.827
1702.82	0.83
1711.86	0.83
1720.91	0.828
1729.95	0.83
1738.99	0.83
1748.04	0.826
1757.08	0.8
1766.13	0.797
1775.17	0.831
1784.22	0.84
1793.26	0.834
1802.31	0.834
1811.35	0.846
1820.4	0.85
1829.44	0.848
1838.49	0.839
1847.53	0.809
1856.58	0.832
1865.62	0.843
1874.67	0.83
1883.71	0.776
1892.76	0.832
1901.8	0.848
1910.85	0.834
1919.89	0.79
1928.94	0.837
1937.98	0.85
1947.02	0.854
1956.07	0.855
1965.11	0.854
1974.16	0.849
1983.2	0.847
1992.25	0.851
2001.29	0.854
2010.34	0.854
2019.38	0.854
2028.43	0.854
2037.47	0.854
2046.52	0.855
2055.56	0.855
2064.61	0.857
2073.65	0.858
2082.7	0.857
2091.74	0.8571
2100.79	0.859
2109.83	0.859
2118.88	0.859
2127.92	0.857
2136.96	0.857
2146.01	0.857
2155.05	0.858
2164.1	0.8586
2173.14	0.859
2182.19	0.859
2191.23	0.862
2200.28	0.864
2209.32	0.8674
2218.37	0.869
2227.41	0.868
2236.46	0.866
2245.5	0.864
2254.55	0.8618
2263.59	0.8582
2272.64	0.8513
2281.68	0.8461
2290.73	0.845
2299.77	0.843
2308.82	0.843
2317.86	0.845
2326.9	0.8457
2335.95	0.8526
2344.99	0.855
2354.04	0.857
2363.08	0.8639
2372.13	0.8685
2381.17	0.871
2390.22	0.8716
2399.26	0.872
2408.31	0.872
2417.35	0.8717
2426.4	0.871
2435.44	0.8676
2444.49	0.861
2453.53	0.8626
2462.58	0.8704
2471.62	0.8764
2480.67	0.8783
2489.71	0.879
2498.76	0.879
2507.8	0.8781
2516.84	0.8755
2525.89	0.8719
2534.93	0.87
2543.98	0.8694
2553.02	0.8535
2562.07	0.852
2571.11	0.8635
2580.16	0.8696
2589.2	0.868
2598.25	0.8461
2607.29	0.8257
2616.34	0.8237
2625.38	0.8464
2634.43	0.8676
2643.47	0.87
2652.52	0.87
2661.56	0.87
2670.61	0.87
2679.65	0.871
2688.7	0.873
2697.74	0.874
2706.79	0.874
2715.83	0.874
2724.87	0.873
2733.92	0.872
2742.96	0.8715
2752.01	0.871
2761.05	0.871
2770.1	0.871
2779.14	0.871
2788.19	0.8714
2797.23	0.873
2806.28	0.875
2815.32	0.874
2824.37	0.8734
2833.41	0.8727
2842.46	0.87
2851.5	0.8697
2860.55	0.8653
2869.59	0.8524
2878.64	0.85
2887.68	0.8525
2896.73	0.8562
2905.77	0.863
2914.81	0.8568
2923.86	0.857
2932.9	0.8603
2941.95	0.862
2950.99	0.864
2960.04	0.859
2969.08	0.857
2978.13	0.856
2987.17	0.855
2996.22	0.844
3005.26	0.8273
3014.31	0.7702
3023.35	0.6512
3032.4	0.7149
3041.44	0.7744
3050.49	0.723
3059.53	0.695
3068.58	0.6485
3077.62	0.645
3086.67	0.7614
3095.71	0.8214
3104.75	0.841
3113.8	0.8485
3122.84	0.8489
3131.89	0.847
3140.93	0.846
3149.98	0.846
3159.02	0.8423
3168.07	0.8332
3177.11	0.829
3186.16	0.8158
3195.2	0.8066
3204.25	0.8278
3213.29	0.8395
3222.34	0.843
3231.38	0.8439
3240.43	0.848
3249.47	0.85
3258.52	0.852
3267.56	0.854
3276.61	0.854
3285.65	0.8498
3294.7	0.8462
3303.74	0.8437
3312.78	0.8382
3321.83	0.8296
3330.87	0.8159
3339.92	0.8002
3348.96	0.7753
3358.01	0.7252
3367.05	0.6682
3376.1	0.5083
3385.14	0.32
3394.19	0.2801
3403.23	0.5261
3412.28	0.6352
3421.32	0.713
3430.37	0.7452
3439.41	0.7389
3448.46	0.712
3457.5	0.6624
3466.55	0.4734
3475.59	0.3937
3484.64	0.3611
3493.68	0.4448
3502.72	0.5533
3511.77	0.6626
3520.81	0.7445
3529.86	0.7749
3538.9	0.7909
3547.95	0.7995
3556.99	0.8071
3566.04	0.8126
3575.08	0.8162
3584.13	0.8197
3593.17	0.8253
3602.22	0.8317
3611.26	0.8384
3620.31	0.841
3629.35	0.8446
3638.4	0.8521
3647.44	0.8557
3656.49	0.8572
3665.53	0.859
3674.58	0.86
3683.62	0.8591
3692.66	0.8545
3701.71	0.853
3710.75	0.8566
3719.8	0.861
3728.84	0.8617
3737.89	0.8617
3746.93	0.8602
3755.98	0.859
3765.02	0.859
3774.07	0.858
3783.11	0.8591
3792.16	0.8603
3801.2	0.8588
3810.25	0.8542
3819.29	0.852
3828.34	0.8501
3837.38	0.8495
3846.43	0.847
3855.47	0.846
3864.52	0.848
3873.56	0.848
3882.61	0.8467
3891.65	0.846
3900.69	0.846
3909.74	0.848
3918.78	0.8495
3927.83	0.8501
3936.87	0.8521
3945.92	0.8498
3954.96	0.849
3964.01	0.851
3973.05	0.852
3982.1	0.852
3991.14	0.851
4000.19	0.85
4009.23	0.85
