Infrared Spectrum: o-DICHLOROBENZENE
Formula: C6 H4 Cl2
CAS: 95-50-1
State: SOLUTION (9.99% IN CCl4 FOR 3800-1300, 10.05% IN CS2 FOR 1300-650, AND 9.99% IN CCl4 FOR 650-250 CM^-^1) VERSUS SOLVENT
Class: COBLENTZ
Instrument: Not specified, most likely a grating or hybrid spectrometer.
Sampling: TRANSMISSION
Path length: 0.011, 0.011, AND 0.020 CM (CsBr CELL)
Resolution: 4
Origin: DOW CORNING CORP.
1/CM	TRANSMITTANCE
249.893	0.9
258.848	0.907
267.804	0.909
276.759	0.909
285.714	0.912
294.669	0.916
303.625	0.917
312.58	0.917
321.535	0.924
330.49	0.912
339.446	0.933
348.401	0.938
357.356	0.938
366.312	0.935
375.267	0.93
384.222	0.916
393.177	0.917
402.133	0.916
411.088	0.916
420.043	0.9
428.998	0.748
437.954	0.4373
446.909	0.7999
455.864	0.839
464.819	0.765
473.775	0.756
482.73	0.669
491.685	0.7147
500.641	0.881
509.596	0.898
518.551	0.903
527.506	0.903
536.462	0.893
545.417	0.809
554.372	0.895
563.327	0.909
572.283	0.905
581.238	0.914
590.193	0.916
599.149	0.917
608.104	0.917
617.059	0.921
626.014	0.902
634.97	0.895
643.925	0.868
652.88	0.7601
661.835	0.263
670.791	0.784
679.746	0.849
688.701	0.886
697.657	0.893
706.612	0.896
715.567	0.884
724.522	0.833
733.478	0.6382
742.433	0.188
751.388	0.089
760.343	0.7107
769.299	0.833
778.254	0.858
787.209	0.893
796.164	0.902
805.12	0.893
814.075	0.797
823.03	0.893
831.986	0.893
840.941	0.888
849.896	0.877
858.851	0.884
867.807	0.888
876.762	0.914
885.717	0.917
894.672	0.919
903.628	0.921
912.583	0.912
921.538	0.898
930.494	0.874
939.449	0.615
948.404	0.9
957.359	0.907
966.315	0.905
975.27	0.9
984.225	0.903
993.18	0.893
1002.14	0.87
1011.09	0.6691
1020.05	0.76
1029	0.6151
1037.96	0.034
1046.91	0.861
1055.87	0.905
1064.82	0.895
1073.78	0.884
1082.73	0.8439
1091.69	0.8675
1100.64	0.874
1109.6	0.802
1118.55	0.6151
1127.51	0.146
1136.46	0.648
1145.42	0.7981
1154.38	0.816
1163.33	0.779
1172.29	0.802
1181.24	0.879
1190.2	0.912
1199.15	0.916
1208.11	0.916
1217.06	0.912
1226.02	0.91
1234.97	0.902
1243.93	0.86
1252.88	0.835
1261.84	0.863
1270.79	0.875
1279.75	0.903
1288.7	0.917
1297.66	0.923
1306.61	0.928
1315.57	0.924
1324.53	0.923
1333.48	0.917
1342.44	0.914
1351.39	0.896
1360.35	0.856
1369.3	0.879
1378.26	0.893
1387.21	0.872
1396.17	0.865
1405.12	0.802
1414.08	0.8041
1423.03	0.821
1431.99	0.5359
1440.94	0.6801
1449.9	0.5761
1458.85	0.01
1467.81	0.3072
1476.77	0.5481
1485.72	0.681
1494.68	0.847
1503.63	0.879
1512.59	0.884
1521.54	0.879
1530.5	0.877
1539.45	0.867
1548.41	0.856
1557.36	0.835
1566.32	0.784
1575.27	0.501
1584.23	0.842
1593.18	0.8349
1602.14	0.797
1611.09	0.842
1620.05	0.879
1629	0.882
1637.96	0.889
1646.92	0.893
1655.87	0.889
1664.83	0.886
1673.78	0.884
1682.74	0.865
1691.69	0.881
1700.65	0.886
1709.6	0.886
1718.56	0.895
1727.51	0.895
1736.47	0.898
1745.42	0.9
1754.38	0.896
1763.33	0.896
1772.29	0.884
1781.24	0.872
1790.2	0.814
1799.15	0.879
1808.11	0.893
1817.07	0.888
1826.02	0.874
1834.98	0.895
1843.93	0.9
1852.89	0.896
1861.84	0.895
1870.8	0.886
1879.75	0.874
1888.71	0.891
1897.66	0.888
1906.62	0.853
1915.57	0.8231
1924.53	0.891
1933.48	0.881
1942.44	0.858
1951.39	0.8611
1960.35	0.9
1969.3	0.903
1978.26	0.905
1987.22	0.907
1996.17	0.912
2005.13	0.909
2014.08	0.907
2023.04	0.907
2031.99	0.907
2040.95	0.905
2049.9	0.903
2058.86	0.902
2067.81	0.902
2076.77	0.9
2085.72	0.898
2094.68	0.8961
2103.63	0.898
2112.59	0.896
2121.54	0.896
2130.5	0.896
2139.46	0.896
2148.41	0.896
2157.37	0.895
2166.32	0.896
2175.28	0.8955
2184.23	0.896
2193.19	0.8955
2202.14	0.8959
2211.1	0.896
2220.05	0.896
2229.01	0.895
2237.96	0.8931
2246.92	0.891
2255.87	0.889
2264.83	0.888
2273.78	0.886
2282.74	0.886
2291.69	0.886
2300.65	0.888
2309.61	0.889
2318.56	0.889
2327.52	0.891
2336.47	0.8921
2345.43	0.891
2354.38	0.889
2363.34	0.8881
2372.29	0.8872
2381.25	0.886
2390.2	0.886
2399.16	0.886
2408.11	0.886
2417.07	0.886
2426.02	0.8868
2434.98	0.888
2443.93	0.888
2452.89	0.8862
2461.84	0.884
2470.8	0.8858
2479.76	0.8832
2488.71	0.882
2497.67	0.882
2506.62	0.882
2515.58	0.881
2524.53	0.8772
2533.49	0.8732
2542.44	0.8568
2551.4	0.8689
2560.35	0.8788
2569.31	0.879
2578.26	0.877
2587.22	0.875
2596.17	0.8752
2605.13	0.872
2614.08	0.875
2623.04	0.8797
2631.99	0.881
2640.95	0.881
2649.91	0.881
2658.86	0.881
2667.82	0.881
2676.77	0.881
2685.73	0.8773
2694.68	0.877
2703.64	0.877
2712.59	0.877
2721.55	0.879
2730.5	0.8797
2739.46	0.881
2748.41	0.879
2757.37	0.879
2766.32	0.881
2775.28	0.879
2784.23	0.881
2793.19	0.879
2802.15	0.8763
2811.1	0.8723
2820.06	0.8727
2829.01	0.874
2837.97	0.874
2846.92	0.874
2855.88	0.874
2864.83	0.872
2873.79	0.874
2882.74	0.874
2891.7	0.872
2900.65	0.872
2909.61	0.87
2918.56	0.868
2927.52	0.8644
2936.47	0.863
2945.43	0.861
2954.38	0.8602
2963.34	0.858
2972.3	0.858
2981.25	0.8554
2990.21	0.854
2999.16	0.856
3008.12	0.856
3017.07	0.853
3026.03	0.8478
3034.98	0.8454
3043.94	0.8327
3052.89	0.8126
3061.85	0.7558
3070.8	0.676
3079.76	0.771
3088.71	0.8412
3097.67	0.8525
3106.62	0.854
3115.58	0.8532
3124.53	0.8533
3133.49	0.8565
3142.45	0.853
3151.4	0.8555
3160.36	0.861
3169.31	0.8645
3178.27	0.868
3187.22	0.8715
3196.18	0.8725
3205.13	0.875
3214.09	0.877
3223.04	0.8785
3232	0.879
3240.95	0.879
3249.91	0.881
3258.86	0.881
3267.82	0.881
3276.77	0.881
3285.73	0.881
3294.68	0.881
3303.64	0.879
3312.6	0.881
3321.55	0.879
3330.51	0.881
3339.46	0.879
3348.42	0.879
3357.37	0.879
3366.33	0.879
3375.28	0.879
3384.24	0.879
3393.19	0.8794
3402.15	0.881
3411.1	0.881
3420.06	0.8817
3429.01	0.882
3437.97	0.882
3446.92	0.882
3455.88	0.882
3464.84	0.8836
3473.79	0.882
3482.75	0.882
3491.7	0.882
3500.66	0.884
3509.61	0.884
3518.57	0.884
3527.52	0.886
3536.48	0.884
3545.43	0.884
3554.39	0.8843
3563.34	0.8887
3572.3	0.888
3581.25	0.895
3590.21	0.889
3599.16	0.8903
3608.12	0.888
3617.07	0.8903
3626.03	0.891
3634.99	0.8883
3643.94	0.8893
3652.9	0.8867
3661.85	0.884
3670.81	0.888
3679.76	0.886
3688.72	0.889
3697.67	0.8857
3706.63	0.884
3715.58	0.884
3724.54	0.884
3733.49	0.886
3742.45	0.8873
3751.4	0.886
3760.36	0.884
3769.31	0.884
3778.27	0.882
3787.22	0.882
3796.18	0.884
