Infrared Spectrum: ANILINE, o-CHLORO-
Formula: C6 H6 Cl N
CAS: 95-51-2
State: LIQUID (NEAT)
Boiling point: 208-219 C
Class: COBLENTZ III
Instrument: BECKMAN IR-4 (HYBRID PRISM-GRATING)
Sampling: TRANSMISSION
Path length: CAPILLARY
Resolution: 4
Origin: UNIVERSITY OF FLORIDA
MICROMETERS	TRANSMITTANCE
0.948	0.916
0.984635	0.917
1.02127	0.918
1.05791	0.919
1.09454	0.921
1.13118	0.92
1.16781	0.919
1.20445	0.914
1.24108	0.914
1.27772	0.918
1.31435	0.92
1.35099	0.92
1.38762	0.917
1.42426	0.915
1.46089	0.914
1.49753	0.919
1.53416	0.919
1.5708	0.918
1.60743	0.92
1.64407	0.92
1.6807	0.919
1.71734	0.919
1.75397	0.919
1.79061	0.918
1.82724	0.913
1.86388	0.905
1.90051	0.909
1.93715	0.916
1.97378	0.912
2.01042	0.909
2.04705	0.91
2.08369	0.906
2.12032	0.906
2.15696	0.912
2.19359	0.913
2.23023	0.913
2.26686	0.914
2.3035	0.909
2.34013	0.907
2.37677	0.89
2.4134	0.889
2.45004	0.892
2.48667	0.889
2.52331	0.888
2.55994	0.888
2.59658	0.888
2.63321	0.884
2.66985	0.876
2.70648	0.847
2.74312	0.821
2.77975	0.814
2.81639	0.768
2.85302	0.518
2.88966	0.483
2.92629	0.429
2.96293	0.37
2.99956	0.522
3.0362	0.707
3.07283	0.724
3.10947	0.7
3.1461	0.789
3.18274	0.843
3.21937	0.814
3.25601	0.732
3.29264	0.778
3.32928	0.821
3.36591	0.829
3.40255	0.849
3.43918	0.844
3.47582	0.868
3.51245	0.899
3.54909	0.902
3.58572	0.907
3.62236	0.906
3.659	0.906
3.69563	0.906
3.73227	0.906
3.7689	0.892
3.80554	0.877
3.84217	0.901
3.87881	0.906
3.91544	0.912
3.95208	0.915
3.98871	0.918
4.02535	0.913
4.06198	0.909
4.09862	0.912
4.13525	0.913
4.17189	0.912
4.20852	0.908
4.24516	0.907
4.28179	0.907
4.31843	0.907
4.35506	0.907
4.3917	0.911
4.42833	0.914
4.46497	0.912
4.5016	0.909
4.53824	0.907
4.57487	0.906
4.61151	0.902
4.64814	0.901
4.68478	0.905
4.72141	0.908
4.75805	0.907
4.79468	0.908
4.83132	0.909
4.86795	0.907
4.90459	0.906
4.94122	0.903
4.97786	0.895
5.01449	0.894
5.05113	0.894
5.08776	0.892
5.1244	0.878
5.16103	0.862
5.19767	0.87
5.2343	0.862
5.27094	0.856
5.30757	0.871
5.34421	0.874
5.38084	0.876
5.41748	0.89
5.45411	0.888
5.49075	0.879
5.52738	0.879
5.56402	0.873
5.60065	0.854
5.63729	0.851
5.67392	0.867
5.71056	0.879
5.74719	0.879
5.78383	0.872
5.82046	0.862
5.8571	0.84
5.89373	0.818
5.93037	0.784
5.967	0.767
6.00364	0.744
6.04027	0.606
6.07691	0.47
6.11354	0.239
6.15018	0.126
6.18681	0.151
6.22345	0.33
6.26008	0.418
6.29672	0.477
6.33336	0.605
6.36999	0.703
6.40663	0.777
6.44326	0.775
6.4799	0.769
6.51653	0.736
6.55317	0.614
6.5898	0.544
6.62644	0.409
6.66307	0.212
6.69971	0.127
6.73634	0.331
6.77298	0.652
6.80961	0.687
6.84625	0.372
6.88288	0.37
6.91952	0.671
6.95615	0.791
6.99279	0.798
7.02942	0.799
7.06606	0.8
7.10269	0.799
7.13933	0.795
7.17596	0.789
7.2126	0.789
7.24923	0.811
7.28587	0.832
7.3225	0.837
7.35914	0.843
7.39577	0.841
7.43241	0.825
7.46904	0.81
7.50568	0.765
7.54231	0.588
7.57895	0.349
7.61558	0.311
7.65222	0.339
7.68885	0.501
7.72549	0.668
7.76212	0.734
7.79876	0.763
7.83539	0.764
7.87203	0.707
7.90866	0.605
7.9453	0.651
7.98193	0.696
8.01857	0.746
8.0552	0.793
8.09184	0.816
8.12847	0.826
8.16511	0.828
8.20174	0.832
8.23838	0.836
8.27501	0.837
8.31165	0.838
8.34828	0.836
8.38492	0.828
8.42155	0.825
8.45819	0.819
8.49482	0.812
8.53146	0.795
8.56809	0.759
8.60473	0.621
8.64136	0.561
8.678	0.659
8.71463	0.64
8.75127	0.606
8.7879	0.664
8.82454	0.716
8.86117	0.755
8.89781	0.76
8.93444	0.756
8.97108	0.735
9.00772	0.712
9.04435	0.657
9.08099	0.608
9.11762	0.543
9.15426	0.48
9.19089	0.442
9.22753	0.432
9.26416	0.422
9.3008	0.435
9.33743	0.48
9.37407	0.529
9.4107	0.564
9.44734	0.563
9.48397	0.529
9.52061	0.44
9.55724	0.433
9.59388	0.556
9.63051	0.618
9.66715	0.611
9.70378	0.556
9.74042	0.406
9.77705	0.347
9.81369	0.471
9.85032	0.605
9.88696	0.684
9.92359	0.736
9.96023	0.763
9.99686	0.781
10.0335	0.789
10.0701	0.792
10.1068	0.79
10.1434	0.788
10.18	0.786
10.2167	0.78
10.2533	0.778
10.2899	0.775
10.3266	0.773
10.3632	0.777
10.3998	0.782
10.4365	0.787
10.4731	0.789
10.5098	0.789
10.5464	0.784
10.583	0.774
10.6197	0.77
10.6563	0.75
10.6929	0.713
10.7296	0.667
10.7662	0.636
10.8028	0.661
10.8395	0.712
10.8761	0.752
10.9127	0.771
10.9494	0.777
10.986	0.776
11.0226	0.777
11.0593	0.774
11.0959	0.774
11.1325	0.769
11.1692	0.767
11.2058	0.76
11.2425	0.753
11.2791	0.74
11.3157	0.731
11.3524	0.703
11.389	0.697
11.4256	0.698
11.4623	0.71
11.4989	0.719
11.5355	0.719
11.5722	0.715
11.6088	0.71
11.6454	0.7
11.6821	0.692
11.7187	0.68
11.7553	0.654
11.792	0.641
11.8286	0.637
11.8653	0.637
11.9019	0.638
11.9385	0.625
11.9752	0.615
12.0118	0.621
12.0484	0.648
12.0851	0.668
12.1217	0.686
12.1583	0.689
12.195	0.691
12.2316	0.691
12.2682	0.688
12.3049	0.682
12.3415	0.672
12.3781	0.669
12.4148	0.661
12.4514	0.653
12.488	0.649
12.5247	0.64
12.5613	0.631
12.598	0.626
12.6346	0.62
12.6712	0.609
12.7079	0.6
12.7445	0.589
12.7811	0.579
12.8178	0.572
12.8544	0.56
12.891	0.549
12.9277	0.532
12.9643	0.521
13.0009	0.504
13.0376	0.477
13.0742	0.442
13.1108	0.415
13.1475	0.363
13.1841	0.3
13.2207	0.235
13.2574	0.182
13.294	0.132
13.3307	0.104
13.3673	0.087
13.4039	0.08
13.4406	0.085
13.4772	0.1
13.5138	0.131
13.5505	0.172
13.5871	0.248
13.6237	0.321
13.6604	0.362
13.697	0.41
13.7336	0.445
13.7703	0.462
13.8069	0.472
13.8435	0.481
13.8802	0.482
13.9168	0.488
13.9534	0.49
13.9901	0.495
14.0267	0.494
14.0634	0.49
14.1	0.482
14.1366	0.472
14.1733	0.461
14.2099	0.45
14.2465	0.442
14.2832	0.439
14.3198	0.433
14.3564	0.429
14.3931	0.427
14.4297	0.422
14.4663	0.419
14.503	0.416
14.5396	0.41
14.5762	0.399
14.6129	0.382
14.6495	0.353
14.6862	0.304
14.7228	0.24
14.7594	0.216
14.7961	0.227
14.8327	0.257
14.8693	0.304
14.906	0.339
14.9426	0.37
14.9792	0.381
15.0159	0.382
