Infrared Spectrum: BENZENE, 1,2-DICHLORO-
Formula: C6 H4 Cl2
CAS: 95-50-1
State: SOLUTION (10% IN CCl4 FOR 3800-1333 AND 10% IN CS2 FOR 1333-400 CM^-^1) VS. SOLVENT
Class: COBLENTZ III
Instrument: DOW KBr FOREPRISM-GRATING
Instrument parameters: BLAZED AT 3.5, 12.0, 20.0 MICRON, CHANGED AT 5.0, 7.5, 14.9 MICRON
Sampling: TRANSMISSION
Path length: 0.011, 0.011 CM
Resolution: 4
Origin: DOW CHEMICAL COMPANY
1/CM	TRANSMITTANCE
382.58	0.936
391.29	0.93
400	0.919
408.71	0.913
417.419	0.895
426.129	0.861
434.839	0.847
443.549	0.956
452.259	0.957
460.969	0.932
469.679	0.923
478.389	0.911
487.098	0.861
495.808	0.959
504.518	0.985
513.228	0.985
521.938	0.989
530.648	0.995
539.358	0.99
548.068	0.997
556.777	1.004
565.487	1.001
574.197	1.009
582.907	1.017
591.617	1.019
600.327	1.023
609.037	1.025
617.746	1.031
626.456	1.02
635.166	1.008
643.876	0.978
652.586	0.805
661.296	0.645
670.006	0.868
678.716	0.941
687.425	0.975
696.135	0.982
704.845	0.987
713.555	0.97
722.265	0.927
730.975	0.741
739.685	0.152
748.395	0.001
757.104	0.634
765.814	0.9
774.524	0.961
783.234	0.98
791.944	0.986
800.654	0.993
809.364	0.995
818.073	0.994
826.783	0.989
835.493	0.971
844.203	0.957
852.913	0.949
861.623	0.967
870.333	0.953
879.043	0.983
887.752	0.987
896.462	0.983
905.172	0.989
913.882	0.986
922.592	0.971
931.302	0.93
940.012	0.85
948.722	0.959
957.431	0.97
966.141	0.967
974.851	0.963
983.561	0.966
992.271	0.967
1000.98	0.952
1009.69	0.879
1018.4	0.802
1027.11	0.691
1035.82	0.016
1044.53	0.858
1053.24	0.955
1061.95	0.97
1070.66	0.963
1079.37	0.97
1088.08	0.959
1096.79	0.975
1105.5	0.952
1114.21	0.853
1122.92	0.3339
1131.63	0.211
1140.34	0.769
1149.05	0.868
1157.76	0.872
1166.47	0.839
1175.18	0.847
1183.89	0.9
1192.6	0.979
1201.31	0.99
1210.02	0.987
1218.73	0.991
1227.44	0.997
1236.15	0.989
1244.86	0.949
1253.57	0.849
1262.28	0.898
1270.99	0.955
1279.7	0.961
1288.41	0.976
1297.12	0.978
1305.83	1
1314.54	1.002
1323.25	1.002
1331.96	1.006
1340.67	1.008
1349.38	1.004
1358.09	0.983
1366.8	0.927
1375.51	0.998
1384.22	1.008
1392.92	0.976
1401.63	0.961
1410.34	0.879
1419.05	0.945
1427.76	0.8679
1436.47	0.1109
1445.18	0.817
1453.89	0.3078
1462.6	0.307
1471.31	0.7241
1480.02	0.83
1488.73	0.7561
1497.44	0.959
1506.15	0.985
1514.86	1.005
1523.57	1.01
1532.28	1.013
1540.99	1.016
1549.7	1.01
1558.41	0.989
1567.12	0.948
1575.83	0.5621
1584.54	0.974
1593.25	0.98
1601.96	0.922
1610.67	0.966
1619.38	1.006
1628.09	1.02
1636.8	1.027
1645.51	1.035
1654.22	1.025
1662.93	1.014
1671.64	1.004
1680.35	0.997
1689.06	0.964
1697.77	0.986
1706.48	0.987
1715.19	0.997
1723.9	0.997
1732.61	0.997
1741.32	1
1750.03	0.997
1758.74	1.002
1767.45	1.005
1776.16	0.993
1784.87	0.972
1793.58	0.891
1802.29	0.98
1811	0.998
1819.71	0.993
1828.42	0.974
1837.13	0.995
1845.84	1.004
1854.55	1.002
1863.26	1.004
1871.97	0.998
1880.68	0.97
1889.39	0.995
1898.1	0.998
1906.81	0.975
1915.52	0.903
1924.23	0.994
1932.94	0.997
1941.65	0.979
1950.36	0.942
1959.07	1.0101
1967.78	1.002
1976.49	1.006
1985.2	1.006
1993.91	1.012
2002.62	1.0115
2011.33	1.0155
2020.04	1.014
2028.75	1.0175
2037.46	1.0135
2046.17	1.0165
2054.88	1.0125
2063.58	1.0141
2072.29	1.0111
2081	1.013
2089.71	1.012
2098.42	1.012
2107.13	1.008
2115.84	1.0051
2124.55	1.0111
2133.26	1.01
2141.97	1.01
2150.68	1.009
2159.39	1.008
2168.1	1.004
2176.81	1.0046
2185.52	1.0069
2194.23	1.004
2202.94	1.002
2211.65	1.0056
2220.36	1.006
2229.07	1.004
2237.78	1.005
2246.49	1.0044
2255.2	1.0004
2263.91	1.0016
2272.62	1.0014
2281.33	0.9952
2290.04	0.9896
2298.75	0.997
2307.46	0.9944
2316.17	0.9906
2324.88	0.9934
2333.59	0.9963
2342.3	1.001
2351.01	0.9974
2359.72	0.997
2368.43	0.9957
2377.14	0.9879
2385.85	0.998
2394.56	0.9987
2403.27	0.995
2411.98	1.0007
2420.69	1.0014
2429.4	0.998
2438.11	1.0003
2446.82	1
2455.53	1.0017
2464.24	1
2472.95	1.0017
2481.66	1.0057
2490.37	1.0066
2499.08	1.0043
2507.79	1.004
2516.5	1.005
2525.21	1.004
2533.92	0.9973
2542.63	0.9812
2551.34	0.9835
2560.05	1.001
2568.76	1.004
2577.47	1.0026
2586.18	0.9994
2594.89	1.002
2603.6	0.9914
2612.31	1.0017
2621.02	1.0047
2629.73	1.005
2638.44	1.0082
2647.15	1.0088
2655.86	1.006
2664.57	1.006
2673.28	1.008
2681.99	1.008
2690.7	1.0025
2699.41	1
2708.12	0.9938
2716.83	1.001
2725.54	1.001
2734.24	1.0024
2742.95	1.0076
2751.66	1.006
2760.37	1.0082
2769.08	1.0066
2777.79	1.009
2786.5	1.008
2795.21	1.012
2803.92	1.005
2812.63	1.004
2821.34	1.0058
2830.05	1.0064
2838.76	1.005
2847.47	1.004
2856.18	1.004
2864.89	1.0076
2873.6	1.009
2882.31	1.009
2891.02	1.01
2899.73	1.0092
2908.44	1.0042
2917.15	0.998
2925.86	0.998
2934.57	1.0037
2943.28	1.0049
2951.99	1.004
2960.7	1
2969.41	0.998
2978.12	0.9952
2986.83	0.9893
2995.54	0.9859
3004.25	0.993
3012.96	0.991
3021.67	0.9825
3030.38	0.9847
3039.09	0.9781
3047.8	0.9723
3056.51	0.9365
3065.22	0.8508
3073.93	0.7739
3082.64	0.933
3091.35	0.9756
3100.06	0.9928
3108.77	0.997
3117.48	1
3126.19	1.001
3134.9	1
3143.61	0.9902
3152.32	1.0078
3161.03	1.01
3169.74	1.0091
3178.45	1.0139
3187.16	1.012
3195.87	1.014
3204.58	1.013
3213.29	1.0159
3222	1.017
3230.71	1.014
3239.42	1.02
3248.13	1.019
3256.84	1.021
3265.55	1.02
3274.26	1.025
3282.97	1.023
3291.68	1.024
3300.39	1.024
3309.1	1.025
3317.81	1.025
3326.52	1.025
3335.23	1.025
3343.94	1.027
3352.65	1.027
3361.36	1.027
3370.07	1.031
3378.78	1.033
3387.49	1.032
3396.19	1.032
3404.9	1.031
3413.61	1.0309
3422.32	1.025
3431.03	1.025
3439.74	1.025
3448.45	1.025
3457.16	1.025
3465.87	1.021
3474.58	1.0209
3483.29	1.0171
3492	1.017
3500.71	1.019
3509.42	1.0189
3518.13	1.0169
3526.84	1.0161
3535.55	1.0121
3544.26	1.0131
3552.97	1.016
3561.68	1.014
3570.39	1.014
3579.1	1.017
3587.81	1.017
3596.52	1.013
3605.23	1.013
3613.94	1.014
3622.65	1.0131
3631.36	1.013
3640.07	1.013
3648.78	1.0139
3657.49	1.0117
3666.2	1.012
3674.91	1.014
3683.62	1.0143
3692.33	1.0129
3701.04	1.008
3709.75	1.006
3718.46	1.0037
3727.17	1.0008
3735.88	1.0002
3744.59	1.005
3753.3	1.008
3762.01	1.0104
3770.72	1.01
3779.43	1.005
3788.14	1.002
3796.85	1.002
