Infrared Spectrum: E-BENZAMIDO COPROIC ACID
Formula: C13 H17 N O3
CAS: 956-09-2
State: SOLID (MINERAL OIL MULL)
Class: COBLENTZ
Instrument: Not specified, most likely a prism, grating, or hybrid spectrometer.
Sampling: TRANSMISSION
Resolution: 4
Origin: DOW CHEMICAL COMPANY
MICROMETERS	TRANSMITTANCE
2.013	0.657
2.05302	0.66
2.09304	0.663
2.13306	0.668
2.17308	0.678
2.21311	0.68
2.25313	0.673
2.29315	0.672
2.33317	0.673
2.37319	0.678
2.41321	0.687
2.45323	0.688
2.49325	0.702
2.53328	0.712
2.5733	0.723
2.61332	0.737
2.65334	0.738
2.69336	0.743
2.73338	0.747
2.7734	0.753
2.81342	0.762
2.85345	0.763
2.89347	0.76
2.93349	0.705
2.97351	0.492
3.01353	0.357
3.05355	0.55
3.09357	0.595
3.13359	0.589
3.17362	0.562
3.21364	0.515
3.25366	0.46
3.29368	0.432
3.3337	0.354
3.37372	0.113
3.41374	0.048
3.45376	0.083
3.49378	0.141
3.53381	0.432
3.57383	0.555
3.61385	0.599
3.65387	0.603
3.69389	0.587
3.73391	0.592
3.77393	0.613
3.81395	0.615
3.85398	0.633
3.894	0.67
3.93402	0.702
3.97404	0.727
4.01406	0.755
4.05408	0.778
4.0941	0.787
4.13412	0.79
4.17415	0.788
4.21417	0.792
4.25419	0.813
4.29421	0.843
4.33423	0.846
4.37425	0.841
4.41427	0.845
4.45429	0.851
4.49431	0.851
4.53434	0.858
4.57436	0.863
4.61438	0.86
4.6544	0.861
4.69442	0.865
4.73444	0.865
4.77446	0.873
4.81448	0.881
4.85451	0.885
4.89453	0.881
4.93455	0.883
4.97457	0.888
5.01459	0.885
5.05461	0.885
5.09463	0.885
5.13465	0.885
5.17468	0.883
5.2147	0.883
5.25472	0.881
5.29474	0.876
5.33476	0.878
5.37478	0.881
5.4148	0.871
5.45482	0.851
5.49485	0.848
5.53487	0.851
5.57489	0.858
5.61491	0.851
5.65493	0.83
5.69495	0.793
5.73497	0.742
5.77499	0.57
5.81501	0.316
5.85504	0.163
5.89506	0.169
5.93508	0.374
5.9751	0.677
6.01512	0.71
6.05514	0.608
6.09516	0.294
6.13518	0.114
6.17521	0.405
6.21523	0.567
6.25525	0.715
6.29527	0.642
6.33529	0.544
6.37531	0.627
6.41533	0.549
6.45535	0.447
6.49538	0.227
6.5354	0.169
6.57542	0.454
6.61544	0.638
6.65546	0.687
6.69548	0.542
6.7355	0.474
6.77552	0.349
6.81555	0.286
6.85557	0.304
6.89559	0.371
6.93561	0.477
6.97563	0.642
7.01565	0.585
7.05567	0.492
7.09569	0.602
7.13571	0.692
7.17574	0.688
7.21576	0.554
7.25578	0.492
7.2958	0.574
7.33582	0.63
7.37584	0.592
7.41586	0.53
7.45588	0.632
7.49591	0.603
7.53593	0.454
7.57595	0.337
7.61597	0.376
7.65599	0.41
7.69601	0.354
7.73603	0.377
7.77605	0.412
7.81608	0.391
7.8561	0.439
7.89612	0.519
7.93614	0.62
7.97616	0.657
8.01618	0.683
8.0562	0.622
8.09622	0.525
8.13625	0.587
8.17627	0.697
8.21629	0.752
8.25631	0.77
8.29633	0.787
8.33635	0.792
8.37637	0.798
8.41639	0.788
8.45641	0.785
8.49644	0.783
8.53646	0.76
8.57648	0.745
8.6165	0.757
8.65652	0.772
8.69654	0.785
8.73656	0.813
8.77658	0.826
8.81661	0.831
8.85663	0.835
8.89665	0.831
8.93667	0.815
8.97669	0.778
9.01671	0.703
9.05673	0.658
9.09675	0.657
9.13678	0.698
9.1768	0.783
9.21682	0.797
9.25684	0.778
9.29686	0.73
9.33688	0.763
9.3769	0.803
9.41692	0.805
9.45694	0.813
9.49697	0.816
9.53699	0.823
9.57701	0.828
9.61703	0.828
9.65705	0.823
9.69707	0.788
9.73709	0.76
9.77711	0.792
9.81714	0.772
9.85716	0.762
9.89718	0.78
9.9372	0.793
9.97722	0.792
10.0172	0.8
10.0573	0.803
10.0973	0.803
10.1373	0.795
10.1773	0.785
10.2173	0.778
10.2574	0.763
10.2974	0.745
10.3374	0.725
10.3774	0.703
10.4175	0.678
10.4575	0.653
10.4975	0.627
10.5375	0.597
10.5775	0.575
10.6176	0.572
10.6576	0.577
10.6976	0.594
10.7376	0.61
10.7776	0.612
10.8177	0.582
10.8577	0.632
10.8977	0.703
10.9377	0.722
10.9778	0.723
11.0178	0.728
11.0578	0.74
11.0978	0.752
11.1378	0.765
11.1779	0.772
11.2179	0.775
11.2579	0.783
11.2979	0.79
11.3379	0.797
11.378	0.8
11.418	0.8
11.458	0.792
11.498	0.753
11.538	0.687
11.5781	0.695
11.6181	0.753
11.6581	0.792
11.6981	0.808
11.7382	0.821
11.7782	0.828
11.8182	0.833
11.8582	0.831
11.8982	0.835
11.9383	0.843
11.9783	0.85
12.0183	0.853
12.0583	0.855
12.0983	0.855
12.1384	0.856
12.1784	0.858
12.2184	0.858
12.2584	0.856
12.2985	0.856
12.3385	0.855
12.3785	0.831
12.4185	0.762
12.4585	0.703
12.4986	0.768
12.5386	0.831
12.5786	0.845
12.6186	0.845
12.6586	0.843
12.6987	0.841
12.7387	0.843
12.7787	0.836
12.8187	0.831
12.8587	0.826
12.8988	0.813
12.9388	0.801
12.9788	0.798
13.0188	0.806
13.0589	0.813
13.0989	0.816
13.1389	0.813
13.1789	0.811
13.2189	0.803
13.259	0.798
13.299	0.792
13.339	0.783
13.379	0.773
13.419	0.76
13.4591	0.733
13.4991	0.702
13.5391	0.663
13.5791	0.648
13.6192	0.663
13.6592	0.683
13.6992	0.683
13.7392	0.668
13.7792	0.635
13.8193	0.58
13.8593	0.502
13.8993	0.402
13.9393	0.321
13.9793	0.309
14.0194	0.359
14.0594	0.435
14.0994	0.495
14.1394	0.535
14.1794	0.56
14.2195	0.562
14.2595	0.55
14.2995	0.515
14.3395	0.447
14.3796	0.361
14.4196	0.274
14.4596	0.252
14.4996	0.302
14.5396	0.391
14.5797	0.485
14.6197	0.524
14.6597	0.539
14.6997	0.537
14.7397	0.529
14.7798	0.502
14.8198	0.474
14.8598	0.442
14.8998	0.424
14.9399	0.422
14.9799	0.437
15.0199	0.445
15.0599	0.44
15.0999	0.425
15.14	0.414
15.18	0.4
15.22	0.387
15.26	0.366
15.3	0.349
15.3401	0.332
15.3801	0.311
15.4201	0.287
15.4601	0.269
15.5001	0.254
15.5402	0.249
15.5802	0.246
15.6202	0.244
15.6602	0.244
15.7003	0.247
15.7403	0.252
15.7803	0.262
15.8203	0.274
15.8603	0.286
15.9004	0.286
