Infrared Spectrum: BUTYROLACTONE
Formula: C4 H6 O2
CAS: 96-48-0
State: SOLUTION (10% IN CCl4 FOR 3800-1330, 10% IN CS2 FOR 1330-460 CM^-^1)
Class: COBLENTZ III
Instrument: DOW KBr FOREPRISM-GRATING
Instrument parameters: BLAZED AT 3.5, 12.0, 20.0 MICRON, CHANGED AT 5.0, 7.5, 14.9 MICRON
Sampling: TRANSMISSION
Path length: 0.011, 0.011 CM
Resolution: 4
Origin: DOW CHEMICAL COMPANY
1/CM	TRANSMITTANCE
454.752	0.838
463.289	0.848
471.827	0.851
480.364	0.847
488.901	0.77
497.438	0.6
505.976	0.85
514.513	0.858
523.05	0.844
531.588	0.736
540.125	0.792
548.662	0.872
557.199	0.907
565.737	0.927
574.274	0.937
582.811	0.945
591.349	0.943
599.886	0.938
608.423	0.927
616.96	0.901
625.498	0.814
634.035	0.629
642.572	0.775
651.109	0.787
659.647	0.819
668.184	0.748
676.721	0.636
685.259	0.818
693.796	0.877
702.333	0.897
710.87	0.917
719.408	0.927
727.945	0.942
736.482	0.954
745.02	0.958
753.557	0.957
762.094	0.957
770.631	0.949
779.169	0.922
787.706	0.868
796.243	0.687
804.781	0.725
813.318	0.85
821.855	0.871
830.392	0.863
838.93	0.815
847.467	0.707
856.004	0.54
864.542	0.328
873.079	0.421
881.616	0.564
890.153	0.618
898.691	0.791
907.228	0.855
915.765	0.85
924.302	0.7
932.84	0.562
941.377	0.802
949.914	0.889
958.452	0.879
966.989	0.86
975.526	0.792
984.063	0.517
992.601	0.07
1001.14	0.259
1009.68	0.647
1018.21	0.663
1026.75	0.446
1035.29	0.038
1043.82	0.032
1052.36	0.541
1060.9	0.664
1069.44	0.695
1077.97	0.585
1086.51	0.673
1095.05	0.751
1103.59	0.748
1112.12	0.707
1120.66	0.624
1129.2	0.557
1137.73	0.382
1146.27	0.137
1154.81	0.006
1163.35	0
1171.88	0
1180.42	0.046
1188.96	0.223
1197.5	0.334
1206.03	0.518
1214.57	0.601
1223.11	0.62
1231.64	0.538
1240.18	0.498
1248.72	0.704
1257.26	0.768
1265.79	0.751
1274.33	0.622
1282.87	0.66
1291.41	0.7
1299.94	0.803
1308.48	0.826
1317.02	0.766
1325.55	0.839
1334.09	0.848
1342.63	0.82
1351.17	0.827
1359.7	0.759
1368.24	0.513
1376.78	0.1
1385.32	0.455
1393.85	0.719
1402.39	0.763
1410.93	0.737
1419.46	0.562
1428	0.366
1436.54	0.752
1445.08	0.784
1453.61	0.711
1462.15	0.302
1470.69	0.723
1479.23	0.739
1487.76	0.629
1496.3	0.767
1504.84	0.745
1513.37	0.712
1521.91	0.672
1530.45	0.616
1538.99	0.565
1547.52	0.495
1556.06	0.501
1564.6	0.562
1573.14	0.621
1581.67	0.64
1590.21	0.653
1598.75	0.701
1607.28	0.771
1615.82	0.79
1624.36	0.822
1632.9	0.851
1641.43	0.855
1649.97	0.823
1658.51	0.807
1667.05	0.804
1675.58	0.831
1684.12	0.838
1692.66	0.823
1701.2	0.772
1709.73	0.683
1718.27	0.596
1726.81	0.502
1735.34	0.402
1743.88	0.318
1752.42	0.163
1760.96	0.038
1769.49	0
1778.03	0
1786.57	0
1795.11	0
1803.64	0.03
1812.18	0.181
1820.72	0.354
1829.25	0.433
1837.79	0.512
1846.33	0.665
1854.87	0.759
1863.4	0.788
1871.94	0.814
1880.48	0.835
1889.02	0.868
1897.55	0.878
1906.09	0.871
1914.63	0.897
1923.16	0.909
1931.7	0.906
1940.24	0.894
1948.78	0.883
1957.31	0.883
1965.85	0.898
1974.39	0.913
1982.93	0.911
1991.46	0.913
2000	0.911
2008.54	0.909
2017.07	0.89
2025.61	0.863
2034.15	0.868
2042.69	0.887
2051.22	0.905
2059.76	0.919
2068.3	0.918
2076.84	0.917
2085.37	0.931
2093.91	0.935
2102.45	0.941
2110.98	0.943
2119.52	0.945
2128.06	0.946
2136.6	0.951
2145.13	0.951
2153.67	0.953
2162.21	0.9529
2170.75	0.95
2179.28	0.95
2187.82	0.9489
2196.36	0.943
2204.89	0.942
2213.43	0.945
2221.97	0.9409
2230.51	0.9349
2239.04	0.915
2247.58	0.918
2256.12	0.922
2264.66	0.922
2273.19	0.9209
2281.73	0.915
2290.27	0.9068
2298.8	0.8929
2307.34	0.8778
2315.88	0.874
2324.42	0.8851
2332.95	0.9052
2341.49	0.9251
2350.03	0.9331
2358.57	0.9492
2367.1	0.954
2375.64	0.951
2384.18	0.9499
2392.71	0.946
2401.25	0.946
2409.79	0.946
2418.33	0.9531
2426.86	0.953
2435.4	0.95
2443.94	0.9429
2452.48	0.9391
2461.01	0.9451
2469.55	0.9491
2478.09	0.955
2486.62	0.955
2495.16	0.955
2503.7	0.955
2512.24	0.954
2520.77	0.9488
2529.31	0.9408
2537.85	0.941
2546.39	0.9503
2554.92	0.954
2563.46	0.954
2572	0.9531
2580.54	0.954
2589.07	0.9541
2597.61	0.9552
2606.15	0.9571
2614.68	0.959
2623.22	0.959
2631.76	0.9568
2640.3	0.9552
2648.83	0.9568
2657.37	0.957
2665.91	0.957
2674.45	0.961
2682.98	0.961
2691.52	0.958
2700.06	0.958
2708.59	0.955
2717.13	0.9405
2725.67	0.927
2734.21	0.9301
2742.74	0.9395
2751.28	0.9504
2759.82	0.954
2768.36	0.9536
2776.89	0.9541
2785.43	0.955
2793.97	0.9509
2802.5	0.9469
2811.04	0.9429
2819.58	0.9305
2828.12	0.9069
2836.65	0.911
2845.19	0.8966
2853.73	0.8717
2862.27	0.8614
2870.8	0.8222
2879.34	0.7249
2887.88	0.6853
2896.41	0.4904
2904.95	0.3878
2913.49	0.3324
2922.03	0.4755
2930.56	0.5561
2939.1	0.5261
2947.64	0.5212
2956.18	0.505
2964.71	0.4678
2973.25	0.4052
2981.79	0.355
2990.32	0.2752
2998.86	0.3274
3007.4	0.4952
3015.94	0.6623
3024.47	0.8137
3033.01	0.8673
3041.55	0.8905
3050.09	0.9053
3058.62	0.9142
3067.16	0.9233
3075.7	0.931
3084.23	0.935
3092.77	0.9372
3101.31	0.939
3109.85	0.9422
3118.38	0.943
3126.92	0.9462
3135.46	0.949
3144	0.9468
3152.53	0.946
3161.07	0.9476
3169.61	0.9502
3178.14	0.95
3186.68	0.95
3195.22	0.953
3203.76	0.955
3212.29	0.957
3220.83	0.958
3229.37	0.955
3237.91	0.958
3246.44	0.959
3254.98	0.962
3263.52	0.9628
3272.05	0.965
3280.59	0.9634
3289.13	0.967
3297.67	0.967
3306.2	0.969
3314.74	0.969
3323.28	0.9698
3331.82	0.9686
3340.35	0.967
3348.89	0.967
3357.43	0.967
3365.96	0.969
3374.5	0.97
3383.04	0.9708
3391.58	0.971
3400.11	0.969
3408.65	0.967
3417.19	0.966
3425.73	0.9628
3434.26	0.958
3442.8	0.9565
3451.34	0.9538
3459.88	0.9485
3468.41	0.9413
3476.95	0.9325
3485.49	0.9203
3494.02	0.9065
3502.56	0.889
3511.1	0.8698
3519.64	0.8402
3528.17	0.822
3536.71	0.828
3545.25	0.8473
3553.79	0.868
3562.32	0.8945
3570.86	0.9002
3579.4	0.9233
3587.93	0.9435
3596.47	0.942
3605.01	0.9493
3613.55	0.953
3622.08	0.9543
3630.62	0.958
3639.16	0.958
3647.7	0.958
3656.23	0.9564
3664.77	0.9445
3673.31	0.935
3681.84	0.9441
3690.38	0.9647
3698.92	0.9783
3707.46	0.9816
3715.99	0.987
3724.53	0.991
3733.07	0.9897
3741.61	0.989
3750.14	0.991
3758.68	0.9907
3767.22	0.989
3775.75	0.986
3784.29	0.9879
3792.83	0.99
3801.37	0.989
