Infrared Spectrum: 2-FURALDEHYDE
Formula: C5 H4 O2
CAS: 98-01-1
State: LIQUID (NEAT)
Class: COBLENTZ III
Instrument: PERKIN-ELMER 521 (GRATING)
Instrument parameters: FILTERS AT 3150, 2500, 2000, 1150, 700, 410 AND GRATING CHANGES AT 2000, 630 CM^-^1
Sampling: TRANSMISSION
Path length: CAPILLARY
Resolution: 4
Origin: STANDARD OIL OF OHIO
1/CM	TRANSMITTANCE
633.401	0.799
641.99	0.828
650.579	0.846
659.168	0.857
667.757	0.859
676.346	0.859
684.935	0.858
693.524	0.851
702.113	0.838
710.702	0.824
719.291	0.807
727.88	0.7601
736.468	0.5692
745.057	0.1541
753.646	0.073
762.235	0.148
770.824	0.175
779.413	0.2839
788.002	0.487
796.591	0.683
805.18	0.78
813.769	0.812
822.358	0.813
830.947	0.77
839.536	0.727
848.125	0.77
856.714	0.833
865.303	0.844
873.892	0.788
882.481	0.4429
891.07	0.758
899.659	0.81
908.248	0.82
916.837	0.7591
925.425	0.3323
934.014	0.6189
942.603	0.6801
951.192	0.8209
959.781	0.859
968.37	0.862
976.959	0.857
985.548	0.833
994.137	0.78
1002.73	0.6801
1011.32	0.3092
1019.9	0.1649
1028.49	0.6309
1037.08	0.812
1045.67	0.853
1054.26	0.856
1062.85	0.834
1071.44	0.6932
1080.03	0.525
1088.62	0.8439
1097.2	0.882
1105.79	0.892
1114.38	0.891
1122.97	0.887
1131.56	0.866
1140.15	0.787
1148.74	0.543
1157.33	0.4049
1165.92	0.8149
1174.51	0.863
1183.09	0.862
1191.68	0.86
1200.27	0.837
1208.86	0.824
1217.45	0.726
1226.04	0.755
1234.63	0.718
1243.22	0.612
1251.81	0.696
1260.39	0.661
1268.98	0.4432
1277.57	0.2939
1286.16	0.6839
1294.75	0.844
1303.34	0.884
1311.93	0.895
1320.52	0.894
1329.11	0.894
1337.7	0.884
1346.28	0.866
1354.87	0.814
1363.46	0.3921
1372.05	0.7
1380.64	0.638
1389.23	0.0971
1397.82	0.557
1406.41	0.774
1415	0.821
1423.58	0.826
1432.17	0.791
1440.76	0.74
1449.35	0.674
1457.94	0.2461
1466.53	0.214
1475.12	0.25
1483.71	0.563
1492.3	0.709
1500.89	0.799
1509.47	0.821
1518.06	0.835
1526.65	0.846
1535.24	0.845
1543.83	0.84
1552.42	0.793
1561.01	0.4761
1569.6	0.43
1578.19	0.799
1586.78	0.813
1595.36	0.806
1603.95	0.776
1612.54	0.737
1621.13	0.69
1629.72	0.67
1638.31	0.598
1646.9	0.577
1655.49	0.392
1664.08	0.058
1672.66	0.022
1681.25	0.033
1689.84	0.029
1698.43	0.103
1707.02	0.4609
1715.61	0.68
1724.2	0.724
1732.79	0.763
1741.38	0.789
1749.97	0.81
1758.55	0.813
1767.14	0.8
1775.73	0.768
1784.32	0.814
1792.91	0.871
1801.5	0.891
1810.09	0.9
1818.68	0.902
1827.27	0.904
1835.85	0.91
1844.44	0.914
1853.03	0.915
1861.62	0.916
1870.21	0.914
1878.8	0.902
1887.39	0.894
1895.98	0.895
1904.57	0.909
1913.16	0.92
1921.74	0.923
1930.33	0.923
1938.92	0.921
1947.51	0.919
1956.1	0.916
1964.69	0.916
1973.28	0.916
1981.87	0.915
1990.46	0.919
1999.04	0.916
2007.63	0.914
2016.22	0.908
2024.81	0.8951
2033.4	0.8974
2041.99	0.9119
2050.58	0.919
2059.17	0.917
2067.76	0.917
2076.35	0.915
2084.93	0.9043
2093.52	0.889
2102.11	0.9047
2110.7	0.9209
2119.29	0.922
2127.88	0.922
2136.47	0.9187
2145.06	0.913
2153.65	0.914
2162.23	0.913
2170.82	0.912
2179.41	0.9149
2188	0.915
2196.59	0.914
2205.18	0.9136
2213.77	0.913
2222.36	0.9086
2230.95	0.9099
2239.54	0.9194
2248.12	0.9219
2256.71	0.923
2265.3	0.925
2273.89	0.9237
2282.48	0.923
2291.07	0.922
2299.66	0.922
2308.25	0.919
2316.84	0.9218
2325.43	0.926
2334.01	0.926
2342.6	0.925
2351.19	0.9234
2359.78	0.9217
2368.37	0.9174
2376.96	0.914
2385.55	0.914
2394.14	0.913
2402.73	0.9062
2411.31	0.9025
2419.9	0.9097
2428.49	0.91
2437.08	0.91
2445.67	0.9105
2454.26	0.913
2462.85	0.9072
2471.44	0.9144
2480.03	0.9158
2488.62	0.914
2497.2	0.913
2505.79	0.91
2514.38	0.9152
2522.97	0.917
2531.56	0.915
2540.15	0.9036
2548.74	0.9007
2557.33	0.9157
2565.92	0.917
2574.5	0.917
2583.09	0.917
2591.68	0.9164
2600.27	0.9159
2608.86	0.9107
2617.45	0.908
2626.04	0.9064
2634.63	0.9019
2643.22	0.898
2651.81	0.8979
2660.39	0.8922
2668.98	0.8883
2677.57	0.902
2686.16	0.902
2694.75	0.8957
2703.34	0.8701
2711.93	0.8187
2720.52	0.8255
2729.11	0.8702
2737.69	0.8759
2746.28	0.8497
2754.87	0.8221
2763.46	0.8385
2772.05	0.8256
2780.64	0.7999
2789.23	0.7735
2797.82	0.6901
2806.41	0.621
2815	0.6275
2823.58	0.6652
2832.17	0.702
2840.76	0.638
2849.35	0.6185
2857.94	0.6488
2866.53	0.7102
2875.12	0.7696
2883.71	0.8178
2892.3	0.8399
2900.89	0.8465
2909.47	0.847
2918.06	0.843
2926.65	0.8449
2935.24	0.8574
2943.83	0.86
2952.42	0.858
2961.01	0.8628
2969.6	0.8768
2978.19	0.8908
2986.77	0.9
2995.36	0.898
3003.95	0.8956
3012.54	0.8902
3021.13	0.8776
3029.72	0.877
3038.31	0.877
3046.9	0.8761
3055.49	0.8743
3064.08	0.872
3072.66	0.8619
3081.25	0.8474
3089.84	0.8205
3098.43	0.7674
3107.02	0.713
3115.61	0.6787
3124.2	0.5889
3132.79	0.517
3141.38	0.6081
3149.96	0.6284
3158.55	0.7343
3167.14	0.8124
3175.73	0.8442
3184.32	0.8588
3192.91	0.8696
3201.5	0.8778
3210.09	0.8833
3218.68	0.885
3227.27	0.883
3235.85	0.8848
3244.44	0.8943
3253.03	0.8992
3261.62	0.9093
3270.21	0.913
3278.8	0.915
3287.39	0.9153
3295.98	0.915
3304.57	0.9133
3313.15	0.9094
3321.74	0.8973
3330.33	0.8712
3338.92	0.859
3347.51	0.8634
3356.1	0.8748
3364.69	0.8907
3373.28	0.9054
3381.87	0.9125
3390.46	0.92
3399.04	0.923
3407.63	0.925
3416.22	0.923
3424.81	0.925
3433.4	0.9247
3441.99	0.923
3450.58	0.923
3459.17	0.922
3467.76	0.92
3476.35	0.9178
3484.93	0.915
3493.52	0.9128
3502.11	0.908
3510.7	0.906
3519.29	0.9061
3527.88	0.907
3536.47	0.9069
3545.06	0.906
3553.65	0.9061
3562.23	0.907
3570.82	0.906
3579.41	0.906
3588	0.9041
3596.59	0.907
3605.18	0.906
3613.77	0.9065
3622.36	0.907
3630.95	0.907
3639.54	0.909
3648.12	0.9125
3656.71	0.915
3665.3	0.9205
3673.89	0.928
3682.48	0.9325
3691.07	0.936
3699.66	0.938
3708.25	0.939
3716.84	0.939
3725.42	0.94
3734.01	0.939
3742.6	0.938
3751.19	0.939
3759.78	0.939
3768.37	0.94
3776.96	0.94
3785.55	0.94
3794.14	0.94
3802.73	0.94
3811.31	0.94
3819.9	0.939
3828.49	0.9381
3837.08	0.939
3845.67	0.938
3854.26	0.936
3862.85	0.936
3871.44	0.936
3880.03	0.935
3888.61	0.935
3897.2	0.934
3905.79	0.933
3914.38	0.933
3922.97	0.9346
3931.56	0.934
3940.15	0.935
3948.74	0.935
3957.33	0.9337
3965.92	0.9322
3974.5	0.931
3983.09	0.9286
3991.68	0.9198
4000.27	0.9072
