Infrared Spectrum: BENZENE, (1,1-DIMETHYLETHYL)-
Formula: C10 H14
CAS: 98-06-6
State: SOLUTION (10% IN CCl4 FOR 3800-1300, 10% IN CS2 FOR 1300-650, AND 10% CCl4 FOR 650-240 CM^-^1) VERSUS SOLVENT
Class: COBLENTZ III
Instrument: PERKIN-ELMER 521 (GRATING)
Instrument parameters: FILTERS AT 3150, 2500, 2000, 1150, 700, 410; GRATING CHANGES AT 2000, 630 CM^-^1
Sampling: TRANSMISSION
Path length: 0.011, 0.010, AND 0.010 CM (CsBr CELL)
Resolution: 4
Origin: DOW CORNING CORP.
1/CM	TRANSMITTANCE
234.517	0.825
243.466	0.823
252.415	0.825
261.364	0.823
270.312	0.825
279.261	0.828
288.21	0.828
297.159	0.832
306.108	0.835
315.057	0.834
324.006	0.841
332.955	0.842
341.903	0.844
350.852	0.846
359.801	0.846
368.75	0.849
377.699	0.848
386.648	0.849
395.597	0.849
404.546	0.851
413.494	0.858
422.443	0.86
431.392	0.862
440.341	0.865
449.29	0.865
458.239	0.865
467.188	0.874
476.136	0.876
485.085	0.883
494.034	0.881
502.983	0.876
511.932	0.87
520.881	0.858
529.83	0.815
538.779	0.6473
547.727	0.4375
556.676	0.834
565.625	0.863
574.574	0.874
583.523	0.881
592.472	0.888
601.421	0.897
610.369	0.904
619.318	0.9
628.267	0.898
637.216	0.897
646.165	0.895
655.114	0.886
664.063	0.863
673.012	0.799
681.96	0.76
690.909	0.5183
699.858	0.0849
708.807	0.713
717.756	0.879
726.705	0.91
735.654	0.907
744.603	0.8741
753.551	0.6732
762.5	0.034
771.449	0.839
780.398	0.917
789.347	0.926
798.296	0.93
807.245	0.926
816.193	0.923
825.142	0.904
834.091	0.8182
843.04	0.91
851.989	0.921
860.938	0.923
869.887	0.917
878.836	0.914
887.784	0.91
896.733	0.883
905.682	0.8479
914.631	0.881
923.58	0.874
932.529	0.897
941.478	0.907
950.427	0.904
959.375	0.905
968.324	0.904
977.273	0.907
986.222	0.907
995.171	0.902
1004.12	0.898
1013.07	0.877
1022.02	0.7991
1030.97	0.5537
1039.92	0.9
1048.86	0.909
1057.81	0.9
1066.76	0.876
1075.71	0.7272
1084.66	0.876
1093.61	0.895
1102.56	0.8551
1111.51	0.619
1120.46	0.928
1129.4	0.924
1138.35	0.916
1147.3	0.895
1156.25	0.895
1165.2	0.891
1174.15	0.884
1183.1	0.844
1192.05	0.8041
1200.99	0.7589
1209.94	0.888
1218.89	0.891
1227.84	0.876
1236.79	0.856
1245.74	0.855
1254.69	0.7801
1263.64	0.4222
1272.59	0.799
1281.53	0.856
1290.48	0.874
1299.43	0.883
1308.38	0.883
1317.33	0.888
1326.28	0.884
1335.23	0.876
1344.18	0.856
1353.13	0.802
1362.07	0.4971
1371.02	0.3654
1379.97	0.773
1388.92	0.755
1397.87	0.5671
1406.82	0.858
1415.77	0.853
1424.72	0.816
1433.67	0.7381
1442.61	0.5131
1451.56	0.5608
1460.51	0.4971
1469.46	0.481
1478.41	0.493
1487.36	0.603
1496.31	0.0986
1505.26	0.7829
1514.21	0.849
1523.15	0.853
1532.1	0.848
1541.05	0.879
1550	0.895
1558.95	0.888
1567.9	0.876
1576.85	0.851
1585.8	0.832
1594.75	0.729
1603.69	0.563
1612.64	0.821
1621.59	0.872
1630.54	0.881
1639.49	0.884
1648.44	0.881
1657.39	0.869
1666.34	0.865
1675.28	0.879
1684.23	0.881
1693.18	0.881
1702.13	0.881
1711.08	0.874
1720.03	0.865
1728.98	0.869
1737.93	0.846
1746.88	0.846
1755.82	0.895
1764.77	0.898
1773.72	0.886
1782.67	0.881
1791.62	0.862
1800.57	0.83
1809.52	0.867
1818.47	0.874
1827.42	0.893
1836.36	0.897
1845.31	0.891
1854.26	0.881
1863.21	0.853
1872.16	0.827
1881.11	0.846
1890.06	0.87
1899.01	0.884
1907.96	0.886
1916.9	0.886
1925.85	0.879
1934.8	0.86
1943.75	0.801
1952.7	0.853
1961.65	0.855
1970.6	0.893
1979.55	0.895
1988.5	0.895
1997.44	0.897
2006.39	0.9
2015.34	0.9
2024.29	0.896
2033.24	0.9
2042.19	0.9
2051.14	0.897
2060.09	0.895
2069.04	0.8999
2077.98	0.9
2086.93	0.9
2095.88	0.895
2104.83	0.8979
2113.78	0.9
2122.73	0.8982
2131.68	0.897
2140.63	0.897
2149.57	0.8962
2158.52	0.897
2167.47	0.895
2176.42	0.8932
2185.37	0.895
2194.32	0.893
2203.27	0.893
2212.22	0.895
2221.17	0.895
2230.11	0.895
2239.06	0.895
2248.01	0.895
2256.96	0.893
2265.91	0.893
2274.86	0.893
2283.81	0.893
2292.76	0.895
2301.71	0.895
2310.65	0.897
2319.6	0.8996
2328.55	0.902
2337.5	0.8984
2346.45	0.8973
2355.4	0.898
2364.35	0.897
2373.3	0.893
2382.25	0.8916
2391.19	0.891
2400.14	0.891
2409.09	0.8925
2418.04	0.893
2426.99	0.8915
2435.94	0.891
2444.89	0.893
2453.84	0.893
2462.79	0.895
2471.73	0.8965
2480.68	0.8936
2489.63	0.891
2498.58	0.8903
2507.53	0.89
2516.48	0.89
2525.43	0.89
2534.38	0.89
2543.33	0.8876
2552.27	0.884
2561.22	0.883
2570.17	0.883
2579.12	0.884
2588.07	0.884
2597.02	0.886
2605.97	0.888
2614.92	0.886
2623.86	0.884
2632.81	0.883
2641.76	0.883
2650.71	0.883
2659.66	0.883
2668.61	0.884
2677.56	0.884
2686.51	0.8839
2695.46	0.8786
2704.4	0.872
2713.35	0.87
2722.3	0.876
2731.25	0.879
2740.2	0.8718
2749.15	0.872
2758.1	0.877
2767.05	0.8749
2776	0.872
2784.94	0.8709
2793.89	0.8628
2802.84	0.8469
2811.79	0.844
2820.74	0.8345
2829.69	0.8159
2838.64	0.7979
2847.59	0.7404
2856.54	0.6611
2865.48	0.4177
2874.43	0.3
2883.38	0.431
2892.33	0.4645
2901.28	0.3631
2910.23	0.3024
2919.18	0.3635
2928.13	0.3409
2937.08	0.2845
2946.02	0.2092
2954.97	0.0664
2963.92	0.0186
2972.87	0.0285
2981.82	0.1503
2990.77	0.5396
2999.72	0.6365
3008.67	0.701
3017.62	0.6511
3026.56	0.464
3035.51	0.5197
3044.46	0.6263
3053.41	0.5824
3062.36	0.4925
3071.31	0.5536
3080.26	0.6924
3089.21	0.546
3098.16	0.6955
3107.1	0.7825
3116.05	0.8658
3125	0.883
3133.95	0.8901
3142.9	0.891
3151.85	0.89
3160.8	0.8923
3169.75	0.891
3178.69	0.89
3187.64	0.8927
3196.59	0.8917
3205.54	0.8947
3214.49	0.895
3223.44	0.895
3232.39	0.8956
3241.34	0.897
3250.29	0.897
3259.23	0.898
3268.18	0.897
3277.13	0.8934
3286.08	0.895
3295.03	0.895
3303.98	0.898
3312.93	0.898
3321.88	0.898
3330.83	0.898
3339.77	0.8965
3348.72	0.895
3357.67	0.895
3366.62	0.895
3375.57	0.897
3384.52	0.897
3393.47	0.895
3402.42	0.8964
3411.37	0.897
3420.31	0.897
3429.26	0.9
3438.21	0.9034
3447.16	0.904
3456.11	0.904
3465.06	0.904
3474.01	0.9027
3482.96	0.9003
3491.91	0.904
3500.85	0.905
3509.8	0.905
3518.75	0.9103
3527.7	0.912
3536.65	0.912
3545.6	0.91
3554.55	0.912
3563.5	0.912
3572.45	0.9118
3581.39	0.912
3590.34	0.912
3599.29	0.914
3608.24	0.914
3617.19	0.914
3626.14	0.914
3635.09	0.9128
3644.04	0.914
3652.98	0.914
3661.93	0.917
3670.88	0.916
3679.83	0.917
3688.78	0.916
3697.73	0.916
3706.68	0.9165
3715.63	0.916
3724.58	0.917
3733.52	0.917
3742.47	0.917
3751.42	0.916
3760.37	0.9155
3769.32	0.916
3778.27	0.917
3787.22	0.917
