Infrared Spectrum: TERT-BUTYL BENZENE
Formula: C10 H14
CAS: 98-06-6
State: SOLUTION (6.4% IN CCl4 FOR 3800-1300, 3.5% IN CS2 FOR 1300-650, AND 6.4% IN CCl4 FOR 650-250 CM^-^1) VERSUS SOLVENT
Class: COBLENTZ
Instrument: Not specified, most likely a grating or hybrid spectrometer.
Sampling: TRANSMISSION
Path length: 0.010, 0.010, AND 0.0189 CM (CsBr CELL)
Resolution: 4
Origin: DOW CORNING CORP.
1/CM	TRANSMITTANCE
228.067	0.894
237.049	0.903
246.03	0.918
255.012	0.927
263.993	0.934
272.975	0.937
281.956	0.932
290.938	0.93
299.919	0.929
308.901	0.927
317.883	0.932
326.864	0.934
335.846	0.939
344.827	0.94
353.809	0.94
362.79	0.943
371.772	0.94
380.753	0.934
389.735	0.929
398.716	0.929
407.698	0.926
416.68	0.93
425.661	0.924
434.643	0.93
443.624	0.922
452.606	0.9
461.587	0.895
470.569	0.902
479.55	0.897
488.532	0.889
497.514	0.881
506.495	0.878
515.477	0.865
524.458	0.834
533.44	0.7441
542.421	0.3732
551.403	0.7188
560.384	0.8519
569.366	0.878
578.348	0.894
587.329	0.9
596.311	0.911
605.292	0.91
614.274	0.911
623.255	0.939
632.237	0.93
641.218	0.922
650.2	0.918
659.181	0.914
668.163	0.898
677.145	0.878
686.126	0.8121
695.108	0.2853
704.089	0.78
713.071	0.898
722.052	0.9
731.034	0.905
740.015	0.9
748.997	0.8361
757.979	0.4703
766.96	0.863
775.942	0.9
784.923	0.903
793.905	0.911
802.886	0.916
811.868	0.914
820.849	0.913
829.831	0.895
838.813	0.9019
847.794	0.911
856.776	0.91
865.757	0.913
874.739	0.908
883.72	0.902
892.702	0.897
901.683	0.871
910.665	0.895
919.646	0.887
928.628	0.897
937.61	0.902
946.591	0.9
955.573	0.902
964.554	0.9
973.536	0.898
982.517	0.894
991.499	0.892
1000.48	0.886
1009.46	0.873
1018.44	0.8391
1027.43	0.6582
1036.41	0.873
1045.39	0.878
1054.37	0.876
1063.35	0.865
1072.33	0.8211
1081.31	0.8499
1090.3	0.868
1099.28	0.857
1108.26	0.7761
1117.24	0.878
1126.22	0.886
1135.2	0.884
1144.19	0.882
1153.17	0.887
1162.15	0.889
1171.13	0.889
1180.11	0.879
1189.09	0.855
1198.07	0.817
1207.06	0.887
1216.04	0.897
1225.02	0.894
1234	0.884
1242.98	0.887
1251.96	0.868
1260.95	0.7411
1269.93	0.8049
1278.91	0.884
1287.89	0.895
1296.87	0.9
1305.85	0.916
1314.83	0.916
1323.82	0.91
1332.8	0.906
1341.78	0.892
1350.76	0.853
1359.74	0.4922
1368.72	0.5516
1377.71	0.817
1386.69	0.808
1395.67	0.789
1404.65	0.886
1413.63	0.886
1422.61	0.866
1431.59	0.7881
1440.58	0.5732
1449.56	0.5099
1458.54	0.5951
1467.52	0.581
1476.5	0.608
1485.48	0.683
1494.47	0.3834
1503.45	0.8519
1512.43	0.892
1521.41	0.886
1530.39	0.876
1539.37	0.903
1548.36	0.914
1557.34	0.914
1566.32	0.902
1575.3	0.873
1584.28	0.861
1593.26	0.802
1602.24	0.733
1611.23	0.8739
1620.21	0.902
1629.19	0.908
1638.17	0.913
1647.15	0.91
1656.13	0.906
1665.12	0.894
1674.1	0.905
1683.08	0.91
1692.06	0.911
1701.04	0.914
1710.02	0.913
1719	0.908
1727.99	0.905
1736.97	0.882
1745.95	0.894
1754.93	0.908
1763.91	0.91
1772.89	0.908
1781.88	0.903
1790.86	0.889
1799.84	0.873
1808.82	0.895
1817.8	0.903
1826.78	0.914
1835.76	0.913
1844.75	0.911
1853.73	0.905
1862.71	0.876
1871.69	0.889
1880.67	0.879
1889.65	0.906
1898.64	0.911
1907.62	0.908
1916.6	0.913
1925.58	0.9
1934.56	0.882
1943.54	0.8729
1952.52	0.887
1961.51	0.903
1970.49	0.913
1979.47	0.914
1988.45	0.918
1997.43	0.922
2006.41	0.916
2015.4	0.916
2024.38	0.916
2033.36	0.916
2042.34	0.916
2051.32	0.916
2060.3	0.916
2069.29	0.916
2078.27	0.916
2087.25	0.913
2096.23	0.913
2105.21	0.913
2114.19	0.913
2123.17	0.913
2132.16	0.913
2141.14	0.913
2150.12	0.9136
2159.1	0.913
2168.08	0.913
2177.06	0.9111
2186.05	0.91
2195.03	0.91
2204.01	0.91
2212.99	0.91
2221.97	0.908
2230.95	0.9079
2239.93	0.9092
2248.92	0.908
2257.9	0.906
2266.88	0.906
2275.86	0.9056
2284.84	0.905
2293.82	0.903
2302.81	0.905
2311.79	0.903
2320.77	0.9048
2329.75	0.905
2338.73	0.9021
2347.71	0.903
2356.69	0.905
2365.68	0.9012
2374.66	0.898
2383.64	0.902
2392.62	0.9029
2401.6	0.902
2410.58	0.902
2419.57	0.902
2428.55	0.903
2437.53	0.9
2446.51	0.9029
2455.49	0.8993
2464.47	0.895
2473.45	0.9023
2482.44	0.9022
2491.42	0.898
2500.4	0.8997
2509.38	0.902
2518.36	0.9
2527.34	0.902
2536.33	0.8984
2545.31	0.895
2554.29	0.894
2563.27	0.894
2572.25	0.894
2581.23	0.894
2590.22	0.895
2599.2	0.895
2608.18	0.897
2617.16	0.8977
2626.14	0.8954
2635.12	0.8926
2644.1	0.895
2653.09	0.894
2662.07	0.892
2671.05	0.8926
2680.03	0.8948
2689.01	0.894
2697.99	0.892
2706.98	0.8855
2715.96	0.8855
2724.94	0.8893
2733.92	0.8875
2742.9	0.887
2751.88	0.8898
2760.86	0.8885
2769.85	0.8862
2778.83	0.887
2787.81	0.8845
2796.79	0.8767
2805.77	0.868
2814.75	0.8608
2823.74	0.8455
2832.72	0.8401
2841.7	0.8216
2850.68	0.7659
2859.66	0.558
2868.64	0.399
2877.62	0.4916
2886.61	0.5533
2895.59	0.5284
2904.57	0.391
2913.55	0.4595
2922.53	0.4594
2931.51	0.4075
2940.5	0.3568
2949.48	0.2482
2958.46	0.0915
2967.44	0.0399
2976.42	0.1306
2985.4	0.5242
2994.38	0.6984
3003.37	0.7577
3012.35	0.7424
3021.33	0.6176
3030.31	0.605
3039.29	0.6448
3048.27	0.6807
3057.26	0.612
3066.24	0.6211
3075.22	0.7388
3084.2	0.6523
3093.18	0.7154
3102.16	0.814
3111.15	0.846
3120.13	0.8821
3129.11	0.8976
3138.09	0.8997
3147.07	0.895
3156.05	0.8941
3165.03	0.8976
3174.02	0.9
3183	0.8987
3191.98	0.898
3200.96	0.9012
3209.94	0.9021
3218.92	0.9024
3227.91	0.905
3236.89	0.906
3245.87	0.9062
3254.85	0.9068
3263.83	0.906
3272.81	0.906
3281.79	0.906
3290.78	0.9092
3299.76	0.913
3308.74	0.913
3317.72	0.913
3326.7	0.914
3335.68	0.914
3344.67	0.913
3353.65	0.914
3362.63	0.914
3371.61	0.914
3380.59	0.914
3389.57	0.916
3398.55	0.916
3407.54	0.916
3416.52	0.916
3425.5	0.916
3434.48	0.9171
3443.46	0.918
3452.44	0.9169
3461.43	0.916
3470.41	0.916
3479.39	0.9161
3488.37	0.918
3497.35	0.919
3506.33	0.921
3515.31	0.921
3524.3	0.922
3533.28	0.922
3542.26	0.924
3551.24	0.924
3560.22	0.926
3569.2	0.924
3578.19	0.9315
3587.17	0.942
3596.15	0.922
3605.13	0.918
3614.11	0.9265
3623.09	0.9349
3632.08	0.9226
3641.06	0.9219
3650.04	0.924
3659.02	0.919
3668	0.9309
3676.98	0.9291
3685.96	0.927
3694.95	0.924
3703.93	0.926
3712.91	0.926
3721.89	0.9279
3730.87	0.935
3739.85	0.939
3748.84	0.9321
3757.82	0.9266
3766.8	0.9221
3775.78	0.921
3784.76	0.919
