Infrared Spectrum: FURFURAL
Formula: C5 H4 O2
CAS: 98-01-1
State: SOLUTION (10% IN CCl4 FOR 4000-1330 CM^-^1, 10% IN CS2 FOR 1330-600 CM^-^1)
Class: COBLENTZ III
Instrument: BECKMAN IR-7 (GRATING)
Instrument parameters: GRATING CHANGES AT 3000, 2200, 1150 CM^-^1
Sampling: TRANSMISSION
Path length: 0.011 CM, 0.010 CM
Resolution: 4
Origin: WESTERN REGIONAL RES. USDA
1/CM	TRANSMITTANCE
602.699	0.809
611.304	0.851
619.909	0.851
628.514	0.845
637.119	0.842
645.723	0.823
654.328	0.785
662.933	0.842
671.538	0.848
680.143	0.855
688.748	0.858
697.353	0.844
705.958	0.825
714.563	0.8
723.168	0.76
731.772	0.617
740.377	0.2632
748.982	0.017
757.587	0
766.192	0.043
774.797	0.2101
783.402	0.564
792.007	0.707
800.612	0.773
809.216	0.796
817.821	0.782
826.426	0.5501
835.031	0.58
843.636	0.701
852.241	0.701
860.846	0.706
869.451	0.706
878.056	0.616
886.661	0.4498
895.265	0.76
903.87	0.81
912.475	0.804
921.08	0.584
929.685	0.241
938.29	0.652
946.895	0.576
955.5	0.815
964.105	0.839
972.709	0.839
981.314	0.816
989.919	0.77
998.524	0.667
1007.13	0.397
1015.73	0.036
1024.34	0.4499
1032.94	0.778
1041.55	0.829
1050.15	0.84
1058.76	0.842
1067.36	0.799
1075.97	0.5491
1084.57	0.4056
1093.18	0.815
1101.78	0.865
1110.39	0.871
1118.99	0.874
1127.6	0.859
1136.2	0.805
1144.81	0.5552
1153.41	0.296
1162.02	0.727
1170.62	0.826
1179.23	0.844
1187.83	0.817
1196.44	0.79
1205.04	0.688
1213.65	0.661
1222.25	0.703
1230.86	0.5251
1239.46	0.394
1248.07	0.6479
1256.67	0.673
1265.28	0.503
1273.88	0.228
1282.49	0.6478
1291.09	0.827
1299.7	0.862
1308.3	0.876
1316.91	0.876
1325.51	0.871
1334.12	0.869
1342.72	0.859
1351.32	0.781
1359.93	0.4151
1368.53	0.677
1377.14	0.69
1385.74	0.39
1394.35	0.1389
1402.95	0.713
1411.56	0.765
1420.16	0.784
1428.77	0.764
1437.37	0.69
1445.98	0.688
1454.58	0.494
1463.19	0.003
1471.79	0.091
1480.4	0.3419
1489	0.5719
1497.61	0.667
1506.21	0.626
1514.82	0.59
1523.42	0.575
1532.03	0.543
1540.63	0.478
1549.24	0.429
1557.84	0.396
1566.45	0.0651
1575.05	0.34
1583.66	0.45
1592.26	0.523
1600.87	0.629
1609.47	0.677
1618.08	0.7
1626.68	0.732
1635.29	0.711
1643.89	0.64
1652.5	0.548
1661.1	0.4651
1669.71	0.167
1678.31	0.002
1686.92	0.001
1695.52	0
1704.13	0.001
1712.73	0.3109
1721.34	0.547
1729.94	0.637
1738.55	0.678
1747.15	0.745
1755.75	0.751
1764.36	0.738
1772.96	0.719
1781.57	0.768
1790.17	0.843
1798.78	0.869
1807.38	0.878
1815.99	0.878
1824.59	0.87
1833.2	0.874
1841.8	0.876
1850.41	0.874
1859.01	0.878
1867.62	0.88
1876.22	0.882
1884.83	0.873
1893.43	0.862
1902.04	0.859
1910.64	0.863
1919.25	0.882
1927.85	0.893
1936.46	0.89
1945.06	0.88
1953.67	0.874
1962.27	0.878
1970.88	0.877
1979.48	0.872
1988.09	0.876
1996.69	0.881
2005.3	0.879
2013.9	0.878
2022.51	0.877
2031.11	0.876
2039.72	0.875
2048.32	0.875
2056.93	0.8733
2065.53	0.8721
2074.14	0.8686
2082.74	0.862
2091.35	0.859
2099.95	0.857
2108.56	0.855
2117.16	0.8566
2125.77	0.8589
2134.37	0.8613
2142.98	0.8668
2151.58	0.8724
2160.18	0.876
2168.79	0.8782
2177.39	0.881
2186	0.883
2194.6	0.884
2203.21	0.884
2211.81	0.884
2220.42	0.8821
2229.02	0.8812
2237.63	0.884
2246.23	0.8914
2254.84	0.895
2263.44	0.8935
2272.05	0.8889
2280.65	0.886
2289.26	0.8819
2297.86	0.8796
2306.47	0.878
2315.07	0.877
2323.68	0.88
2332.28	0.8835
2340.89	0.8877
2349.49	0.888
2358.1	0.888
2366.7	0.888
2375.31	0.888
2383.91	0.89
2392.52	0.891
2401.12	0.8927
2409.73	0.894
2418.33	0.896
2426.94	0.896
2435.54	0.896
2444.15	0.895
2452.75	0.894
2461.36	0.893
2469.96	0.892
2478.57	0.8912
2487.17	0.892
2495.78	0.892
2504.38	0.893
2512.99	0.894
2521.59	0.893
2530.2	0.8884
2538.8	0.865
2547.41	0.8721
2556.01	0.8876
2564.61	0.8928
2573.22	0.8952
2581.82	0.896
2590.43	0.8967
2599.03	0.897
2607.64	0.897
2616.24	0.8944
2624.85	0.8904
2633.45	0.8838
2642.06	0.8749
2650.66	0.869
2659.27	0.8593
2667.87	0.8476
2676.48	0.8695
2685.08	0.8579
2693.69	0.7857
2702.29	0.7308
2710.9	0.665
2719.5	0.8124
2728.11	0.8341
2736.71	0.7987
2745.32	0.6934
2753.92	0.649
2762.53	0.7582
2771.13	0.7414
2779.74	0.6929
2788.34	0.6477
2796.95	0.5244
2805.55	0.351
2814.16	0.3848
2822.76	0.525
2831.37	0.5804
2839.97	0.4568
2848.58	0.4558
2857.18	0.5593
2865.79	0.7378
2874.39	0.7937
2883	0.8265
2891.6	0.8401
2900.21	0.8453
2908.81	0.8518
2917.42	0.8554
2926.02	0.8669
2934.63	0.8737
2943.23	0.875
2951.84	0.874
2960.44	0.873
2969.04	0.873
2977.65	0.875
2986.25	0.8778
2994.86	0.8893
3003.46	0.892
3012.07	0.8918
3020.67	0.8841
3029.28	0.8762
3037.88	0.873
3046.49	0.872
3055.09	0.867
3063.7	0.861
3072.3	0.8673
3080.91	0.8692
3089.51	0.8562
3098.12	0.8363
3106.72	0.8118
3115.33	0.7907
3123.93	0.7409
3132.54	0.708
3141.14	0.6991
3149.75	0.7447
3158.35	0.7837
3166.96	0.827
3175.56	0.8413
3184.17	0.8559
3192.77	0.865
3201.38	0.8715
3209.98	0.8765
3218.59	0.8798
3227.19	0.882
3235.8	0.8816
3244.4	0.88
3253.01	0.879
3261.61	0.879
3270.22	0.8854
3278.82	0.8955
3287.43	0.898
3296.03	0.898
3304.64	0.897
3313.24	0.897
3321.85	0.896
3330.45	0.8892
3339.06	0.8733
3347.66	0.8454
3356.27	0.8229
3364.87	0.798
3373.48	0.8132
3382.08	0.8502
3390.68	0.863
3399.29	0.8696
3407.89	0.8719
3416.5	0.8731
3425.1	0.875
3433.71	0.876
3442.31	0.876
3450.92	0.876
3459.52	0.8755
3468.13	0.875
3476.73	0.875
3485.34	0.874
3493.94	0.874
3502.55	0.873
3511.15	0.871
3519.76	0.8706
3528.36	0.869
3536.97	0.868
3545.57	0.867
3554.18	0.867
3562.78	0.868
3571.39	0.869
3579.99	0.869
3588.6	0.8707
3597.2	0.871
3605.81	0.8722
3614.41	0.873
3623.02	0.873
3631.62	0.874
3640.23	0.8753
3648.83	0.877
3657.44	0.8761
3666.04	0.875
3674.65	0.873
3683.25	0.871
3691.86	0.8671
3700.46	0.8648
3709.07	0.865
3717.67	0.869
3726.28	0.87
3734.88	0.873
3743.49	0.874
3752.09	0.875
3760.7	0.874
3769.3	0.874
3777.91	0.874
3786.51	0.874
3795.11	0.874
3803.72	0.874
3812.32	0.874
3820.93	0.874
3829.53	0.874
3838.14	0.873
3846.74	0.873
3855.35	0.873
3863.95	0.872
3872.56	0.8703
3881.16	0.869
3889.77	0.8677
3898.37	0.8664
3906.98	0.866
3915.58	0.865
3924.19	0.865
3932.79	0.865
3941.4	0.864
3950	0.863
3958.61	0.863
3967.21	0.863
3975.82	0.863
3984.42	0.862
3993.03	0.863
4001.63	0.862
