Infrared Spectrum: GLYCINE, N-(1-AZIRIDINYLCARBONYL)-, ETHYL ESTER
Formula: C7 H12 N2 O3
CAS: 98337-03-2
State: SOLID (0.7 mg / 500 mg KBr DISC)
Class: COBLENTZ III
Instrument: PERKIN-ELMER 221 (GRATING)
Instrument parameters: FILTER CHANGE AT 2490, 980 CM^-^1, GRATING FOR 4000-1428 CM^-^1, NaCl PRISM FOR 1428-650 CM^-^1
Sampling: TRANSMISSION
Resolution: 4
Origin: SOUTHERN RESEARCH INST.
1/CM	TRANSMITTANCE
550.026	0.424
559.208	0.468
568.39	0.53
577.572	0.627
586.754	0.648
595.936	0.659
605.118	0.657
614.3	0.643
623.482	0.633
632.665	0.608
641.847	0.576
651.029	0.537
660.211	0.486
669.393	0.434
678.575	0.413
687.757	0.432
696.939	0.477
706.121	0.521
715.303	0.504
724.485	0.524
733.667	0.634
742.849	0.686
752.031	0.724
761.213	0.757
770.395	0.751
779.577	0.533
788.759	0.72
797.942	0.761
807.124	0.76
816.306	0.803
825.488	0.728
834.67	0.644
843.852	0.769
853.034	0.852
862.216	0.839
871.398	0.674
880.58	0.816
889.762	0.856
898.944	0.806
908.126	0.812
917.308	0.72
926.49	0.644
935.672	0.493
944.854	0.477
954.037	0.675
963.219	0.803
972.401	0.816
981.583	0.808
990.765	0.767
999.947	0.735
1009.13	0.583
1018.31	0.286
1027.49	0.33
1036.68	0.288
1045.86	0.634
1055.04	0.759
1064.22	0.758
1073.4	0.736
1082.59	0.659
1091.77	0.655
1100.95	0.633
1110.13	0.538
1119.31	0.512
1128.5	0.543
1137.68	0.545
1146.86	0.425
1156.04	0.346
1165.22	0.485
1174.41	0.425
1183.59	0.313
1192.77	0.247
1201.95	0.18
1211.13	0.158
1220.32	0.144
1229.5	0.152
1238.68	0.177
1247.86	0.247
1257.04	0.319
1266.23	0.324
1275.41	0.42
1284.59	0.483
1293.77	0.487
1302.95	0.472
1312.14	0.366
1321.32	0.207
1330.5	0.155
1339.68	0.252
1348.87	0.353
1358.05	0.422
1367.23	0.417
1376.41	0.272
1385.59	0.4
1394.78	0.322
1403.96	0.194
1413.14	0.388
1422.32	0.493
1431.5	0.507
1440.69	0.515
1449.87	0.407
1459.05	0.486
1468.23	0.482
1477.41	0.352
1486.6	0.444
1495.78	0.451
1504.96	0.398
1514.14	0.323
1523.32	0.237
1532.51	0.17
1541.69	0.16
1550.87	0.159
1560.05	0.2
1569.23	0.288
1578.42	0.363
1587.6	0.421
1596.78	0.443
1605.96	0.455
1615.14	0.453
1624.33	0.378
1633.51	0.357
1642.69	0.273
1651.87	0.154
1661.05	0.096
1670.24	0.108
1679.42	0.125
1688.6	0.195
1697.78	0.248
1706.97	0.301
1716.15	0.397
1725.33	0.441
1734.51	0.271
1743.69	0.062
1752.88	0.099
1762.06	0.172
1771.24	0.263
1780.42	0.325
1789.6	0.362
1798.79	0.392
1807.97	0.427
1817.15	0.452
1826.33	0.469
1835.51	0.487
1844.7	0.505
1853.88	0.519
1863.06	0.536
1872.24	0.548
1881.42	0.559
1890.61	0.566
1899.79	0.571
1908.97	0.584
1918.15	0.586
1927.33	0.585
1936.52	0.602
1945.7	0.614
1954.88	0.624
1964.06	0.63
1973.24	0.639
1982.43	0.646
1991.61	0.653
2000.79	0.661
2009.97	0.664
2019.16	0.666
2028.34	0.667
2037.52	0.667
2046.7	0.668
2055.88	0.669
2065.07	0.671
2074.25	0.673
2083.43	0.678
2092.61	0.682
2101.79	0.683
2110.98	0.684
2120.16	0.687
2129.34	0.69
2138.52	0.692
2147.7	0.695
2156.89	0.696
2166.07	0.698
2175.25	0.7
2184.43	0.698
2193.61	0.697
2202.8	0.711
2211.98	0.714
2221.16	0.717
2230.34	0.718
2239.52	0.719
2248.71	0.719
2257.89	0.719
2267.07	0.72
2276.25	0.723
2285.43	0.724
2294.62	0.725
2303.8	0.726
2312.98	0.726
2322.16	0.726
2331.35	0.726
2340.53	0.726
2349.71	0.726
2358.89	0.725
2368.07	0.724
2377.26	0.724
2386.44	0.724
2395.62	0.724
2404.8	0.726
2413.98	0.728
2423.17	0.729
2432.35	0.73
2441.53	0.733
2450.71	0.733
2459.89	0.732
2469.08	0.729
2478.26	0.73
2487.44	0.733
2496.62	0.738
2505.8	0.741
2514.99	0.742
2524.17	0.742
2533.35	0.742
2542.53	0.742
2551.71	0.742
2560.9	0.741
2570.08	0.741
2579.26	0.741
2588.44	0.741
2597.62	0.742
2606.81	0.742
2615.99	0.742
2625.17	0.743
2634.35	0.744
2643.54	0.745
2652.72	0.745
2661.9	0.745
2671.08	0.745
2680.26	0.744
2689.45	0.742
2698.63	0.742
2707.81	0.742
2716.99	0.74
2726.17	0.737
2735.36	0.732
2744.54	0.722
2753.72	0.714
2762.9	0.708
2772.08	0.693
2781.27	0.687
2790.45	0.689
2799.63	0.695
2808.81	0.704
2817.99	0.707
2827.18	0.708
2836.36	0.7
2845.54	0.68
2854.72	0.667
2863.9	0.649
2873.09	0.608
2882.27	0.614
2891.45	0.633
2900.63	0.59
2909.81	0.558
2919	0.58
2928.18	0.549
2937.36	0.533
2946.54	0.53
2955.73	0.521
2964.91	0.535
2974.09	0.478
2983.27	0.427
2992.45	0.425
3001.64	0.428
3010.82	0.45
3020	0.514
3029.18	0.546
3038.36	0.538
3047.55	0.518
3056.73	0.476
3065.91	0.472
3075.09	0.471
3084.27	0.472
3093.46	0.499
3102.64	0.576
3111.82	0.585
3121	0.586
3130.18	0.584
3139.37	0.58
3148.55	0.577
3157.73	0.57
3166.91	0.561
3176.09	0.542
3185.28	0.516
3194.46	0.486
3203.64	0.466
3212.82	0.458
3222	0.432
3231.19	0.402
3240.37	0.375
3249.55	0.318
3258.73	0.266
3267.92	0.209
3277.1	0.198
3286.28	0.206
3295.46	0.223
3304.64	0.241
3313.83	0.268
3323.01	0.291
3332.19	0.313
3341.37	0.335
3350.55	0.353
3359.74	0.372
3368.92	0.392
3378.1	0.403
3387.28	0.419
3396.46	0.449
3405.65	0.462
3414.83	0.475
3424.01	0.487
3433.19	0.505
3442.37	0.516
3451.56	0.521
3460.74	0.522
3469.92	0.525
3479.1	0.535
3488.28	0.546
3497.47	0.552
3506.65	0.568
3515.83	0.575
3525.01	0.579
3534.19	0.581
3543.38	0.588
3552.56	0.59
3561.74	0.59
3570.92	0.597
3580.11	0.604
3589.29	0.607
3598.47	0.614
3607.65	0.619
3616.83	0.624
3626.02	0.627
3635.2	0.629
3644.38	0.632
3653.56	0.636
3662.74	0.639
3671.93	0.642
3681.11	0.642
3690.29	0.644
3699.47	0.644
3708.65	0.645
3717.84	0.645
3727.02	0.645
3736.2	0.645
3745.38	0.645
3754.56	0.646
3763.75	0.646
3772.93	0.647
3782.11	0.647
3791.29	0.647
3800.47	0.647
3809.66	0.647
3818.84	0.646
3828.02	0.646
3837.2	0.646
3846.38	0.645
3855.57	0.645
3864.75	0.645
3873.93	0.645
3883.11	0.645
3892.29	0.645
3901.48	0.645
3910.66	0.646
3919.84	0.647
3929.02	0.648
3938.21	0.649
3947.39	0.649
3956.57	0.649
3965.75	0.649
3974.93	0.649
3984.12	0.649
3993.3	0.649
4002.48	0.649
