Infrared Spectrum: ETHANONE, 1-PHENYL-
Formula: C8 H8 O
CAS: 98-86-2
State: LIQUID (NEAT)
Class: COBLENTZ III
Instrument: PERKIN-ELMER 180 (GRATING)
Instrument parameters: GRATING CHANGES AT 2000, 1000, 500, 250 CM^-^1
Sampling: TRANSMISSION
Path length: 0.006 CM FOR 4000-1800 CM^-^1 AND 0.001 CM FOR 1800-250 CM^-^1; KBr PLATES
Resolution: 4
Origin: STANDARD OIL OF OHIO
1/CM	TRANSMITTANCE
300.381	0.063
310.546	0.112
320.711	0.151
330.877	0.214
341.042	0.29
351.207	0.365
361.372	0.428
371.537	0.503
381.703	0.571
391.868	0.619
402.033	0.657
412.198	0.699
422.363	0.739
432.528	0.77
442.694	0.788
452.859	0.801
463.024	0.801
473.189	0.82
483.354	0.848
493.52	0.853
503.685	0.88
513.85	0.885
524.015	0.891
534.18	0.891
544.346	0.889
554.511	0.883
564.676	0.861
574.841	0.774
585.006	0.083
595.171	0.53
605.337	0.805
615.502	0.806
625.667	0.875
635.832	0.886
645.997	0.883
656.163	0.872
666.328	0.82
676.493	0.681
686.658	0.045
696.823	0.5
706.989	0.8
717.154	0.845
727.319	0.776
737.484	0.814
747.649	0.628
757.814	0.064
767.98	0.509
778.145	0.79
788.31	0.85
798.475	0.872
808.64	0.88
818.806	0.881
828.971	0.881
839.136	0.866
849.301	0.854
859.466	0.875
869.632	0.89
879.797	0.889
889.962	0.879
900.127	0.872
910.292	0.857
920.457	0.785
930.623	0.734
940.788	0.77
950.953	0.386
961.118	0.596
971.283	0.786
981.449	0.821
991.614	0.819
1001.78	0.779
1011.94	0.78
1022.11	0.5
1032.27	0.837
1042.44	0.867
1052.6	0.865
1062.77	0.849
1072.94	0.7
1083.1	0.749
1093.27	0.813
1103.43	0.794
1113.6	0.856
1123.76	0.868
1133.93	0.872
1144.09	0.857
1154.26	0.818
1164.42	0.788
1174.59	0.671
1184.75	0.678
1194.92	0.801
1205.08	0.808
1215.25	0.814
1225.41	0.794
1235.58	0.668
1245.74	0.326
1255.91	0.061
1266.07	0.007
1276.24	0.506
1286.4	0.686
1296.57	0.625
1306.73	0.638
1316.9	0.749
1327.07	0.79
1337.23	0.739
1347.4	0.562
1357.56	0.038
1367.73	0.43
1377.89	0.699
1388.06	0.741
1398.22	0.742
1408.39	0.711
1418.55	0.535
1428.72	0.49
1438.88	0.499
1449.05	0.199
1459.21	0.732
1469.38	0.812
1479.54	0.834
1489.71	0.827
1499.87	0.846
1510.04	0.85
1520.2	0.839
1530.37	0.827
1540.53	0.802
1550.7	0.816
1560.86	0.811
1571.03	0.747
1581.19	0.4459
1591.36	0.575
1601.53	0.3941
1611.69	0.701
1621.86	0.739
1632.02	0.757
1642.19	0.725
1652.35	0.695
1662.52	0.595
1672.68	0.1239
1682.85	0
1693.01	0.1001
1703.18	0.543
1713.34	0.711
1723.51	0.75
1733.67	0.756
1743.84	0.758
1754	0.76
1764.17	0.76
1774.33	0.756
1784.5	0.747
1794.66	0.72
1804.83	0.627
1814.99	0.548
1825.16	0.569
1835.32	0.632
1845.49	0.641
1855.65	0.648
1865.82	0.735
1875.99	0.746
1886.15	0.687
1896.32	0.561
1906.48	0.516
1916.65	0.561
1926.81	0.657
1936.98	0.722
1947.14	0.683
1957.31	0.628
1967.47	0.561
1977.64	0.57
1987.8	0.571
1997.97	0.595
2008.13	0.718
2018.3	0.776
2028.46	0.769
2038.63	0.798
2048.79	0.813
2058.96	0.832
2069.12	0.841
2079.29	0.8389
2089.45	0.7949
2099.62	0.8263
2109.78	0.8542
2119.95	0.854
2130.11	0.8609
2140.28	0.8591
2150.45	0.8621
2160.61	0.8639
2170.78	0.8608
2180.94	0.8531
2191.11	0.8539
2201.27	0.8495
2211.44	0.8232
2221.6	0.78
2231.77	0.8195
2241.93	0.8401
2252.1	0.8252
2262.26	0.8102
2272.43	0.818
2282.59	0.8095
2292.76	0.8004
2302.92	0.8009
2313.09	0.7539
2323.25	0.717
2333.42	0.7248
2343.58	0.7277
2353.75	0.7997
2363.91	0.81
2374.08	0.7906
2384.24	0.7817
2394.41	0.8099
2404.57	0.8335
2414.74	0.8312
2424.91	0.8255
2435.07	0.803
2445.24	0.8007
2455.4	0.8235
2465.57	0.8383
2475.73	0.839
2485.9	0.8342
2496.06	0.825
2506.23	0.8084
2516.39	0.7782
2526.56	0.7407
2536.72	0.776
2546.89	0.81
2557.05	0.8013
2567.22	0.779
2577.38	0.7834
2587.55	0.7959
2597.71	0.7583
2607.88	0.7708
2618.04	0.7701
2628.21	0.753
2638.37	0.7526
2648.54	0.7876
2658.7	0.803
2668.87	0.7963
2679.04	0.7961
2689.2	0.8083
2699.37	0.8056
2709.53	0.8024
2719.7	0.8073
2729.86	0.8125
2740.03	0.7962
2750.19	0.7703
2760.36	0.7478
2770.52	0.77
2780.69	0.764
2790.85	0.7705
2801.02	0.7685
2811.18	0.772
2821.35	0.7655
2831.51	0.7334
2841.68	0.6984
2851.84	0.6457
2862.01	0.594
2872.17	0.6351
2882.34	0.6553
2892.5	0.6395
2902.67	0.6085
2912.83	0.5337
2923	0.422
2933.16	0.4701
2943.33	0.528
2953.5	0.4924
2963.66	0.3884
2973.83	0.3725
2983.99	0.3994
2994.16	0.2269
3004.32	0.1011
3014.49	0.2136
3024.65	0.1698
3034.82	0.173
3044.98	0.2011
3055.15	0.0598
3065.31	0.0902
3075.48	0.1911
3085.64	0.154
3095.81	0.3309
3105.97	0.3962
3116.14	0.5311
3126.3	0.5729
3136.47	0.6004
3146.63	0.6191
3156.8	0.6201
3166.96	0.6393
3177.13	0.6815
3187.29	0.6915
3197.46	0.6853
3207.62	0.7325
3217.79	0.7473
3227.96	0.7558
3238.12	0.7643
3248.29	0.771
3258.45	0.7674
3268.62	0.7588
3278.78	0.7688
3288.95	0.7776
3299.11	0.7858
3309.28	0.7846
3319.44	0.7785
3329.61	0.7512
3339.77	0.6404
3349.94	0.4735
3360.1	0.4946
3370.27	0.651
3380.43	0.7288
3390.6	0.7696
3400.76	0.7769
3410.93	0.774
3421.09	0.7721
3431.26	0.763
3441.42	0.7553
3451.59	0.7472
3461.75	0.7341
3471.92	0.7143
3482.08	0.6984
3492.25	0.6851
3502.42	0.6593
3512.58	0.6395
3522.75	0.6331
3532.91	0.631
3543.08	0.633
3553.24	0.638
3563.41	0.651
3573.57	0.657
3583.74	0.655
3593.9	0.644
3604.07	0.637
3614.23	0.628
3624.4	0.634
3634.56	0.648
3644.73	0.645
3654.89	0.6371
3665.06	0.6794
3675.22	0.7114
3685.39	0.7606
3695.55	0.7939
3705.72	0.7961
3715.88	0.7917
3726.05	0.8083
3736.21	0.8123
3746.38	0.8246
3756.55	0.8238
3766.71	0.822
3776.88	0.8177
3787.04	0.8088
3797.21	0.7932
3807.37	0.8083
3817.54	0.8119
3827.7	0.8171
3837.87	0.8203
3848.03	0.8282
3858.2	0.8295
3868.36	0.8178
3878.53	0.8188
3888.69	0.8268
3898.86	0.818
3909.02	0.8146
3919.19	0.811
3929.35	0.7988
3939.52	0.789
3949.68	0.8008
3959.85	0.7992
3970.01	0.799
3980.18	0.798
3990.34	0.7855
