Infrared Spectrum: BENZOYL CHLORIDE
Formula: C7 H5 Cl O
CAS: 98-88-4
State: SOLUTION (10% IN CCl4 FOR 3800-1330, 10% IN CS2 FOR 1330-450 CM^-^1)
Melting point: 0 C
Class: COBLENTZ III
Instrument: DOW KBr FOREPRISM-GRATING
Instrument parameters: BLAZED AT 3.5, 12.0, 20.0 MICRON, CHANGED AT 5.0, 7.5, 14.9 MICRON
Sampling: TRANSMISSION
Path length: 0.010, 0.011 CM
Resolution: 4
Origin: DOW CHEMICAL COMPANY
1/CM	TRANSMITTANCE
456.301	0.841
464.851	0.853
473.4	0.862
481.95	0.868
490.5	0.866
499.05	0.838
507.599	0.778
516.149	0.914
524.699	0.934
533.249	0.945
541.798	0.951
550.348	0.955
558.898	0.96
567.448	0.967
575.997	0.968
584.547	0.97
593.097	0.965
601.647	0.958
610.196	0.914
618.746	0.8629
627.296	0.88
635.846	0.785
644.395	0.3255
652.945	0.4598
661.495	0.3651
670.045	0
678.594	0.159
687.144	0.034
695.694	0.579
704.244	0.821
712.793	0.917
721.343	0.948
729.893	0.96
738.442	0.963
746.992	0.958
755.542	0.934
764.092	0.7841
772.641	0.0391
781.191	0.856
789.741	0.909
798.291	0.844
806.84	0.896
815.39	0.894
823.94	0.843
832.49	0.727
841.039	0.5261
849.589	0.2511
858.139	0.082
866.689	0
875.238	0.008
883.788	0.152
892.338	0.3569
900.888	0.6339
909.437	0.7099
917.987	0.763
926.537	0.803
935.087	0.8348
943.636	0.918
952.186	0.937
960.736	0.93
969.286	0.906
977.835	0.881
986.385	0.866
994.935	0.863
1003.48	0.865
1012.03	0.883
1020.58	0.89
1029.13	0.818
1037.68	0.911
1046.23	0.923
1054.78	0.931
1063.33	0.928
1071.88	0.852
1080.43	0.908
1088.98	0.917
1097.53	0.853
1106.08	0.926
1114.63	0.94
1123.18	0.948
1131.73	0.934
1140.28	0.914
1148.83	0.872
1157.38	0.7101
1165.93	0.3681
1174.48	0.014
1183.03	0.428
1191.58	0.3311
1200.13	0.05
1208.68	0.025
1217.23	0.556
1225.78	0.818
1234.33	0.841
1242.88	0.741
1251.43	0.894
1259.98	0.917
1268.53	0.934
1277.08	0.942
1285.63	0.94
1294.18	0.894
1302.73	0.843
1311.28	0.8188
1319.82	0.8009
1328.37	0.923
1336.92	0.914
1345.47	0.831
1354.02	0.928
1362.57	0.937
1371.12	0.937
1379.67	0.934
1388.22	0.914
1396.77	0.921
1405.32	0.951
1413.87	0.951
1422.42	0.942
1430.97	0.943
1439.52	0.918
1448.07	0.6391
1456.62	0.723
1465.17	0.921
1473.72	0.918
1482.27	0.872
1490.82	0.8289
1499.37	0.832
1507.92	0.786
1516.47	0.729
1525.02	0.681
1533.57	0.631
1542.12	0.536
1550.67	0.494
1559.22	0.55
1567.77	0.618
1576.32	0.616
1584.87	0.2861
1593.42	0.4582
1601.97	0.7079
1610.52	0.834
1619.07	0.819
1627.62	0.917
1636.17	0.945
1644.72	0.949
1653.26	0.949
1661.81	0.937
1670.36	0.924
1678.91	0.902
1687.46	0.881
1696.01	0.834
1704.56	0.742
1713.11	0.606
1721.66	0.421
1730.21	0.156
1738.76	0.05
1747.31	0.171
1755.86	0.195
1764.41	0.093
1772.96	0
1781.51	0.005
1790.06	0.196
1798.61	0.542
1807.16	0.724
1815.71	0.736
1824.26	0.852
1832.81	0.875
1841.36	0.905
1849.91	0.917
1858.46	0.933
1867.01	0.939
1875.56	0.937
1884.11	0.952
1892.66	0.952
1901.21	0.924
1909.76	0.893
1918.31	0.923
1926.86	0.918
1935.41	0.955
1943.96	0.957
1952.51	0.946
1961.06	0.886
1969.61	0.92
1978.16	0.914
1986.7	0.934
1995.25	0.923
2003.8	0.961
2012.35	0.964
2020.9	0.964
2029.45	0.964
2038	0.96
2046.55	0.955
2055.1	0.954
2063.65	0.9575
2072.2	0.955
2080.75	0.946
2089.3	0.955
2097.85	0.964
2106.4	0.973
2114.95	0.977
2123.5	0.979
2132.05	0.979
2140.6	0.979
2149.15	0.978
2157.7	0.977
2166.25	0.977
2174.8	0.976
2183.35	0.975
2191.9	0.974
2200.45	0.9765
2209	0.979
2217.55	0.979
2226.1	0.979
2234.65	0.975
2243.2	0.974
2251.75	0.9735
2260.3	0.967
2268.85	0.9635
2277.4	0.957
2285.95	0.957
2294.5	0.96
2303.05	0.961
2311.59	0.961
2320.14	0.9534
2328.69	0.945
2337.24	0.9455
2345.79	0.9461
2354.34	0.946
2362.89	0.946
2371.44	0.948
2379.99	0.945
2388.54	0.9545
2397.09	0.9599
2405.64	0.9529
2414.19	0.9601
2422.74	0.9705
2431.29	0.976
2439.84	0.977
2448.39	0.977
2456.94	0.976
2465.49	0.976
2474.04	0.9735
2482.59	0.974
2491.14	0.976
2499.69	0.977
2508.24	0.977
2516.79	0.977
2525.34	0.976
2533.89	0.979
2542.44	0.977
2550.99	0.977
2559.54	0.976
2568.09	0.974
2576.64	0.9719
2585.19	0.967
2593.74	0.963
2602.29	0.9631
2610.84	0.9634
2619.39	0.965
2627.94	0.9706
2636.49	0.9729
2645.03	0.97
2653.58	0.968
2662.13	0.968
2670.68	0.97
2679.23	0.9689
2687.78	0.964
2696.33	0.9676
2704.88	0.9761
2713.43	0.979
2721.98	0.979
2730.53	0.979
2739.08	0.9789
2747.63	0.9749
2756.18	0.967
2764.73	0.9604
2773.28	0.9631
2781.83	0.9674
2790.38	0.9598
2798.93	0.9546
2807.48	0.9712
2816.03	0.979
2824.58	0.982
2833.13	0.9841
2841.68	0.9862
2850.23	0.9916
2858.78	0.9908
2867.33	0.988
2875.88	0.977
2884.43	0.9766
2892.98	0.98
2901.53	0.9842
2910.08	0.988
2918.63	0.9932
2927.18	0.9878
2935.73	0.9778
2944.28	0.971
2952.83	0.9688
2961.38	0.9677
2969.93	0.9618
2978.47	0.96
2987.02	0.96
2995.57	0.961
3004.12	0.9532
3012.67	0.9348
3021.22	0.9442
3029.77	0.9092
3038.32	0.912
3046.87	0.9111
3055.42	0.8882
3063.97	0.7967
3072.52	0.7314
3081.07	0.7578
3089.62	0.8732
3098.17	0.9069
3106.72	0.9414
3115.27	0.9582
3123.82	0.9658
3132.37	0.9701
3140.92	0.973
3149.47	0.97
3158.02	0.9658
3166.57	0.9573
3175.12	0.9688
3183.67	0.9682
3192.22	0.9706
3200.77	0.977
3209.32	0.979
3217.87	0.98
3226.42	0.98
3234.97	0.9821
3243.52	0.983
3252.07	0.98
3260.62	0.9826
3269.17	0.986
3277.72	0.988
3286.27	0.988
3294.82	0.989
3303.37	0.9908
3311.91	0.986
3320.46	0.989
3329.01	0.985
3337.56	0.983
3346.11	0.985
3354.66	0.983
3363.21	0.98
3371.76	0.9803
3380.31	0.983
3388.86	0.986
3397.41	0.985
3405.96	0.985
3414.51	0.985
3423.06	0.982
3431.61	0.98
3440.16	0.977
3448.71	0.976
3457.26	0.9739
3465.81	0.9687
3474.36	0.9622
3482.91	0.9381
3491.46	0.9137
3500.01	0.9226
3508.56	0.9546
3517.11	0.9669
3525.66	0.973
3534.21	0.971
3542.76	0.97
3551.31	0.974
3559.86	0.9792
3568.41	0.982
3576.96	0.9762
3585.51	0.9873
3594.06	0.991
3602.61	0.992
3611.16	0.992
3619.71	0.992
3628.26	0.9918
3636.8	0.991
3645.35	0.988
3653.9	0.991
3662.45	0.992
3671	0.992
3679.55	0.9937
3688.1	0.989
3696.65	0.988
3705.2	0.986
3713.75	0.991
3722.3	0.992
3730.85	0.994
3739.4	0.994
3747.95	0.992
3756.5	0.992
3765.05	0.995
3773.6	0.995
3782.15	0.995
3790.7	0.9977
3799.25	0.998
