Infrared Spectrum: ACETOPHENONE
Formula: C8 H8 O
CAS: 98-86-2
State: SOLUTION (LESS THAN 10% IN CCl4 FOR 4000-1330 CM^-^1, LESS THAN 10% IN CS2 FOR 1330-600 CM^-^1)
Melting point: 19 C
Class: COBLENTZ III
Instrument: BECKMAN IR-7 (GRATING)
Instrument parameters: GRATING CHANGES AT 3000, 2200, 1150 CM^-^1
Sampling: TRANSMISSION
Path length: 0.011 CM, 0.010 CM
Resolution: 4
Origin: WESTERN REGIONAL RES. USDA
1/CM	TRANSMITTANCE
598.018	0.641
606.607	0.726
615.196	0.779
623.785	0.797
632.374	0.807
640.963	0.794
649.552	0.769
658.141	0.738
666.73	0.747
675.319	0.621
683.908	0.1351
692.497	0.211
701.085	0.606
709.674	0.727
718.263	0.776
726.852	0.754
735.441	0.741
744.03	0.689
752.619	0.081
761.208	0.2669
769.797	0.64
778.386	0.748
786.975	0.773
795.564	0.802
804.153	0.817
812.742	0.819
821.331	0.822
829.92	0.814
838.509	0.784
847.098	0.715
855.687	0.682
864.276	0.703
872.865	0.734
881.454	0.765
890.042	0.798
898.631	0.806
907.22	0.806
915.809	0.769
924.398	0.606
932.987	0.745
941.576	0.713
950.165	0.269
958.754	0.5439
967.343	0.715
975.932	0.755
984.521	0.786
993.11	0.782
1001.7	0.731
1010.29	0.756
1018.88	0.6121
1027.47	0.476
1036.05	0.8
1044.64	0.82
1053.23	0.821
1061.82	0.807
1070.41	0.73
1079	0.6079
1087.59	0.75
1096.18	0.746
1104.77	0.743
1113.36	0.815
1121.94	0.821
1130.53	0.822
1139.12	0.818
1147.71	0.801
1156.3	0.712
1164.89	0.728
1173.48	0.598
1182.07	0.494
1190.66	0.734
1199.24	0.746
1207.83	0.754
1216.42	0.753
1225.01	0.72
1233.6	0.593
1242.19	0.301
1250.78	0.284
1259.37	0.029
1267.96	0.0459
1276.55	0.467
1285.13	0.66
1293.72	0.689
1302.31	0.508
1310.9	0.532
1319.49	0.718
1328.08	0.737
1336.67	0.696
1345.26	0.635
1353.85	0.149
1362.44	0.1029
1371.02	0.501
1379.61	0.651
1388.2	0.676
1396.79	0.709
1405.38	0.713
1413.97	0.625
1422.56	0.479
1431.15	0.43
1439.74	0.453
1448.32	0.1941
1456.91	0.523
1465.5	0.723
1474.09	0.75
1482.68	0.751
1491.27	0.719
1499.86	0.706
1508.45	0.665
1517.04	0.612
1525.63	0.58
1534.21	0.514
1542.8	0.434
1551.39	0.419
1559.98	0.451
1568.57	0.494
1577.16	0.483
1585.75	0.315
1594.34	0.443
1602.93	0.228
1611.51	0.58
1620.1	0.668
1628.69	0.717
1637.28	0.728
1645.87	0.697
1654.46	0.645
1663.05	0.605
1671.64	0.4431
1680.23	0.1061
1688.82	0
1697.4	0.025
1705.99	0.4069
1714.58	0.597
1723.17	0.674
1731.76	0.701
1740.35	0.738
1748.94	0.76
1757.53	0.773
1766.12	0.761
1774.7	0.779
1783.29	0.806
1791.88	0.82
1800.47	0.817
1809.06	0.796
1817.65	0.755
1826.24	0.806
1834.83	0.81
1843.42	0.815
1852.01	0.806
1860.59	0.818
1869.18	0.831
1877.77	0.831
1886.36	0.818
1894.95	0.773
1903.54	0.784
1912.13	0.786
1920.72	0.806
1929.31	0.832
1937.9	0.836
1946.48	0.825
1955.07	0.815
1963.66	0.759
1972.25	0.8
1980.84	0.798
1989.43	0.812
1998.02	0.809
2006.61	0.818
2015.2	0.8226
2023.78	0.8301
2032.37	0.831
2040.96	0.8336
2049.55	0.835
2058.14	0.835
2066.73	0.835
2075.32	0.836
2083.91	0.837
2092.5	0.835
2101.09	0.834
2109.67	0.833
2118.26	0.8351
2126.85	0.8356
2135.44	0.835
2144.03	0.834
2152.62	0.837
2161.21	0.837
2169.8	0.839
2178.39	0.841
2186.97	0.8413
2195.56	0.842
2204.15	0.8438
2212.74	0.845
2221.33	0.844
2229.92	0.8434
2238.51	0.8421
2247.1	0.841
2255.69	0.84
2264.28	0.8382
2272.86	0.836
2281.45	0.8324
2290.04	0.8274
2298.63	0.8252
2307.22	0.824
2315.81	0.8226
2324.4	0.8203
2332.99	0.8181
2341.58	0.8182
2350.16	0.8215
2358.75	0.8295
2367.34	0.835
2375.93	0.836
2384.52	0.8376
2393.11	0.8399
2401.7	0.8421
2410.29	0.844
2418.88	0.8457
2427.47	0.846
2436.05	0.844
2444.64	0.8445
2453.23	0.8488
2461.82	0.85
2470.41	0.852
2479	0.852
2487.59	0.8511
2496.18	0.85
2504.77	0.8486
2513.36	0.8436
2521.94	0.837
2530.53	0.837
2539.12	0.8395
2547.71	0.8428
2556.3	0.8451
2564.89	0.846
2573.48	0.8454
2582.07	0.844
2590.66	0.843
2599.24	0.8415
2607.83	0.84
2616.42	0.839
2625.01	0.838
2633.6	0.8386
2642.19	0.8407
2650.78	0.8431
2659.37	0.844
2667.96	0.845
2676.55	0.8459
2685.13	0.8462
2693.72	0.848
2702.31	0.848
2710.9	0.848
2719.49	0.8483
2728.08	0.8484
2736.67	0.848
2745.26	0.8459
2753.85	0.843
2762.43	0.8413
2771.02	0.8409
2779.61	0.8422
2788.2	0.843
2796.79	0.844
2805.38	0.843
2813.97	0.841
2822.56	0.8404
2831.15	0.8373
2839.74	0.8327
2848.32	0.8253
2856.91	0.8163
2865.5	0.812
2874.09	0.8175
2882.68	0.82
2891.27	0.821
2899.86	0.8188
2908.45	0.8137
2917.04	0.8023
2925.63	0.7811
2934.21	0.7852
2942.8	0.7949
2951.39	0.7959
2959.98	0.7691
2968.57	0.7367
2977.16	0.7339
2985.75	0.7512
2994.34	0.7669
3002.93	0.6796
3011.51	0.636
3020.1	0.6708
3028.69	0.689
3037.28	0.64
3045.87	0.6557
3054.46	0.6838
3063.05	0.6151
3071.64	0.547
3080.23	0.5894
3088.82	0.6597
3097.4	0.591
3105.99	0.6868
3114.58	0.7315
3123.17	0.802
3131.76	0.8129
3140.35	0.8188
3148.94	0.821
3157.53	0.8217
3166.12	0.8168
3174.7	0.8167
3183.29	0.8294
3191.88	0.834
3200.47	0.835
3209.06	0.836
3217.65	0.8372
3226.24	0.839
3234.83	0.8408
3243.42	0.844
3252.01	0.843
3260.59	0.843
3269.18	0.843
3277.77	0.8409
3286.36	0.84
3294.95	0.841
3303.54	0.842
3312.13	0.843
3320.72	0.843
3329.31	0.8412
3337.89	0.8379
3346.48	0.8296
3355.07	0.8043
3363.66	0.7652
3372.25	0.7717
3380.84	0.8021
3389.43	0.8262
3398.02	0.835
3406.61	0.8373
3415.2	0.839
3423.78	0.839
3432.37	0.839
3440.96	0.839
3449.55	0.838
3458.14	0.837
3466.73	0.836
3475.32	0.835
3483.91	0.834
3492.5	0.833
3501.09	0.8317
3509.67	0.83
3518.26	0.829
3526.85	0.827
3535.44	0.827
3544.03	0.827
3552.62	0.827
3561.21	0.829
3569.8	0.8295
3578.39	0.8328
3586.97	0.8371
3595.56	0.8416
3604.15	0.8456
3612.74	0.846
3621.33	0.847
3629.92	0.846
3638.51	0.8453
3647.1	0.8441
3655.69	0.8418
3664.28	0.841
3672.86	0.8392
3681.45	0.8309
3690.04	0.825
3698.63	0.831
3707.22	0.8349
3715.81	0.8381
3724.4	0.8394
3732.99	0.8437
3741.58	0.845
3750.16	0.846
3758.75	0.848
3767.34	0.848
3775.93	0.8469
3784.52	0.8457
3793.11	0.844
3801.7	0.844
3810.29	0.846
3818.88	0.846
3827.47	0.846
3836.05	0.847
3844.64	0.848
3853.23	0.848
3861.82	0.848
3870.41	0.847
3879	0.846
3887.59	0.846
3896.18	0.846
3904.77	0.844
3913.35	0.844
3921.94	0.8433
3930.53	0.843
3939.12	0.841
3947.71	0.8426
3956.3	0.843
3964.89	0.843
3973.48	0.843
3982.07	0.8413
