Infrared Spectrum: Nitrobenzene
Formula: C 6 H 5 N O 2
CAS: 98-95-3
State: liquid
Instrument: Bruker Tensor 27 FTIR
Resolution: 0.4821395
Origin: Pacific Northwest National Laboratory Under IARPA Contract
1/cm	dispersion index
7797.62	1.52152
7779.06	1.52154
7760.5	1.52154
7741.94	1.52153
7723.38	1.52153
7704.81	1.52152
7686.25	1.52151
7667.69	1.52151
7649.13	1.5215
7630.57	1.52149
7612.01	1.52148
7593.44	1.52147
7574.88	1.52147
7556.32	1.52146
7537.76	1.52145
7519.2	1.52144
7500.64	1.52143
7482.07	1.52142
7463.51	1.52141
7444.95	1.5214
7426.39	1.5214
7407.83	1.52139
7389.26	1.52138
7370.7	1.52137
7352.14	1.52136
7333.58	1.52134
7315.02	1.52133
7296.46	1.52132
7277.89	1.52131
7259.33	1.5213
7240.77	1.52129
7222.21	1.52128
7203.65	1.52126
7185.09	1.52125
7166.52	1.52124
7147.96	1.52122
7129.4	1.52121
7110.84	1.52119
7092.28	1.52118
7073.71	1.52116
7055.15	1.52114
7036.59	1.52112
7018.03	1.5211
6999.47	1.52107
6980.91	1.52105
6962.34	1.52102
6943.78	1.52096
6925.22	1.521
6906.66	1.52109
6888.1	1.52111
6869.54	1.5211
6850.97	1.52107
6832.41	1.52103
6813.85	1.52101
6795.29	1.52098
6776.73	1.52095
6758.16	1.52093
6739.6	1.52091
6721.04	1.52089
6702.48	1.52087
6683.92	1.52084
6665.36	1.52082
6646.79	1.52079
6628.23	1.52077
6609.67	1.52074
6591.11	1.52072
6572.55	1.52069
6553.99	1.52066
6535.42	1.52064
6516.86	1.52061
6498.3	1.52058
6479.74	1.52055
6461.18	1.52052
6442.61	1.52049
6424.05	1.52045
6405.49	1.52042
6386.93	1.52038
6368.37	1.52034
6349.81	1.5203
6331.24	1.52026
6312.68	1.52021
6294.12	1.52015
6275.56	1.52008
6257	1.51998
6238.44	1.52009
6219.87	1.52011
6201.31	1.52007
6182.75	1.51999
6164.19	1.52005
6145.63	1.51993
6127.06	1.51985
6108.5	1.51976
6089.94	1.51979
6071.38	1.51969
6052.82	1.51958
6034.26	1.5195
6015.69	1.51944
5997.13	1.51929
5978.57	1.51941
5960.01	1.5192
5941.45	1.51949
5922.89	1.51961
5904.32	1.51957
5885.76	1.51935
5867.2	1.51921
5848.64	1.51919
5830.08	1.51907
5811.51	1.51888
5792.95	1.51872
5774.39	1.5187
5755.83	1.51851
5737.27	1.51863
5718.71	1.51859
5700.14	1.5184
5681.58	1.51833
5663.02	1.51814
5644.46	1.51798
5625.9	1.51782
5607.34	1.51759
5588.77	1.51733
5570.21	1.51706
5551.65	1.51673
5533.09	1.51633
5514.53	1.51573
5495.96	1.51532
5477.4	1.51473
5458.84	1.51289
5440.28	1.51446
5421.72	1.51983
5403.16	1.51918
5384.59	1.51758
5366.03	1.51703
5347.47	1.51634
5328.91	1.5179
5310.35	1.51785
5291.79	1.51721
5273.22	1.51684
5254.66	1.51593
5236.1	1.51612
5217.54	1.51523
5198.98	1.51525
5180.41	1.5149
5161.85	1.51416
5143.29	1.51329
5124.73	1.51368
5106.17	1.5137
5087.61	1.51217
5069.04	1.51186
5050.48	1.51201
5031.92	1.51121
5013.36	1.51028
4994.8	1.51007
4976.24	1.50889
4957.67	1.50765
4939.11	1.50653
4920.55	1.50494
4901.99	1.50291
4883.43	1.50305
4864.86	1.50086
4846.3	1.50153
4827.74	1.49701
4809.18	1.49252
4790.62	1.49039
4772.06	1.48584
4753.49	1.48054
4734.93	1.46919
4716.37	1.44807
4697.81	1.45044
4679.25	1.3769
4660.69	1.6182
4642.12	1.58631
4623.56	1.55147
4605	1.50079
4586.44	1.40905
4567.88	1.87664
4549.31	1.6366
4530.75	1.58133
4512.19	1.56458
4493.63	1.54618
4475.07	1.54933
4456.51	1.51472
4437.94	1.53169
4419.38	1.54044
4400.82	1.54048
4382.26	1.53201
4363.7	1.54013
4345.14	1.50967
4326.57	1.36503
4308.01	1.50817
4289.45	1.55078
4270.89	1.46456
4252.33	1.23771
4233.76	1.75198
4215.2	1.62064
4196.64	1.5936
4178.08	1.57706
4159.52	1.57676
4140.96	1.57053
4122.39	1.56426
4103.83	1.56404
4085.27	4.35368e-05
4066.71	4.43979e-05
4048.15	4.61221e-05
4029.58	4.54758e-05
4011.02	4.46127e-05
3992.46	4.11643e-05
3973.9	4.15958e-05
3955.34	4.24589e-05
3936.78	4.35368e-05
3918.21	3.96568e-05
3899.65	4.05179e-05
3881.09	4.26737e-05
3862.53	4.22421e-05
3843.97	4.31052e-05
3825.41	4.43979e-05
3806.84	4.56906e-05
3788.28	4.56906e-05
3769.72	4.76315e-05
3751.16	4.78463e-05
3732.6	4.82779e-05
3714.03	4.72e-05
3695.47	4.74148e-05
3676.91	4.61221e-05
3658.35	4.63369e-05
3639.79	4.63369e-05
3621.23	4.63369e-05
3602.66	4.61221e-05
3584.1	4.54758e-05
3565.54	4.48295e-05
3546.98	4.48295e-05
3528.42	4.37516e-05
3509.86	4.22421e-05
3491.29	4.18126e-05
3472.73	4.11643e-05
3454.17	4.07347e-05
3435.61	4.05179e-05
3417.05	3.944e-05
3398.48	3.92253e-05
3379.92	3.944e-05
3361.36	4.18126e-05
3342.8	4.37516e-05
3324.24	4.43979e-05
3305.68	5.23726e-05
3287.11	8.1899e-05
3268.55	0.000106469
3249.99	0.000135996
3231.43	0.000377168
3212.87	0.000407341
3194.31	0.000340528
3175.74	0.000191171
3157.18	0.000114874
3138.62	8.01748e-05
3120.06	7.95284e-05
3101.5	5.84064e-05
3082.93	5.38821e-05
3064.37	5.79768e-05
3045.81	6.61663e-05
3027.25	5.25874e-05
3008.69	5.36653e-05
2990.13	4.87094e-05
2971.56	5.30189e-05
2953	5.00021e-05
2934.44	4.9139e-05
2915.88	4.31052e-05
2897.32	4.69852e-05
2878.76	4.74148e-05
2860.19	4.24589e-05
2841.63	4.80611e-05
2823.07	5.19411e-05
2804.51	4.48295e-05
2785.95	3.92253e-05
2767.38	3.83642e-05
2748.82	4.1381e-05
2730.26	3.98716e-05
2711.7	4.24589e-05
2693.14	4.03032e-05
2674.58	3.87937e-05
2656.01	3.85789e-05
2637.45	4.37516e-05
2618.89	4.69852e-05
2600.33	5.45284e-05
2581.77	6.76737e-05
2563.21	0.000178886
2544.64	0.000655194
2526.08	0.00039872
2507.52	0.000340528
2488.96	0.000258629
2470.4	0.00030389
2451.83	0.000103236
2433.27	0.000130823
2414.71	0.000195912
2396.15	0.000284493
2377.59	0.000129099
2359.03	0.000120263
2340.46	0.000290958
2321.9	0.000346994
2303.34	0.000495707
2284.78	0.000734939
2266.22	0.00056252
2247.66	0.00175868
2229.09	0.000778044
2210.53	0.000586227
2191.97	0.000230611
2173.41	0.000318977
2154.85	0.000312512
2136.28	0.0002138
2117.72	0.000109918
2099.16	0.000267251
2080.6	0.000428895
2062.04	0.000478465
2043.48	0.000538811
2024.91	0.000465533
2006.35	0.000176299
1987.79	0.000340528
1969.23	0.000145048
1950.67	0.000185783
1932.11	0.00012716
1913.54	7.15537e-05
1894.98	7.69431e-05
1876.42	0.000137074
1857.86	0.000226301
1839.3	0.000375013
1820.73	0.000745716
1802.17	0.00208197
1783.61	0.00265095
1765.05	0.00504328
1746.49	0.0112504
1727.93	0.00676747
1709.36	0.00359926
1690.8	0.00143755
1672.24	0.00252164
1653.68	0.00170695
1635.12	0.00650884
1616.56	0.00152376
1597.99	0.00211645
1579.43	0.000900893
1560.87	0.0006164
1542.31	0.00161859
1523.75	0.000989257
1505.18	0.000771579
1486.62	0.000573295
1468.06	0.000171126
1449.5	0.000293114
1430.94	0.00282337
1412.38	0.00124358
1393.81	0.000553899
1375.25	0.000549587
1356.69	0.000515103
1338.13	0.000551743
1319.57	0.000769423
1301.01	0.00126944
1282.44	0.000234922
1263.88	0.000219836
1245.32	0.000173928
1226.76	0.000364236
1208.2	0.00120478
1189.63	0.00497862
1171.07	0.00212938
1152.51	0.00625021
1133.95	0.000316821
1115.39	0.00166385
1096.83	0.00461223
1078.26	0.00293113
1059.7	0.00247853
1041.14	0.00228456
1022.58	0.0078882
1004.02	0.0862098
985.455	0.0310355
966.894	0.588382
948.332	0.061209
929.77	0.0312511
911.208	0.0155393
892.647	0.0491396
874.085	2.12723
855.523	0.0594848
836.961	0.011703
818.399	0.00894427
799.838	0.00670281
781.276	0.0346995
762.714	0.0139444
744.152	0.0301734
725.591	0.00646574
707.029	0.0165954
688.467	0.011078
669.905	0.0346995
651.344	0.0013341
632.782	0.0146988
614.22	0.0173713
595.658	0.368547
577.096	0.019311
558.535	0.122418
539.973	0.476309
521.411	0.00551743
502.849	0.00329753
484.288	0.000487086
465.726	0.0245698
447.164	0.00687523
428.602	0.00536656
410.041	0.0185998
