Infrared Spectrum: 3-Nitrotoluene
Formula: C7 H7 N O2
CAS: 99-08-1
State: SOLUTION (10% CCl4 FOR 3800-1330, 10% CS2 FOR 1330-400 CM^-^1)
Class: COBLENTZ III
Instrument: DOW KBr FOREPRISM-GRATING
Instrument parameters: BLAZED AT 3.5, 12.0, 20.0 MICRON AND CHANGED AT 5.0, 7.5, 14.9 MICRON
Sampling: TRANSMISSION
Path length: 0.011 CM, 0.011 CM
Resolution: 2
Origin: DOW CHEMICAL COMPANY
1/CM	TRANSMITTANCE
3782	0.8518
3773	0.8537
3764	0.8555
3755	0.855
3746	0.853
3737	0.8448
3728	0.8488
3719	0.8498
3710	0.848
3701	0.8486
3692	0.851
3683	0.8503
3674	0.8517
3665	0.8531
3656	0.851
3647	0.8496
3638	0.8491
3629	0.848
3620	0.8456
3611	0.8436
3602	0.843
3593	0.8432
3584	0.8393
3575	0.8404
3566	0.8406
3557	0.8407
3548	0.8403
3539	0.8397
3530	0.8391
3521	0.8386
3512	0.8382
3503	0.8374
3494	0.835
3485	0.8315
3476	0.8263
3467	0.8209
3458	0.816
3449	0.8122
3440	0.8089
3431	0.8058
3422	0.8039
3413	0.8032
3404	0.8044
3395	0.8062
3386	0.8086
3377	0.8094
3368	0.8095
3359	0.8094
3350	0.8115
3341	0.8137
3332	0.8157
3323	0.8174
3314	0.8188
3305	0.8194
3296	0.8198
3287	0.8194
3278	0.8178
3269	0.8155
3260	0.8122
3251	0.8104
3242	0.8098
3233	0.8093
3224	0.8065
3215	0.7993
3206	0.7971
3197	0.7967
3188	0.7965
3179	0.7962
3170	0.7962
3161	0.7958
3152	0.7949
3143	0.7928
3134	0.7906
3125	0.7856
3116	0.7739
3107	0.7345
3098	0.7133
3089	0.7101
3080	0.6259
3071	0.668
3062	0.7275
3053	0.7341
3044	0.6998
3035	0.6924
3026	0.716
3017	0.7175
3008	0.7121
2999	0.7004
2990	0.6935
2981	0.6928
2972	0.6761
2963	0.6698
2954	0.6801
2945	0.6705
2936	0.603
2927	0.6288
2918	0.6893
2909	0.7171
2900	0.7372
2891	0.745
2882	0.6801
2873	0.6182
2864	0.7101
2855	0.7638
2846	0.7772
2837	0.7743
2828	0.7811
2819	0.7989
2810	0.8051
2801	0.8088
2792	0.8176
2783	0.8257
2774	0.8301
2765	0.8303
2756	0.8244
2747	0.8143
2738	0.8217
2729	0.8309
2720	0.8335
2711	0.8378
2702	0.8362
2693	0.8318
2684	0.8334
2675	0.837
2666	0.8404
2657	0.842
2648	0.8436
2639	0.8435
2630	0.8435
2621	0.8444
2612	0.8457
2603	0.8439
2594	0.8435
2585	0.8424
2576	0.8364
2567	0.8418
2558	0.8525
2549	0.8578
2540	0.8578
2531	0.8586
2522	0.86
2513	0.8608
2504	0.8612
2495	0.8606
2486	0.86
2477	0.8595
2468	0.8575
2459	0.8305
2450	0.8228
2441	0.8339
2432	0.8474
2423	0.8573
2414	0.8599
2405	0.8568
2396	0.8439
2387	0.8461
2378	0.8487
2369	0.8521
2360	0.8545
2351	0.8541
2342	0.8328
2333	0.8382
2324	0.8455
2315	0.8508
2306	0.8543
2297	0.8538
2288	0.8573
2279	0.8596
2270	0.8568
2261	0.8599
2252	0.8694
2243	0.8758
2234	0.8787
2225	0.8786
2216	0.8785
2207	0.8775
2198	0.8761
2189	0.8773
2180	0.881
2171	0.8847
2162	0.8873
2153	0.8886
2144	0.8897
2135	0.8904
2126	0.891
2117	0.8914
2108	0.8914
2099	0.8913
2090	0.8913
2081	0.8913
2072	0.8914
2063	0.8914
2054	0.8915
2045	0.8915
2036	0.8913
2027	0.8909
2018	0.8904
2009	0.8861
2000	0.8857
1991	0.8855
1982	0.8839
1973	0.8786
1964	0.8707
1955	0.8482
1946	0.8794
1937	0.8895
1928	0.8878
1919	0.8836
1910	0.8593
1901	0.8502
1892	0.8718
1883	0.8839
1874	0.8863
1865	0.8658
1856	0.8643
1847	0.8709
1838	0.8766
1829	0.8814
1820	0.8801
1811	0.8471
1802	0.8131
1793	0.8565
1784	0.8762
1775	0.8705
1766	0.8557
1757	0.8625
1748	0.8596
1739	0.8549
1730	0.8359
1721	0.8468
1712	0.859
1703	0.8516
1694	0.8482
1685	0.8236
1676	0.8034
1667	0.7921
1658	0.7817
1649	0.79
1640	0.7958
1631	0.7644
1622	0.7328
1613	0.6646
1604	0.5947
1595	0.4866
1586	0.4047
1577	0.4
1568	0.1914
1559	0.2187
1550	0.1927
1541	0.009
1532	0.0103
1523	0.1698
1514	0.4254
1505	0.4923
1496	0.5384
1487	0.3038
1478	0.5772
1469	0.6036
1460	0.5817
1451	0.633
1442	0.6731
1433	0.6774
1424	0.6944
1415	0.7418
1406	0.6855
1397	0.7161
1388	0.6526
1379	0.6381
1370	0.5847
1361	0.1157
1352	0.0085
1343	0.2363
1334	0.5845
1325	0.626
1316	0.4745
1307	0.6105
1298	0.584
1289	0.625
1280	0.8091
1271	0.8949
1262	0.932
1253	0.9471
1244	0.952
1235	0.9392
1226	0.9171
1217	0.8723
1208	0.883
1199	0.8986
1190	0.9105
1181	0.9067
1172	0.8917
1163	0.8324
1154	0.7855
1145	0.8011
1136	0.816
1127	0.8208
1118	0.7893
1109	0.6872
1100	0.3457
1091	0.5989
1082	0.4489
1073	0.6628
1064	0.7601
1055	0.7524
1046	0.6855
1037	0.7076
1028	0.768
1019	0.7865
1010	0.7937
1001	0.7791
992	0.7918
983	0.7893
974	0.7904
965	0.7994
956	0.8057
947	0.8067
938	0.7961
929	0.7228
920	0.5962
911	0.5922
902	0.6288
893	0.7184
884	0.407
875	0.655
866	0.6831
857	0.6485
848	0.711
839	0.7634
830	0.7849
821	0.7625
812	0.6308
803	0.0009
794	0.6397
785	0.7646
776	0.8003
767	0.8138
758	0.8086
749	0.7647
740	0.6282
731	0.0042
722	0.5295
713	0.7882
704	0.8282
695	0.8363
686	0.8133
677	0.6218
668	0.5531
659	0.7625
650	0.7754
641	0.8187
632	0.851
623	0.8674
614	0.8675
605	0.8724
596	0.877
587	0.8821
578	0.875
569	0.8725
560	0.8595
551	0.8415
542	0.8421
533	0.8486
524	0.8514
515	0.8478
506	0.8103
497	0.8017
488	0.7581
479	0.7684
470	0.8071
461	0.8389
452	0.8482
443	0.84
434	0.8242
425	0.7642
416	0.6785
407	0.5234
398	0.2954
389	0.2521
