Infrared Spectrum: METHYLSILANE
Formula: C H6 Si
CAS: 992-94-9
State: GAS (22 mmHg, N2 ADDED, TOTAL PRESSURE 750 mmHg)
Boiling point: 56 C
Class: COBLENTZ
Instrument: PERKIN-ELMER 521 (GRATING)
Instrument parameters: FILTERS 3150, 2500, 2000, 1150, 700, 410, GRATING CHANGES AT 2000, 630 CM^-^1
Sampling: TRANSMISSION
Path length: 10 CM
Resolution: 2
Origin: DOW CORNING CORP.
1/CM	TRANSMITTANCE
274.08	0.001
283.661	0.018
293.242	0.0479
302.823	0.044
312.403	0.065
321.984	0.098
331.565	0.104
341.146	0.1619
350.727	0.2299
360.308	0.277
369.888	0.378
379.469	0.439
389.05	0.536
398.631	0.577
408.212	0.6459
417.793	0.69
427.374	0.741
436.954	0.772
446.535	0.798
456.116	0.808
465.697	0.83
475.278	0.837
484.859	0.845
494.439	0.839
504.02	0.826
513.601	0.811
523.182	0.795
532.763	0.787
542.344	0.795
551.924	0.802
561.505	0.826
571.086	0.845
580.667	0.86
590.248	0.869
599.829	0.873
609.41	0.88
618.99	0.884
628.571	0.864
638.152	0.862
647.733	0.864
657.314	0.856
666.895	0.847
676.475	0.815
686.056	0.795
695.637	0.811
705.218	0.8409
714.799	0.759
724.38	0.7999
733.961	0.864
743.541	0.867
753.122	0.862
762.703	0.851
772.284	0.852
781.865	0.869
791.446	0.865
801.026	0.851
810.607	0.815
820.188	0.7671
829.769	0.7111
839.35	0.631
848.931	0.527
858.512	0.4671
868.092	0.4
877.673	0.387
887.254	0.413
896.835	0.459
906.416	0.471
915.997	0.3811
925.577	0.1951
935.158	0.126
944.739	0.048
954.32	0.054
963.901	0.2559
973.482	0.476
983.063	0.6658
992.643	0.718
1002.22	0.763
1011.81	0.776
1021.39	0.787
1030.97	0.797
1040.55	0.798
1050.13	0.795
1059.71	0.778
1069.29	0.746
1078.87	0.729
1088.45	0.729
1098.03	0.759
1107.61	0.782
1117.19	0.81
1126.78	0.832
1136.36	0.834
1145.94	0.832
1155.52	0.832
1165.1	0.83
1174.68	0.832
1184.26	0.839
1193.84	0.847
1203.42	0.843
1213	0.851
1222.58	0.841
1232.16	0.813
1241.75	0.774
1251.33	0.785
1260.91	0.67
1270.49	0.769
1280.07	0.765
1289.65	0.826
1299.23	0.854
1308.81	0.854
1318.39	0.852
1327.97	0.852
1337.55	0.851
1347.13	0.845
1356.72	0.839
1366.3	0.8321
1375.88	0.826
1385.46	0.815
1395.04	0.811
1404.62	0.811
1414.2	0.813
1423.78	0.834
1433.36	0.828
1442.94	0.834
1452.52	0.824
1462.1	0.828
1471.69	0.804
1481.27	0.839
1490.85	0.839
1500.43	0.836
1510.01	0.836
1519.59	0.797
1529.17	0.83
1538.75	0.785
1548.33	0.837
1557.91	0.77
1567.49	0.823
1577.07	0.843
1586.66	0.841
1596.24	0.845
1605.82	0.834
1615.4	0.811
1624.98	0.832
1634.56	0.793
1644.14	0.832
1653.72	0.8237
1663.3	0.828
1672.88	0.813
1682.46	0.7852
1692.05	0.832
1701.63	0.821
1711.21	0.819
1720.79	0.832
1730.37	0.817
1739.95	0.824
1749.53	0.824
1759.11	0.821
1768.69	0.813
1778.27	0.83
1787.85	0.823
1797.43	0.828
1807.02	0.832
1816.6	0.834
1826.18	0.821
1835.76	0.834
1845.34	0.832
1854.92	0.834
1864.5	0.828
1874.08	0.83
1883.66	0.83
1893.24	0.828
1902.82	0.826
1912.4	0.826
1921.99	0.83
1931.57	0.828
1941.15	0.823
1950.73	0.826
1960.31	0.824
1969.89	0.819
1979.47	0.824
1989.05	0.828
1998.63	0.841
2008.21	0.843
2017.79	0.839
2027.37	0.841
2036.96	0.839
2046.54	0.836
2056.12	0.8328
2065.7	0.8186
2075.28	0.8092
2084.86	0.7795
2094.44	0.748
2104.02	0.6838
2113.6	0.6134
2123.18	0.5086
2132.76	0.4231
2142.34	0.316
2151.93	0.2117
2161.51	0.1595
2171.09	0.1789
2180.67	0.2052
2190.25	0.1722
2199.83	0.239
2209.41	0.4229
2218.99	0.5344
2228.57	0.6576
2238.15	0.7345
2247.73	0.7965
2257.31	0.8126
2266.9	0.8322
2276.48	0.8289
2286.06	0.828
2295.64	0.83
2305.22	0.839
2314.8	0.845
2324.38	0.854
2333.96	0.854
2343.54	0.851
2353.12	0.851
2362.7	0.837
2372.28	0.836
2381.87	0.826
2391.45	0.824
2401.03	0.8262
2410.61	0.828
2420.19	0.8252
2429.77	0.826
2439.35	0.826
2448.93	0.826
2458.51	0.8238
2468.09	0.823
2477.67	0.8215
2487.26	0.823
2496.84	0.823
2506.42	0.823
2516	0.819
2525.58	0.819
2535.16	0.819
2544.74	0.8187
2554.32	0.8203
2563.9	0.8207
2573.48	0.817
2583.06	0.817
2592.64	0.815
2602.23	0.815
2611.81	0.815
2621.39	0.8148
2630.97	0.816
2640.55	0.815
2650.13	0.813
2659.71	0.8149
2669.29	0.813
2678.87	0.81
2688.45	0.811
2698.03	0.8109
2707.61	0.81
2717.2	0.811
2726.78	0.811
2736.36	0.8097
2745.94	0.808
2755.52	0.804
2765.1	0.806
2774.68	0.8076
2784.26	0.806
2793.84	0.8055
2803.42	0.7985
2813	0.798
2822.58	0.795
2832.17	0.7872
2841.75	0.778
2851.33	0.776
2860.91	0.776
2870.49	0.776
2880.07	0.7723
2889.65	0.769
2899.23	0.7632
2908.81	0.761
2918.39	0.7571
2927.97	0.7471
2937.55	0.7352
2947.14	0.7321
2956.72	0.724
2966.3	0.709
2975.88	0.6959
2985.46	0.7121
2995.04	0.7261
3004.62	0.7341
3014.2	0.7542
3023.78	0.7614
3033.36	0.7742
3042.94	0.7793
3052.52	0.7875
3062.11	0.7877
3071.69	0.7847
3081.27	0.783
3090.85	0.785
3100.43	0.782
3110.01	0.78
3119.59	0.78
3129.17	0.78
3138.75	0.7845
3148.33	0.7876
3157.91	0.7874
3167.5	0.7827
3177.08	0.7883
3186.66	0.7917
3196.24	0.7913
3205.82	0.7898
3215.4	0.7912
3224.98	0.791
3234.56	0.7929
3244.14	0.793
3253.72	0.793
3263.3	0.793
3272.88	0.791
3282.47	0.791
3292.05	0.791
3301.63	0.789
3311.21	0.787
3320.79	0.787
3330.37	0.785
3339.95	0.783
3349.53	0.782
3359.11	0.782
3368.69	0.782
3378.27	0.782
3387.85	0.782
3397.44	0.78
3407.02	0.78
3416.6	0.7786
3426.18	0.778
3435.76	0.778
3445.34	0.778
3454.92	0.778
3464.5	0.778
3474.08	0.776
3483.66	0.776
3493.24	0.7776
3502.82	0.78
3512.41	0.776
3521.99	0.7793
3531.57	0.78
3541.15	0.782
3550.73	0.78
3560.31	0.7803
3569.89	0.7799
3579.47	0.782
3589.05	0.78
3598.63	0.7825
3608.21	0.778
3617.79	0.776
3627.38	0.778
3636.96	0.778
3646.54	0.7721
3656.12	0.7783
3665.7	0.7758
3675.28	0.7732
3684.86	0.776
3694.44	0.778
3704.02	0.7757
3713.6	0.774
3723.18	0.774
3732.76	0.7693
3742.35	0.774
3751.93	0.7712
3761.51	0.7728
3771.09	0.77
3780.67	0.77
3790.25	0.77
