Infrared Spectrum: 2,3,3-TRICHLORO-N-(2-THIAZOLE) ACRYLAMIDE
Formula: C6 H3 Cl3 N2 O S
CAS: 99516-00-4
State: SOLID (MINERAL OIL MULL)
Class: COBLENTZ
Instrument: Not specified, most likely a prism, grating, or hybrid spectrometer.
Sampling: TRANSMISSION
Resolution: 4
Origin: DOW CHEMICAL COMPANY
MICROMETERS	TRANSMITTANCE
2.016	0.481
2.05511	0.486
2.09423	0.495
2.13334	0.504
2.17246	0.51
2.21157	0.516
2.25069	0.516
2.2898	0.518
2.32892	0.523
2.36803	0.531
2.40715	0.537
2.44626	0.548
2.48538	0.552
2.52449	0.556
2.56361	0.56
2.60272	0.566
2.64184	0.574
2.68095	0.577
2.72007	0.585
2.75918	0.59
2.7983	0.593
2.83741	0.592
2.87653	0.592
2.91564	0.589
2.95476	0.592
2.99387	0.595
3.03299	0.6
3.0721	0.601
3.11122	0.595
3.15033	0.571
3.18945	0.573
3.22856	0.558
3.26768	0.566
3.30679	0.544
3.34591	0.434
3.38502	0.139
3.42414	0.088
3.46325	0.17
3.50237	0.224
3.54148	0.443
3.5806	0.468
3.61971	0.465
3.65883	0.462
3.69794	0.475
3.73706	0.508
3.77617	0.534
3.81529	0.558
3.8544	0.574
3.89352	0.598
3.93263	0.609
3.97175	0.627
4.01086	0.643
4.04998	0.659
4.08909	0.672
4.12821	0.68
4.16732	0.682
4.20644	0.682
4.24555	0.693
4.28466	0.709
4.32378	0.722
4.36289	0.727
4.40201	0.733
4.44112	0.741
4.48024	0.746
4.51935	0.751
4.55847	0.756
4.59758	0.757
4.6367	0.762
4.67581	0.765
4.71493	0.767
4.75404	0.77
4.79316	0.773
4.83227	0.775
4.87139	0.778
4.9105	0.781
4.94962	0.781
4.98873	0.786
5.02785	0.794
5.06696	0.796
5.10608	0.799
5.14519	0.8
5.18431	0.802
5.22342	0.805
5.26254	0.808
5.30165	0.808
5.34077	0.807
5.37988	0.805
5.419	0.807
5.45811	0.813
5.49723	0.817
5.53634	0.813
5.57546	0.813
5.61457	0.813
5.65369	0.81
5.6928	0.805
5.73192	0.808
5.77103	0.818
5.81015	0.817
5.84926	0.797
5.88838	0.743
5.92749	0.563
5.96661	0.321
6.00572	0.531
6.04484	0.65
6.08395	0.709
6.12307	0.707
6.16218	0.688
6.2013	0.624
6.24041	0.539
6.27953	0.439
6.31864	0.34
6.35776	0.258
6.39687	0.309
6.43598	0.499
6.4751	0.592
6.51421	0.675
6.55333	0.698
6.59244	0.723
6.63156	0.741
6.67067	0.728
6.70979	0.728
6.7489	0.677
6.78802	0.534
6.82713	0.47
6.86625	0.544
6.90536	0.608
6.94448	0.717
6.98359	0.775
7.02271	0.788
7.06182	0.797
7.10094	0.794
7.14005	0.788
7.17917	0.752
7.21828	0.664
7.2574	0.653
7.29651	0.738
7.33563	0.775
7.37474	0.764
7.41386	0.747
7.45297	0.688
7.49209	0.574
7.5312	0.467
7.57032	0.54
7.60943	0.356
7.64855	0.24
7.68766	0.274
7.72678	0.524
7.76589	0.691
7.80501	0.749
7.84412	0.776
7.88324	0.797
7.92235	0.81
7.96147	0.808
8.00058	0.791
8.0397	0.805
8.07881	0.818
8.11793	0.799
8.15704	0.791
8.19616	0.829
8.23527	0.842
8.27439	0.863
8.3135	0.868
8.35262	0.868
8.39173	0.871
8.43085	0.866
8.46996	0.834
8.50908	0.682
8.54819	0.548
8.58731	0.707
8.62642	0.817
8.66553	0.836
8.70465	0.847
8.74376	0.857
8.78288	0.866
8.82199	0.868
8.86111	0.871
8.90022	0.871
8.93934	0.871
8.97845	0.871
9.01757	0.871
9.05668	0.876
9.0958	0.873
9.13491	0.868
9.17403	0.853
9.21314	0.775
9.25226	0.778
9.29137	0.839
9.33049	0.847
9.3696	0.849
9.40872	0.842
9.44783	0.837
9.48695	0.844
9.52606	0.858
9.56518	0.863
9.60429	0.868
9.64341	0.869
9.68252	0.873
9.72164	0.874
9.76075	0.874
9.79987	0.878
9.83898	0.882
9.8781	0.884
9.91721	0.89
9.95633	0.897
9.99544	0.902
10.0346	0.905
10.0737	0.905
10.1128	0.906
10.1519	0.91
10.191	0.911
10.2301	0.911
10.2692	0.914
10.3084	0.914
10.3475	0.914
10.3866	0.911
10.4257	0.906
10.4648	0.898
10.5039	0.884
10.5431	0.849
10.5822	0.783
10.6213	0.654
10.6604	0.542
10.6995	0.571
10.7386	0.725
10.7777	0.81
10.8169	0.861
10.856	0.878
10.8951	0.881
10.9342	0.881
10.9733	0.881
11.0124	0.881
11.0515	0.881
11.0907	0.876
11.1298	0.869
11.1689	0.858
11.208	0.821
11.2471	0.698
11.2862	0.617
11.3253	0.736
11.3645	0.741
11.4036	0.701
11.4427	0.695
11.4818	0.651
11.5209	0.568
11.56	0.523
11.5992	0.524
11.6383	0.582
11.6774	0.638
11.7165	0.685
11.7556	0.709
11.7947	0.731
11.8338	0.765
11.873	0.784
11.9121	0.799
11.9512	0.813
11.9903	0.825
12.0294	0.833
12.0685	0.837
12.1076	0.842
12.1468	0.845
12.1859	0.847
12.225	0.852
12.2641	0.857
12.3032	0.861
12.3423	0.865
12.3815	0.868
12.4206	0.868
12.4597	0.868
12.4988	0.861
12.5379	0.845
12.577	0.78
12.6161	0.678
12.6553	0.646
12.6944	0.752
12.7335	0.826
12.7726	0.85
12.8117	0.869
12.8508	0.878
12.8899	0.886
12.9291	0.89
12.9682	0.897
13.0073	0.9
13.0464	0.902
13.0855	0.905
13.1246	0.903
13.1637	0.895
13.2029	0.873
13.242	0.833
13.2811	0.751
13.3202	0.677
13.3593	0.654
13.3984	0.703
13.4376	0.773
13.4767	0.818
13.5158	0.842
13.5549	0.855
13.594	0.85
13.6331	0.805
13.6722	0.717
13.7114	0.629
13.7505	0.574
13.7896	0.608
13.8287	0.715
13.8678	0.76
13.9069	0.759
13.946	0.704
13.9852	0.642
14.0243	0.568
14.0634	0.601
14.1025	0.725
14.1416	0.813
14.1807	0.852
14.2199	0.874
14.259	0.868
14.2981	0.833
14.3372	0.767
14.3763	0.701
14.4154	0.653
14.4545	0.65
14.4937	0.714
14.5328	0.784
14.5719	0.828
14.611	0.855
14.6501	0.876
14.6892	0.892
14.7283	0.905
14.7675	0.919
14.8066	0.929
14.8457	0.935
14.8848	0.935
14.9239	0.935
14.963	0.939
15.0022	0.947
15.0413	0.953
15.0804	0.956
15.1195	0.958
15.1586	0.959
15.1977	0.959
15.2368	0.959
15.276	0.961
15.3151	0.964
15.3542	0.966
15.3933	0.966
15.4324	0.966
15.4715	0.966
15.5106	0.966
15.5498	0.963
15.5889	0.961
15.628	0.959
15.6671	0.956
15.7062	0.95
15.7453	0.947
15.7844	0.943
15.8236	0.94
15.8627	0.937
15.9018	0.937
15.9409	0.94
15.98	0.945
