Infrared Spectrum: m-DINITROBENZENE
Formula: C6 H4 N2 O4
CAS: 99-65-0
State: SOLID (MINERAL OIL MULL)
Class: COBLENTZ
Instrument: Not specified, most likely a grating or hybrid spectrometer.
Sampling: TRANSMISSION
Resolution: 4
Origin: DOW CORNING CORP.
1/CM	TRANSMITTANCE
254.098	0.907
263.934	0.927
273.77	0.953
283.606	0.961
293.442	0.968
303.278	0.973
313.115	0.98
322.951	0.994
332.787	0.994
342.623	0.993
352.459	0.984
362.295	0.991
372.131	0.991
381.967	0.989
391.803	1.003
401.639	0.989
411.475	0.963
421.312	0.968
431.148	0.977
440.984	0.977
450.82	0.973
460.656	0.982
470.492	0.996
480.328	0.996
490.164	0.998
500	1
509.836	1.001
519.672	1.003
529.508	1.005
539.345	1.008
549.181	1.01
559.017	1.013
568.853	1.015
578.689	1.017
588.525	1.019
598.361	1.022
608.197	1.022
618.033	1.022
627.869	1.022
637.705	1.02
647.542	1.017
657.378	0.901
667.214	1.02
677.05	1.024
686.886	1.017
696.722	1.006
706.558	0.977
716.394	0.6179
726.23	0.835
736.066	0.897
745.902	0.968
755.739	0.993
765.575	0.968
775.411	1.006
785.247	1.008
795.083	1.01
804.919	1.008
814.755	0.993
824.591	0.916
834.427	0.982
844.263	0.935
854.099	1.003
863.936	1.003
873.772	0.998
883.608	0.989
893.444	0.975
903.28	0.956
913.116	0.866
922.952	0.96
932.788	0.973
942.624	0.97
952.46	0.972
962.296	0.972
972.132	0.968
981.969	0.967
991.805	0.97
1001.64	0.958
1011.48	0.97
1021.31	0.968
1031.15	0.965
1040.99	0.967
1050.82	0.961
1060.66	0.937
1070.49	0.803
1080.33	0.902
1090.17	0.932
1100	0.907
1109.84	0.958
1119.67	0.956
1129.51	0.951
1139.35	0.946
1149.18	0.911
1159.02	0.944
1168.85	0.937
1178.69	0.947
1188.53	0.953
1198.36	0.953
1208.2	0.944
1218.03	0.946
1227.87	0.94
1237.71	0.934
1247.54	0.925
1257.38	0.914
1267.22	0.911
1277.05	0.786
1286.89	0.901
1296.72	0.883
1306.56	0.869
1316.4	0.852
1326.23	0.796
1336.07	0.753
1345.9	0.4679
1355.74	0.241
1365.58	0.633
1375.41	0.574
1385.25	0.756
1395.08	0.914
1404.92	0.923
1414.76	0.914
1424.59	0.904
1434.43	0.835
1444.26	0.696
1454.1	0.569
1463.94	0.496
1473.77	0.673
1483.61	0.826
1493.45	0.828
1503.28	0.75
1513.12	0.55
1522.95	0.44
1532.79	0.315
1542.63	0.21
1552.46	0.7511
1562.3	0.888
1572.13	0.906
1581.97	0.907
1591.81	0.888
1601.64	0.748
1611.48	0.77
1621.31	0.861
1631.15	0.934
1640.99	0.944
1650.82	0.939
1660.66	0.953
1670.49	0.961
1680.33	0.963
1690.17	0.961
1700	0.961
1709.84	0.961
1719.68	0.963
1729.51	0.961
1739.35	0.96
1749.18	0.96
1759.02	0.956
1768.86	0.951
1778.69	0.96
1788.53	0.965
1798.36	0.963
1808.2	0.965
1818.04	0.958
1827.87	0.958
1837.71	0.963
1847.54	0.961
1857.38	0.965
1867.22	0.963
1877.05	0.963
1886.89	0.961
1896.72	0.958
1906.56	0.963
1916.4	0.967
1926.23	0.961
1936.07	0.963
1945.91	0.96
1955.74	0.961
1965.58	0.97
1975.41	0.967
1985.25	0.967
1995.09	0.972
2004.92	0.9935
2014.76	1
2024.59	0.998
2034.43	0.994
2044.27	0.991
2054.1	0.987
2063.94	0.9902
2073.77	0.993
2083.61	0.993
2093.45	0.989
2103.28	0.989
2113.12	0.991
2122.95	0.991
2132.79	0.991
2142.63	0.989
2152.46	0.987
2162.3	0.986
2172.14	0.986
2181.97	0.986
2191.81	0.986
2201.64	0.986
2211.48	0.986
2221.32	0.986
2231.15	0.984
2240.99	0.9838
2250.82	0.984
2260.66	0.984
2270.5	0.984
2280.33	0.986
2290.17	0.987
2300	0.989
2309.84	0.989
2319.68	0.989
2329.51	0.987
2339.35	0.986
2349.18	0.986
2359.02	0.9842
2368.86	0.98
2378.69	0.9753
2388.53	0.9722
2398.37	0.972
2408.2	0.97
2418.04	0.968
2427.87	0.97
2437.71	0.97
2447.55	0.9677
2457.38	0.97
2467.22	0.9686
2477.05	0.963
2486.89	0.963
2496.73	0.9643
2506.56	0.963
2516.4	0.963
2526.23	0.961
2536.07	0.961
2545.91	0.958
2555.74	0.956
2565.58	0.9519
2575.41	0.949
2585.25	0.948
2595.09	0.946
2604.92	0.944
2614.76	0.942
2624.6	0.939
2634.43	0.937
2644.27	0.935
2654.1	0.934
2663.94	0.934
2673.78	0.932
2683.61	0.934
2693.45	0.9343
2703.28	0.932
2713.12	0.9277
2722.96	0.9224
2732.79	0.9216
2742.63	0.927
2752.46	0.928
2762.3	0.927
2772.14	0.9226
2781.97	0.9068
2791.81	0.8945
2801.65	0.8802
2811.48	0.854
2821.32	0.814
2831.15	0.7374
2840.99	0.5232
2850.83	0.2528
2860.66	0.2184
2870.5	0.2363
2880.33	0.328
2890.17	0.3017
2900.01	0.1851
2909.84	0.1021
2919.68	0.0596
2929.51	0.0259
2939.35	0.1102
2949.19	0.1301
2959.02	0.1411
2968.86	0.2627
2978.69	0.5152
2988.53	0.7099
2998.37	0.7928
3008.2	0.8305
3018.04	0.8512
3027.88	0.8554
3037.71	0.857
3047.55	0.8457
3057.38	0.8591
3067.22	0.8561
3077.06	0.848
3086.89	0.8101
3096.73	0.7417
3106.56	0.6789
3116.4	0.8204
3126.24	0.9032
3136.07	0.9136
3145.91	0.918
3155.74	0.921
3165.58	0.925
3175.42	0.9275
3185.25	0.93
3195.09	0.932
3204.92	0.932
3214.76	0.9329
3224.6	0.934
3234.43	0.934
3244.27	0.934
3254.11	0.934
3263.94	0.932
3273.78	0.93
3283.61	0.928
3293.45	0.9263
3303.29	0.923
3313.12	0.9207
3322.96	0.918
3332.79	0.9137
3342.63	0.913
3352.47	0.911
3362.3	0.9105
3372.14	0.907
3381.97	0.907
3391.81	0.906
3401.65	0.906
3411.48	0.906
3421.32	0.906
3431.15	0.906
3440.99	0.906
3450.83	0.906
3460.66	0.906
3470.5	0.906
3480.34	0.906
3490.17	0.906
3500.01	0.906
3509.84	0.906
3519.68	0.906
3529.52	0.906
3539.35	0.904
3549.19	0.904
3559.02	0.904
3568.86	0.904
3578.7	0.902
3588.53	0.9037
3598.37	0.902
3608.2	0.902
3618.04	0.901
3627.88	0.901
3637.71	0.8995
3647.55	0.899
3657.38	0.899
3667.22	0.897
3677.06	0.897
3686.89	0.899
3696.73	0.8957
3706.57	0.895
3716.4	0.8957
3726.24	0.894
3736.07	0.892
3745.91	0.892
3755.75	0.89
3765.58	0.89
3775.42	0.8909
3785.25	0.888
3795.09	0.887
