Infrared Spectrum: N,N-DIETHYL-1,1,1-TRIMETHYLSILYLAMINE
Formula: C7 H19 N Si
CAS: 996-50-9
State: SOLID (BETWEEN SALTS)
Class: COBLENTZ
Instrument: BECKMAN IR-4 (HYBRID PRISM-GRATING)
Sampling: TRANSMISSION
Resolution: 4
Origin: PENINSULAR CHEMRESEARCH, INC., GAINESVILLE, FLORIDA
MICROMETERS	TRANSMITTANCE
2.015	0.91
2.04997	0.904
2.08494	0.915
2.11991	0.909
2.15488	0.907
2.18985	0.906
2.22482	0.9
2.25979	0.899
2.29476	0.906
2.32973	0.905
2.3647	0.911
2.39967	0.904
2.43464	0.9
2.46962	0.909
2.50459	0.91
2.53956	0.904
2.57453	0.91
2.6095	0.889
2.64447	0.91
2.67944	0.909
2.71441	0.914
2.74938	0.924
2.78435	0.917
2.81932	0.909
2.85429	0.9
2.88926	0.896
2.92423	0.899
2.9592	0.899
2.99417	0.894
3.02914	0.887
3.06411	0.884
3.09908	0.876
3.13405	0.872
3.16902	0.865
3.20399	0.863
3.23896	0.858
3.27393	0.848
3.30891	0.782
3.34388	0.516
3.37885	0.377
3.41382	0.601
3.44879	0.627
3.48376	0.626
3.51873	0.732
3.5537	0.795
3.58867	0.861
3.62364	0.874
3.65861	0.88
3.69358	0.884
3.72855	0.891
3.76352	0.897
3.79849	0.9
3.83346	0.902
3.86843	0.901
3.9034	0.905
3.93837	0.909
3.97334	0.902
4.00831	0.907
4.04328	0.904
4.07825	0.91
4.11322	0.901
4.14819	0.896
4.18317	0.88
4.21814	0.894
4.25311	0.906
4.28808	0.917
4.32305	0.915
4.35802	0.905
4.39299	0.905
4.42796	0.901
4.46293	0.901
4.4979	0.9
4.53287	0.897
4.56784	0.904
4.60281	0.905
4.63778	0.907
4.67275	0.904
4.70772	0.897
4.74269	0.897
4.77766	0.894
4.81263	0.907
4.8476	0.899
4.88257	0.9
4.91754	0.907
4.95251	0.9
4.98748	0.907
5.02246	0.9
5.05743	0.896
5.0924	0.892
5.12737	0.895
5.16234	0.894
5.19731	0.901
5.23228	0.897
5.26725	0.899
5.30222	0.887
5.33719	0.897
5.37216	0.889
5.40713	0.895
5.4421	0.906
5.47707	0.895
5.51204	0.899
5.54701	0.901
5.58198	0.899
5.61695	0.905
5.65192	0.896
5.68689	0.895
5.72186	0.901
5.75683	0.897
5.7918	0.887
5.82677	0.881
5.86174	0.882
5.89672	0.877
5.93169	0.876
5.96666	0.872
6.00163	0.861
6.0366	0.864
6.07157	0.858
6.10654	0.867
6.14151	0.867
6.17648	0.872
6.21145	0.872
6.24642	0.871
6.28139	0.851
6.31636	0.85
6.35133	0.859
6.3863	0.863
6.42127	0.871
6.45624	0.87
6.49121	0.861
6.52618	0.856
6.56115	0.858
6.59612	0.854
6.63109	0.856
6.66606	0.85
6.70103	0.843
6.736	0.783
6.77098	0.749
6.80595	0.732
6.84092	0.735
6.87589	0.742
6.91086	0.747
6.94583	0.789
6.9808	0.801
7.01577	0.804
7.05074	0.785
7.08571	0.775
7.12068	0.787
7.15565	0.768
7.19062	0.737
7.22559	0.643
7.26056	0.59
7.29553	0.728
7.3305	0.778
7.36547	0.772
7.40044	0.721
7.43541	0.782
7.47038	0.803
7.50535	0.82
7.54032	0.83
7.57529	0.829
7.61027	0.815
7.64524	0.806
7.68021	0.758
7.71518	0.721
7.75015	0.752
7.78512	0.74
7.82009	0.691
7.85506	0.627
7.89003	0.485
7.925	0.288
7.95997	0.178
7.99494	0.261
8.02991	0.561
8.06488	0.732
8.09985	0.79
8.13482	0.808
8.16979	0.808
8.20476	0.762
8.23973	0.667
8.2747	0.545
8.30967	0.636
8.34464	0.739
8.37961	0.712
8.41458	0.638
8.44955	0.526
8.48453	0.45
8.5195	0.508
8.55447	0.65
8.58944	0.743
8.62441	0.773
8.65938	0.773
8.69435	0.769
8.72932	0.762
8.76429	0.76
8.79926	0.758
8.83423	0.763
8.8692	0.76
8.90417	0.752
8.93914	0.739
8.97411	0.737
9.00908	0.719
9.04405	0.683
9.07902	0.678
9.11399	0.672
9.14896	0.66
9.18393	0.642
9.2189	0.581
9.25387	0.52
9.28884	0.438
9.32382	0.358
9.35879	0.298
9.39376	0.237
9.42873	0.209
9.4637	0.224
9.49867	0.29
9.53364	0.368
9.56861	0.448
9.60358	0.494
9.63855	0.488
9.67352	0.448
9.70849	0.409
9.74346	0.45
9.77843	0.569
9.8134	0.64
9.84837	0.699
9.88334	0.731
9.91831	0.768
9.95328	0.789
9.98825	0.81
10.0232	0.82
10.0582	0.826
10.0932	0.83
10.1281	0.835
10.1631	0.84
10.1981	0.841
10.233	0.841
10.268	0.845
10.303	0.843
10.338	0.846
10.3729	0.843
10.4079	0.841
10.4429	0.833
10.4778	0.833
10.5128	0.828
10.5478	0.821
10.5827	0.801
10.6177	0.768
10.6527	0.737
10.6877	0.678
10.7226	0.579
10.7576	0.485
10.7926	0.403
10.8275	0.442
10.8625	0.547
10.8975	0.612
10.9325	0.647
10.9674	0.661
11.0024	0.683
11.0374	0.702
11.0723	0.709
11.1073	0.711
11.1423	0.711
11.1772	0.701
11.2122	0.697
11.2472	0.697
11.2822	0.694
11.3171	0.687
11.3521	0.676
11.3871	0.667
11.422	0.648
11.457	0.627
11.492	0.597
11.527	0.546
11.5619	0.506
11.5969	0.438
11.6319	0.358
11.6668	0.288
11.7018	0.217
11.7368	0.133
11.7717	0.09
11.8067	0.07
11.8417	0.073
11.8767	0.075
11.9116	0.08
11.9466	0.084
11.9816	0.09
12.0165	0.119
12.0515	0.151
12.0865	0.2
12.1214	0.252
12.1564	0.308
12.1914	0.396
12.2264	0.457
12.2613	0.509
12.2963	0.567
12.3313	0.61
12.3662	0.632
12.4012	0.662
12.4362	0.686
12.4712	0.694
12.5061	0.697
12.5411	0.704
12.5761	0.697
12.611	0.684
12.646	0.671
12.681	0.657
12.7159	0.661
12.7509	0.687
12.7859	0.696
12.8209	0.707
12.8558	0.709
12.8908	0.717
12.9258	0.712
12.9607	0.704
12.9957	0.693
13.0307	0.667
13.0656	0.647
13.1006	0.599
13.1356	0.54
13.1706	0.489
13.2055	0.449
13.2405	0.455
13.2755	0.486
13.3104	0.526
13.3454	0.544
13.3804	0.552
13.4154	0.576
13.4503	0.6
13.4853	0.633
13.5203	0.657
13.5552	0.691
13.5902	0.701
13.6252	0.712
13.6601	0.714
13.6951	0.722
13.7301	0.726
13.7651	0.717
13.8	0.729
13.835	0.732
13.87	0.735
13.9049	0.737
13.9399	0.737
13.9749	0.734
14.0098	0.734
14.0448	0.738
14.0798	0.738
14.1148	0.737
14.1497	0.729
14.1847	0.726
14.2197	0.718
14.2546	0.711
14.2896	0.704
14.3246	0.696
14.3596	0.679
14.3945	0.669
14.4295	0.655
14.4645	0.638
14.4994	0.625
14.5344	0.617
14.5694	0.602
14.6043	0.603
14.6393	0.602
14.6743	0.599
14.7093	0.606
14.7442	0.605
14.7792	0.596
14.8142	0.594
14.8491	0.592
14.8841	0.59
14.9191	0.587
14.9541	0.589
14.989	0.591
