Infrared Spectrum: 1-METHYL-4-ISOPROPYL BENZENE
Formula: C10 H14
CAS: 99-87-6
State: LIQUID
Class: COBLENTZ
Instrument: PERKIN-ELMER
Sampling: TRANSMISSION
Path length: 0.0024 CM
Resolution: 4
Origin: STANDARD OIL OF OHIO
1/CM	TRANSMITTANCE
614.994	0.544
623.44	0.547
631.886	0.55
640.332	0.561
648.778	0.5938
657.224	0.6218
665.67	0.6468
674.116	0.6871
682.562	0.7029
691.008	0.7197
699.454	0.7495
707.899	0.762
716.345	0.7342
724.791	0.4048
733.237	0.7685
741.683	0.8195
750.129	0.8298
758.575	0.833
767.021	0.833
775.467	0.8282
783.913	0.8203
792.359	0.8015
800.805	0.7018
809.251	0.5409
817.697	0.0963
826.143	0.1386
834.589	0.6154
843.035	0.7203
851.481	0.8128
859.927	0.8417
868.373	0.852
876.819	0.857
885.264	0.8542
893.71	0.8165
902.156	0.8428
910.602	0.8504
919.048	0.8251
927.494	0.8085
935.94	0.8226
944.386	0.7986
952.832	0.835
961.278	0.828
969.724	0.8368
978.17	0.847
986.616	0.8425
995.062	0.842
1003.51	0.842
1011.95	0.8285
1020.4	0.7253
1028.85	0.5638
1037.29	0.705
1045.74	0.6223
1054.18	0.535
1062.63	0.301
1071.08	0.6511
1079.52	0.7772
1087.97	0.789
1096.41	0.7507
1104.86	0.5939
1113.31	0.5307
1121.75	0.6446
1130.2	0.7403
1138.64	0.774
1147.09	0.7679
1155.53	0.834
1163.98	0.85
1172.43	0.845
1180.87	0.8281
1189.32	0.75
1197.76	0.8218
1206.21	0.7902
1214.66	0.7513
1223.1	0.8233
1231.55	0.844
1239.99	0.8283
1248.44	0.8337
1256.89	0.852
1265.33	0.8392
1273.78	0.793
1282.22	0.681
1290.67	0.8021
1299.12	0.755
1307.56	0.6263
1316.01	0.7634
1324.45	0.7824
1332.9	0.7287
1341.35	0.664
1349.79	0.664
1358.24	0.6215
1366.68	0.4543
1375.13	0.572
1383.58	0.3618
1392.02	0.6241
1400.47	0.6682
1408.91	0.5992
1417.36	0.5289
1425.81	0.5277
1434.25	0.5473
1442.7	0.4822
1451.14	0.3633
1459.59	0.2828
1468.04	0.166
1476.48	0.3913
1484.93	0.5801
1493.37	0.6777
1501.82	0.6758
1510.26	0.5494
1518.71	0.1803
1527.16	0.4313
1535.6	0.7376
1544.05	0.7912
1552.49	0.857
1560.94	0.8719
1569.39	0.879
1577.83	0.8729
1586.28	0.85
1594.72	0.892
1603.17	0.896
1611.62	0.8887
1620.06	0.8883
1628.51	0.8874
1636.95	0.8761
1645.4	0.8413
1653.85	0.7781
1662.29	0.8663
1670.74	0.895
1679.18	0.916
1687.63	0.9186
1696.08	0.92
1704.52	0.9195
1712.97	0.918
1721.41	0.918
1729.86	0.916
1738.31	0.914
1746.75	0.908
1755.2	0.9
1763.64	0.9046
1772.09	0.911
1780.54	0.9096
1788.98	0.8865
1797.43	0.8434
1805.87	0.904
1814.32	0.932
1822.77	0.932
1831.21	0.932
1839.66	0.93
1848.1	0.928
1856.55	0.9197
1864.99	0.915
1873.44	0.9094
1881.89	0.8907
1890.33	0.8606
1898.78	0.7665
1907.22	0.7419
1915.67	0.8877
1924.12	0.9151
1932.56	0.9252
1941.01	0.935
1949.45	0.935
1957.9	0.932
1966.35	0.93
1974.79	0.935
1983.24	0.935
1991.68	0.935
2000.13	0.935
2008.58	0.94
2017.02	0.942
2025.47	0.942
2033.91	0.942
2042.36	0.944
2050.81	0.944
2059.25	0.944
2067.7	0.9418
2076.14	0.94
2084.59	0.944
2093.04	0.945
2101.48	0.945
2109.93	0.944
2118.37	0.944
2126.82	0.944
2135.27	0.944
2143.71	0.944
2152.16	0.944
2160.6	0.942
2169.05	0.942
2177.5	0.94
2185.94	0.938
2194.39	0.94
2202.83	0.94
2211.28	0.94
2219.72	0.94
2228.17	0.9379
2236.62	0.9368
2245.06	0.9349
2253.51	0.927
2261.95	0.9271
2270.4	0.928
2278.85	0.925
2287.29	0.9248
2295.74	0.922
2304.18	0.923
2312.63	0.928
2321.08	0.928
2329.52	0.93
2337.97	0.932
2346.41	0.932
2354.86	0.9298
2363.31	0.928
2371.75	0.927
2380.2	0.927
2388.64	0.925
2397.09	0.925
2405.54	0.925
2413.98	0.925
2422.43	0.925
2430.87	0.927
2439.32	0.925
2447.77	0.9231
2456.21	0.9229
2464.66	0.9219
2473.1	0.922
2481.55	0.9219
2490	0.922
2498.44	0.925
2506.89	0.9229
2515.33	0.92
2523.78	0.9202
2532.23	0.922
2540.67	0.92
2549.12	0.916
2557.56	0.9159
2566.01	0.913
2574.45	0.9109
2582.9	0.9
2591.35	0.8838
2599.79	0.8771
2608.24	0.8864
2616.68	0.9015
2625.13	0.913
2633.58	0.911
2642.02	0.911
2650.47	0.911
2658.91	0.9098
2667.36	0.908
2675.81	0.908
2684.25	0.906
2692.7	0.906
2701.14	0.9049
2709.59	0.8939
2718.04	0.8685
2726.48	0.8499
2734.93	0.8278
2743.37	0.8308
2751.82	0.869
2760.27	0.869
2768.71	0.8771
2777.16	0.877
2785.6	0.8739
2794.05	0.8607
2802.5	0.8376
2810.94	0.8047
2819.39	0.7999
2827.83	0.7784
2836.28	0.7496
2844.73	0.7039
2853.17	0.6078
2861.62	0.4513
2870.06	0.2641
2878.51	0.0995
2886.96	0.1333
2895.4	0.186
2903.85	0.186
2912.29	0.1808
2920.74	0.1565
2929.18	0.0777
2937.63	0.0591
2946.08	0.0812
2954.52	0.0784
2962.97	0.0128
2971.41	0.011
2979.86	0.0163
2988.31	0.1345
2996.75	0.2784
3005.2	0.3156
3013.64	0.2619
3022.09	0.2669
3030.54	0.2274
3038.98	0.3419
3047.43	0.428
3055.87	0.4009
3064.32	0.4265
3072.77	0.5897
3081.21	0.7225
3089.66	0.7299
3098.1	0.688
3106.55	0.679
3115	0.8306
3123.44	0.8489
3131.89	0.8398
3140.33	0.8404
3148.78	0.8592
3157.23	0.8741
3165.67	0.877
3174.12	0.879
3182.56	0.879
3191.01	0.881
3199.46	0.883
3207.9	0.884
3216.35	0.8862
3224.79	0.8911
3233.24	0.8962
3241.69	0.9
3250.13	0.901
3258.58	0.903
3267.02	0.9051
3275.47	0.906
3283.91	0.908
3292.36	0.908
3300.81	0.908
3309.25	0.908
3317.7	0.908
3326.14	0.908
3334.59	0.908
3343.04	0.906
3351.48	0.906
3359.93	0.906
3368.37	0.906
3376.82	0.906
3385.27	0.905
3393.71	0.9029
3402.16	0.901
3410.6	0.901
3419.05	0.901
3427.5	0.901
3435.94	0.901
3444.39	0.901
3452.83	0.9009
3461.28	0.9
3469.73	0.9
3478.17	0.898
3486.62	0.898
3495.06	0.898
3503.51	0.898
3511.96	0.898
3520.4	0.9
3528.85	0.9
3537.29	0.901
3545.74	0.901
3554.19	0.901
3562.63	0.901
3571.08	0.901
3579.52	0.9009
3587.97	0.9
3596.42	0.901
3604.86	0.901
3613.31	0.9
3621.75	0.9
3630.2	0.9
3638.64	0.9
3647.09	0.9
3655.54	0.8958
3663.98	0.891
3672.43	0.898
3680.87	0.9
3689.32	0.9
3697.77	0.9
3706.21	0.9
3714.66	0.9
3723.1	0.9
3731.55	0.9
3740	0.9
3748.44	0.898
3756.89	0.896
3765.33	0.896
3773.78	0.8958
3782.23	0.894
3790.67	0.893
3799.12	0.891
3807.56	0.8889
3816.01	0.888
3824.46	0.888
3832.9	0.886
3841.35	0.886
3849.79	0.886
3858.24	0.886
3866.69	0.886
3875.13	0.886
3883.58	0.886
3892.02	0.886
3900.47	0.886
3908.92	0.884
3917.36	0.884
3925.81	0.8842
3934.25	0.884
