Infrared Spectrum: BENZENE, 1-METHYL-4(1-METHYLETHYL)-
Formula: C10 H14
CAS: 99-87-6
State: SOLUTION (10% IN CCl4 FOR 3800-1300, 10% IN CS2 FOR 1300-650, AND 10% CCl4 FPR 650-230 CM^-^1) VERSUS SOLVENT
Class: COBLENTZ III
Instrument: PERKIN-ELMER 521 (GRATING)
Instrument parameters: FILTERS AT 3150, 2500, 2000, 1150, 700, 410; GRATING CHANGES AT 2000, 630 CM^-^1
Sampling: TRANSMISSION
Path length: 0.011, 0.010, AND 0.010 CM (CsBr CELL)
Resolution: 4
Origin: DOW CORNING CORP.
1/CM	TRANSMITTANCE
216.608	0.891
225.551	0.874
234.493	0.863
243.436	0.856
252.378	0.853
261.321	0.847
270.263	0.846
279.206	0.844
288.148	0.844
297.091	0.844
306.033	0.847
314.976	0.844
323.919	0.846
332.861	0.842
341.804	0.837
350.746	0.83
359.689	0.826
368.631	0.823
377.574	0.811
386.516	0.797
395.459	0.805
404.401	0.816
413.344	0.821
422.286	0.818
431.229	0.812
440.172	0.812
449.114	0.812
458.057	0.809
466.999	0.802
475.942	0.777
484.884	0.798
493.827	0.788
502.769	0.779
511.712	0.774
520.654	0.755
529.597	0.6851
538.54	0.477
547.482	0.4867
556.425	0.7699
565.367	0.825
574.31	0.84
583.252	0.844
592.195	0.861
601.137	0.861
610.08	0.865
619.022	0.872
627.965	0.896
636.907	0.889
645.85	0.889
654.793	0.907
663.735	0.914
672.678	0.926
681.62	0.921
690.563	0.921
699.505	0.924
708.448	0.916
717.39	0.8629
726.333	0.8158
735.275	0.935
744.218	0.935
753.161	0.931
762.103	0.926
771.046	0.921
779.988	0.912
788.931	0.889
797.873	0.83
806.816	0.699
815.758	0.0226
824.701	0.6128
833.643	0.807
842.586	0.884
851.529	0.9
860.471	0.879
869.414	0.898
878.356	0.891
887.299	0.84
896.241	0.868
905.184	0.865
914.126	0.846
923.069	0.842
932.011	0.84
940.954	0.839
949.896	0.828
958.839	0.847
967.782	0.865
976.724	0.865
985.667	0.86
994.609	0.856
1003.55	0.837
1012.49	0.781
1021.44	0.472
1030.38	0.713
1039.32	0.634
1048.26	0.603
1057.21	0.409
1066.15	0.65
1075.09	0.68
1084.03	0.688
1092.98	0.66
1101.92	0.608
1110.86	0.631
1119.8	0.716
1128.75	0.756
1137.69	0.76
1146.63	0.774
1155.57	0.777
1164.52	0.77
1173.46	0.769
1182.4	0.765
1191.35	0.802
1200.29	0.798
1209.23	0.797
1218.17	0.837
1227.12	0.846
1236.06	0.851
1245	0.853
1253.94	0.842
1262.89	0.811
1271.83	0.802
1280.77	0.8
1289.71	0.835
1298.66	0.7441
1307.6	0.755
1316.54	0.781
1325.48	0.75
1334.43	0.718
1343.37	0.711
1352.31	0.694
1361.25	0.4521
1370.2	0.657
1379.14	0.417
1388.08	0.6708
1397.02	0.729
1405.97	0.68
1414.91	0.636
1423.85	0.634
1432.79	0.592
1441.74	0.512
1450.68	0.412
1459.62	0.325
1468.56	0.4002
1477.51	0.638
1486.45	0.704
1495.39	0.69
1504.33	0.641
1513.28	0.216
1522.22	0.6501
1531.16	0.777
1540.1	0.825
1549.05	0.835
1557.99	0.835
1566.93	0.826
1575.87	0.819
1584.82	0.826
1593.76	0.821
1602.7	0.804
1611.64	0.807
1620.59	0.816
1629.53	0.807
1638.47	0.781
1647.41	0.722
1656.36	0.795
1665.3	0.795
1674.24	0.779
1683.18	0.756
1692.13	0.708
1701.07	0.779
1710.01	0.781
1718.96	0.79
1727.9	0.797
1736.84	0.798
1745.78	0.812
1754.73	0.828
1763.67	0.835
1772.61	0.835
1781.55	0.825
1790.5	0.788
1799.44	0.851
1808.38	0.856
1817.32	0.858
1826.27	0.858
1835.21	0.856
1844.15	0.856
1853.09	0.854
1862.04	0.853
1870.98	0.842
1879.92	0.825
1888.86	0.772
1897.81	0.756
1906.75	0.846
1915.69	0.856
1924.63	0.86
1933.58	0.863
1942.52	0.865
1951.46	0.863
1960.4	0.865
1969.35	0.87
1978.29	0.868
1987.23	0.874
1996.17	0.881
2005.12	0.889
2014.06	0.891
2023	0.893
2031.94	0.893
2040.89	0.893
2049.83	0.893
2058.77	0.893
2067.71	0.893
2076.66	0.893
2085.6	0.8921
2094.54	0.891
2103.48	0.891
2112.43	0.891
2121.37	0.889
2130.31	0.889
2139.25	0.888
2148.2	0.888
2157.14	0.888
2166.08	0.888
2175.02	0.8871
2183.97	0.886
2192.91	0.886
2201.85	0.888
2210.79	0.886
2219.74	0.886
2228.68	0.886
2237.62	0.884
2246.57	0.884
2255.51	0.884
2264.45	0.8848
2273.39	0.886
2282.34	0.888
2291.28	0.8889
2300.22	0.889
2309.16	0.889
2318.11	0.891
2327.05	0.893
2335.99	0.893
2344.93	0.893
2353.88	0.891
2362.82	0.889
2371.76	0.886
2380.7	0.8822
2389.65	0.882
2398.59	0.8811
2407.53	0.881
2416.47	0.882
2425.42	0.881
2434.36	0.881
2443.3	0.882
2452.24	0.879
2461.19	0.879
2470.13	0.879
2479.07	0.874
2488.01	0.8767
2496.96	0.877
2505.9	0.874
2514.84	0.874
2523.78	0.874
2532.73	0.874
2541.67	0.8723
2550.61	0.87
2559.55	0.8672
2568.5	0.8636
2577.44	0.8563
2586.38	0.8523
2595.32	0.8527
2604.27	0.8643
2613.21	0.868
2622.15	0.8677
2631.09	0.867
2640.04	0.867
2648.98	0.867
2657.92	0.865
2666.86	0.863
2675.81	0.863
2684.75	0.861
2693.69	0.86
2702.63	0.8494
2711.58	0.8448
2720.52	0.8338
2729.46	0.8323
2738.4	0.8445
2747.35	0.851
2756.29	0.851
2765.23	0.853
2774.18	0.851
2783.12	0.8401
2792.06	0.8234
2801	0.7992
2809.95	0.7915
2818.89	0.7766
2827.83	0.7333
2836.77	0.7055
2845.72	0.6261
2854.66	0.5293
2863.6	0.3218
2872.54	0.215
2881.49	0.2938
2890.43	0.3183
2899.37	0.3047
2908.31	0.2833
2917.26	0.2231
2926.2	0.1476
2935.14	0.1807
2944.08	0.2105
2953.03	0.1126
2961.97	0.0255
2970.91	0.0572
2979.85	0.2278
2988.8	0.4122
2997.74	0.4415
3006.68	0.4218
3015.62	0.4114
3024.57	0.4267
3033.51	0.5439
3042.45	0.5582
3051.39	0.5504
3060.34	0.6118
3069.28	0.7321
3078.22	0.7486
3087.16	0.7195
3096.11	0.7314
3105.05	0.8209
3113.99	0.835
3122.93	0.8328
3131.88	0.8344
3140.82	0.8424
3149.76	0.846
3158.7	0.8462
3167.65	0.8483
3176.59	0.851
3185.53	0.849
3194.47	0.8493
3203.42	0.853
3212.36	0.854
3221.3	0.854
3230.24	0.856
3239.19	0.8573
3248.13	0.8557
3257.07	0.858
3266.02	0.856
3274.96	0.856
3283.9	0.8557
3292.84	0.854
3301.79	0.8539
3310.73	0.8517
3319.67	0.851
3328.61	0.851
3337.56	0.8507
3346.5	0.849
3355.44	0.8493
3364.38	0.849
3373.33	0.851
3382.27	0.851
3391.21	0.851
3400.15	0.853
3409.1	0.8531
3418.04	0.854
3426.98	0.854
3435.92	0.856
3444.87	0.854
3453.81	0.854
3462.75	0.858
3471.69	0.86
3480.64	0.86
3489.58	0.86
3498.52	0.8612
3507.46	0.8676
3516.41	0.868
3525.35	0.87
3534.29	0.87
3543.23	0.8709
3552.18	0.872
3561.12	0.874
3570.06	0.874
3579	0.874
3587.95	0.872
3596.89	0.8648
3605.83	0.867
3614.77	0.8746
3623.72	0.882
3632.66	0.8867
3641.6	0.893
3650.54	0.893
3659.49	0.8952
3668.43	0.9025
3677.37	0.903
3686.31	0.903
3695.26	0.9031
3704.2	0.905
3713.14	0.905
3722.08	0.906
3731.03	0.903
3739.97	0.904
3748.91	0.907
3757.85	0.908
3766.8	0.907
3775.74	0.907
3784.68	0.907
