Infrared Spectrum: TRIBUTYLSILANE
Formula: C12 H28 Si
CAS: 998-41-4
State: SOLID (BETWEEN SALTS)
Class: COBLENTZ
Instrument: BECKMAN IR-4 (HYBRID PRISM-GRATING)
Sampling: TRANSMISSION
Resolution: 4
Origin: PENINSULAR CHEMRESEARCH, INC., GAINESVILLE, FLORIDA
MICROMETERS	TRANSMITTANCE
2.03	0.969
2.065	0.966
2.1	0.967
2.135	0.968
2.17	0.967
2.205	0.956
2.24	0.939
2.275	0.933
2.31	0.939
2.345	0.946
2.38	0.941
2.415	0.948
2.45	0.953
2.485	0.947
2.52	0.943
2.555	0.941
2.59	0.937
2.625	0.929
2.66	0.943
2.695	0.942
2.73	0.949
2.765	0.953
2.8	0.949
2.835	0.948
2.87	0.948
2.905	0.957
2.94	0.949
2.975	0.944
3.01	0.948
3.045	0.937
3.08	0.931
3.115	0.922
3.15	0.919
3.185	0.912
3.22	0.902
3.255	0.869
3.29	0.78
3.325	0.511
3.36	0.125
3.395	0.116
3.43	0.2
3.465	0.248
3.5	0.591
3.535	0.774
3.57	0.859
3.605	0.887
3.64	0.894
3.675	0.913
3.71	0.907
3.745	0.903
3.78	0.911
3.815	0.914
3.85	0.932
3.885	0.931
3.92	0.938
3.955	0.934
3.99	0.933
4.025	0.933
4.06	0.934
4.095	0.938
4.13	0.933
4.165	0.913
4.2	0.921
4.235	0.929
4.27	0.932
4.305	0.929
4.34	0.932
4.375	0.918
4.41	0.911
4.445	0.918
4.48	0.919
4.515	0.911
4.55	0.899
4.585	0.89
4.62	0.843
4.655	0.75
4.69	0.52
4.725	0.27
4.76	0.3
4.795	0.709
4.83	0.849
4.865	0.89
4.9	0.906
4.935	0.908
4.97	0.914
5.005	0.907
5.04	0.911
5.075	0.911
5.11	0.909
5.145	0.911
5.18	0.909
5.215	0.909
5.25	0.911
5.285	0.911
5.32	0.912
5.355	0.909
5.39	0.907
5.425	0.907
5.46	0.909
5.495	0.908
5.53	0.902
5.565	0.908
5.6	0.903
5.635	0.908
5.67	0.901
5.705	0.902
5.74	0.903
5.775	0.897
5.81	0.897
5.845	0.882
5.88	0.884
5.915	0.882
5.95	0.888
5.985	0.889
6.02	0.88
6.055	0.892
6.09	0.887
6.125	0.882
6.16	0.892
6.195	0.892
6.23	0.89
6.265	0.893
6.3	0.885
6.335	0.89
6.37	0.873
6.405	0.87
6.44	0.867
6.475	0.857
6.51	0.852
6.545	0.849
6.58	0.843
6.615	0.847
6.65	0.842
6.685	0.82
6.72	0.793
6.755	0.592
6.79	0.469
6.825	0.482
6.86	0.582
6.895	0.659
6.93	0.75
6.965	0.783
7	0.74
7.035	0.624
7.07	0.585
7.105	0.711
7.14	0.781
7.175	0.78
7.21	0.679
7.245	0.624
7.28	0.79
7.315	0.813
7.35	0.799
7.385	0.783
7.42	0.695
7.455	0.789
7.49	0.833
7.525	0.848
7.56	0.847
7.595	0.839
7.63	0.81
7.665	0.711
7.7	0.679
7.735	0.789
7.77	0.827
7.805	0.799
7.84	0.775
7.875	0.802
7.91	0.837
7.945	0.855
7.98	0.852
8.015	0.857
8.05	0.853
8.085	0.853
8.12	0.847
8.155	0.843
8.19	0.822
8.225	0.781
8.26	0.714
8.295	0.62
8.33	0.542
8.365	0.517
8.4	0.56
8.435	0.624
8.47	0.611
8.505	0.654
8.54	0.75
8.575	0.8
8.61	0.823
8.645	0.832
8.68	0.832
8.715	0.833
8.75	0.839
8.785	0.84
8.82	0.839
8.855	0.839
8.89	0.842
8.925	0.833
8.96	0.83
8.995	0.823
9.03	0.813
9.065	0.79
9.1	0.773
9.135	0.72
9.17	0.63
9.205	0.469
9.24	0.421
9.275	0.473
9.31	0.57
9.345	0.66
9.38	0.69
9.415	0.697
9.45	0.709
9.485	0.699
9.52	0.699
9.555	0.72
9.59	0.711
9.625	0.681
9.66	0.63
9.695	0.587
9.73	0.592
9.765	0.631
9.8	0.679
9.835	0.709
9.87	0.731
9.905	0.729
9.94	0.68
9.975	0.624
10.01	0.646
10.045	0.69
10.08	0.735
10.115	0.771
10.15	0.802
10.185	0.803
10.22	0.802
10.255	0.785
10.29	0.763
10.325	0.709
10.36	0.591
10.395	0.568
10.43	0.67
10.465	0.749
10.5	0.781
10.535	0.802
10.57	0.814
10.605	0.813
10.64	0.813
10.675	0.813
10.71	0.802
10.745	0.794
10.78	0.784
10.815	0.779
10.85	0.763
10.885	0.743
10.92	0.714
10.955	0.69
10.99	0.632
11.025	0.546
11.06	0.451
11.095	0.303
11.13	0.176
11.165	0.111
11.2	0.116
11.235	0.151
11.27	0.22
11.305	0.309
11.34	0.38
11.375	0.422
11.41	0.449
11.445	0.472
11.48	0.497
11.515	0.512
11.55	0.518
11.585	0.541
11.62	0.58
11.655	0.598
11.69	0.619
11.725	0.634
11.76	0.65
11.795	0.659
11.83	0.657
11.865	0.649
11.9	0.629
11.935	0.6
11.97	0.55
12.005	0.494
12.04	0.443
12.075	0.369
12.11	0.32
12.145	0.269
12.18	0.243
12.215	0.226
12.25	0.214
12.285	0.208
12.32	0.204
12.355	0.204
12.39	0.214
12.425	0.234
12.46	0.273
12.495	0.314
12.53	0.355
12.565	0.411
12.6	0.466
12.635	0.516
12.67	0.561
12.705	0.591
12.74	0.602
12.775	0.61
12.81	0.622
12.845	0.622
12.88	0.625
12.915	0.622
12.95	0.619
12.985	0.624
13.02	0.629
13.055	0.625
13.09	0.619
13.125	0.609
13.16	0.581
13.195	0.566
13.23	0.548
13.265	0.541
13.3	0.538
13.335	0.537
13.37	0.538
13.405	0.532
13.44	0.527
13.475	0.511
13.51	0.5
13.545	0.493
13.58	0.482
13.615	0.477
13.65	0.473
13.685	0.469
13.72	0.467
13.755	0.466
13.79	0.463
13.825	0.462
13.86	0.462
13.895	0.463
13.93	0.467
13.965	0.473
14	0.477
14.035	0.479
14.07	0.489
14.105	0.502
14.14	0.515
14.175	0.53
14.21	0.552
14.245	0.565
14.28	0.58
14.315	0.591
14.35	0.601
14.385	0.602
14.42	0.605
14.455	0.61
14.49	0.607
14.525	0.601
14.56	0.604
14.595	0.609
14.63	0.607
14.665	0.601
14.7	0.596
14.735	0.593
14.77	0.593
14.805	0.588
14.84	0.583
14.875	0.576
14.91	0.565
14.945	0.55
14.98	0.536
15.015	0.54
