Infrared Spectrum: TRI-N-PROPYL SILANE
Formula: C9 H22 Si
CAS: 998-29-8
State: LIQUID
Class: COBLENTZ
Instrument: Not specified, most likely a prism, grating, or hybrid spectrometer.
Sampling: TRANSMISSION
Path length: 0.001 CM
Resolution: 4
Origin: MATERIALS LAB, WPAFB, OHIO
MICROMETERS	TRANSMITTANCE
1.978	0.938
2.01431	0.938
2.05063	0.937
2.08694	0.938
2.12325	0.94
2.15956	0.94
2.19588	0.942
2.23219	0.951
2.2685	0.949
2.30481	0.935
2.34113	0.902
2.37744	0.901
2.41375	0.91
2.45006	0.913
2.48638	0.915
2.52269	0.94
2.559	0.942
2.59531	0.94
2.63163	0.953
2.66794	0.956
2.70425	0.962
2.74056	0.964
2.77688	0.964
2.81319	0.964
2.8495	0.96
2.88581	0.958
2.92213	0.958
2.95844	0.96
2.99475	0.962
3.03106	0.96
3.06738	0.955
3.10369	0.953
3.14	0.953
3.17631	0.938
3.21263	0.935
3.24894	0.929
3.28525	0.926
3.32156	0.884
3.35788	0.73
3.39419	0.345
3.4305	0.053
3.46682	0.05
3.50313	0.048
3.53944	0.152
3.57575	0.658
3.61207	0.672
3.64838	0.884
3.68469	0.893
3.721	0.949
3.75732	0.926
3.79363	0.929
3.82994	0.938
3.86625	0.942
3.90257	0.971
3.93888	0.989
3.97519	0.992
4.0115	0.991
4.04782	0.991
4.08413	0.992
4.12044	0.992
4.15675	0.991
4.19307	0.992
4.22938	0.992
4.26569	0.994
4.302	0.996
4.33832	1.001
4.37463	1.005
4.41094	1.005
4.44725	1
4.48357	0.992
4.51988	0.991
4.55619	0.976
4.5925	0.956
4.62882	0.915
4.66513	0.841
4.70144	0.6
4.73775	0.219
4.77407	0.046
4.81038	0.255
4.84669	0.658
4.88301	0.85
4.91932	0.942
4.95563	0.953
4.99194	0.985
5.02826	0.992
5.06457	0.992
5.10088	0.992
5.13719	0.992
5.17351	0.994
5.20982	0.996
5.24613	0.996
5.28244	0.996
5.31876	0.994
5.35507	0.994
5.39138	0.998
5.42769	1
5.46401	1
5.50032	1.001
5.53663	1.003
5.57294	1.007
5.60926	1.007
5.64557	1.007
5.68188	1.007
5.71819	1.005
5.75451	1.001
5.79082	0.991
5.82713	0.991
5.86344	0.982
5.89976	0.98
5.93607	0.974
5.97238	0.973
6.00869	0.978
6.04501	0.978
6.08132	0.98
6.11763	0.98
6.15394	0.978
6.19026	0.976
6.22657	0.976
6.26288	0.98
6.2992	0.978
6.33551	0.978
6.37182	0.978
6.40813	0.978
6.44445	0.965
6.48076	0.965
6.51707	0.958
6.55338	0.953
6.5897	0.931
6.62601	0.926
6.66232	0.899
6.69863	0.874
6.73495	0.791
6.77126	0.703
6.80757	0.37
6.84388	0.178
6.8802	0.242
6.91651	0.516
6.95282	0.658
6.98913	0.699
7.02545	0.67
7.06176	0.521
7.09807	0.372
7.13438	0.535
7.1707	0.679
7.20701	0.714
7.24332	0.523
7.27963	0.386
7.31595	0.748
7.35226	0.834
7.38857	0.852
7.42488	0.796
7.4612	0.57
7.49751	0.262
7.53382	0.625
7.57013	0.803
7.60645	0.845
7.64276	0.89
7.67907	0.888
7.71539	0.888
7.7517	0.895
7.78801	0.913
7.82432	0.915
7.86064	0.899
7.89695	0.879
7.93326	0.881
7.96957	0.906
8.00589	0.904
8.0422	0.893
8.07851	0.85
8.11482	0.776
8.15114	0.606
8.18745	0.381
8.22376	0.311
8.26007	0.383
8.29639	0.264
8.3327	0.323
8.36901	0.501
8.40532	0.697
8.44164	0.8
8.47795	0.836
8.51426	0.852
8.55057	0.848
8.58689	0.852
8.6232	0.85
8.65951	0.85
8.69582	0.836
8.73214	0.834
8.76845	0.814
8.80476	0.802
8.84107	0.796
8.87739	0.782
8.9137	0.773
8.95001	0.766
8.98633	0.76
9.02264	0.753
9.05895	0.733
9.09526	0.706
9.13158	0.667
9.16789	0.595
9.2042	0.514
9.24051	0.354
9.27683	0.104
9.31314	0.075
9.34945	0.064
9.38576	0.07
9.42208	0.143
9.45839	0.284
9.4947	0.419
9.53101	0.453
9.56733	0.498
9.60364	0.453
9.63995	0.402
9.67626	0.413
9.71258	0.46
9.74889	0.46
9.7852	0.392
9.82151	0.187
9.85783	0.102
9.89414	0.093
9.93045	0.116
9.96676	0.181
10.0031	0.338
10.0394	0.496
10.0757	0.543
10.112	0.631
10.1483	0.712
10.1846	0.775
10.221	0.823
10.2573	0.839
10.2936	0.852
10.3299	0.857
10.3662	0.87
10.4025	0.877
10.4388	0.879
10.4751	0.883
10.5115	0.879
10.5478	0.881
10.5841	0.881
10.6204	0.883
10.6567	0.884
10.693	0.884
10.7293	0.883
10.7656	0.879
10.802	0.872
10.8383	0.865
10.8746	0.85
10.9109	0.839
10.9472	0.821
10.9835	0.787
11.0198	0.746
11.0561	0.694
11.0925	0.559
11.1288	0.381
11.1651	0.226
11.2014	0.224
11.2377	0.332
11.274	0.392
11.3103	0.374
11.3466	0.359
11.383	0.41
11.4193	0.411
11.4556	0.393
11.4919	0.345
11.5282	0.242
11.5645	0.133
11.6008	0.066
11.6371	0.046
11.6735	0.037
11.7098	0.035
11.7461	0.032
11.7824	0.03
11.8187	0.03
11.855	0.032
11.8913	0.034
11.9276	0.034
11.964	0.037
12.0003	0.05
12.0366	0.089
12.0729	0.131
12.1092	0.181
12.1455	0.232
12.1818	0.267
12.2181	0.294
12.2545	0.309
12.2908	0.309
12.3271	0.303
12.3634	0.291
12.3997	0.28
12.436	0.276
12.4723	0.276
12.5086	0.266
12.545	0.253
12.5813	0.253
12.6176	0.251
12.6539	0.251
12.6902	0.253
12.7265	0.262
12.7628	0.267
12.7991	0.269
12.8355	0.271
12.8718	0.267
12.9081	0.255
12.9444	0.237
12.9807	0.208
13.017	0.199
13.0533	0.196
13.0896	0.197
13.126	0.206
13.1623	0.266
13.1986	0.305
13.2349	0.327
13.2712	0.332
13.3075	0.329
13.3438	0.32
13.3801	0.291
13.4165	0.264
13.4528	0.251
13.4891	0.217
13.5254	0.214
13.5617	0.212
13.598	0.212
13.6343	0.212
13.6706	0.21
13.707	0.208
13.7433	0.203
13.7796	0.203
13.8159	0.219
13.8522	0.224
13.8885	0.224
13.9248	0.228
13.9611	0.23
13.9975	0.23
14.0338	0.232
14.0701	0.246
14.1064	0.266
14.1427	0.303
14.179	0.332
14.2153	0.363
14.2516	0.384
14.288	0.419
14.3243	0.428
14.3606	0.46
14.3969	0.469
14.4332	0.483
14.4695	0.485
14.5058	0.496
14.5421	0.5
14.5785	0.501
14.6148	0.501
14.6511	0.526
14.6874	0.528
14.7237	0.534
14.76	0.552
14.7963	0.561
14.8326	0.564
14.869	0.566
14.9053	0.577
14.9416	0.588
14.9779	0.616
15.0142	0.622
15.0505	0.624
15.0868	0.624
15.1231	0.624
15.1595	0.627
15.1958	0.629
15.2321	0.629
15.2684	0.631
15.3047	0.631
15.341	0.631
15.3773	0.633
15.4136	0.633
15.45	0.634
15.4863	0.634
15.5226	0.638
15.5589	0.652
15.5952	0.658
15.6315	0.66
15.6678	0.667
15.7041	0.667
15.7405	0.667
15.7768	0.669
15.8131	0.67
15.8494	0.672
15.8857	0.674
15.922	0.674
15.9583	0.683
