Infrared Spectrum: P-HYDROXY ACETOPHENONE
Formula: C8 H8 O2
CAS: 99-93-4
State: SOLID (NUJOL MULL)
Class: COBLENTZ
Instrument: Not specified, most likely a prism, grating, or hybrid spectrometer.
Sampling: TRANSMISSION
Resolution: 4
Origin: BATTELLE MEMORIAL INSTITUTE (R. JAKOBSEN)
1/CM	TRANSMITTANCE
321.353	0.621
322.281	0.633
323.21	0.692
324.138	0.683
325.067	0.633
325.995	0.659
326.923	0.686
327.852	0.7
328.78	0.67
329.708	0.682
330.637	0.703
331.565	0.699
332.494	0.686
333.422	0.689
334.35	0.676
335.279	0.687
336.207	0.682
337.135	0.67
338.064	0.672
338.992	0.66
339.921	0.671
340.849	0.674
341.777	0.666
342.706	0.664
343.634	0.658
344.563	0.65
345.491	0.647
346.419	0.656
347.348	0.627
348.276	0.656
349.204	0.654
350.133	0.649
351.061	0.637
351.99	0.633
352.918	0.629
353.846	0.633
354.775	0.614
355.703	0.592
356.632	0.577
357.56	0.572
358.488	0.571
359.417	0.569
360.345	0.569
361.273	0.571
362.202	0.573
363.13	0.583
364.059	0.58
364.987	0.571
365.915	0.572
366.844	0.576
367.772	0.585
368.7	0.591
369.629	0.593
370.557	0.594
371.486	0.601
372.414	0.606
373.342	0.613
374.271	0.617
375.199	0.617
376.128	0.624
377.056	0.626
377.984	0.624
378.913	0.631
379.841	0.626
380.769	0.621
381.698	0.626
382.626	0.626
383.555	0.622
384.483	0.612
385.411	0.62
386.34	0.617
387.268	0.62
388.197	0.621
389.125	0.618
390.053	0.617
390.982	0.61
391.91	0.61
392.838	0.606
393.767	0.594
394.695	0.592
395.624	0.596
396.552	0.589
397.48	0.58
398.409	0.58
399.337	0.589
400.265	0.594
401.194	0.597
402.122	0.585
403.051	0.571
403.979	0.572
404.907	0.562
405.836	0.556
406.764	0.55
407.693	0.534
408.621	0.535
409.549	0.53
410.478	0.517
411.406	0.503
412.334	0.494
413.263	0.489
414.191	0.498
415.12	0.5
416.048	0.5
416.976	0.493
417.905	0.492
418.833	0.496
419.761	0.493
420.69	0.493
421.618	0.494
422.547	0.492
423.475	0.494
424.403	0.48
425.332	0.461
426.26	0.435
427.189	0.41
428.117	0.373
429.045	0.352
429.974	0.34
430.902	0.331
431.83	0.316
432.759	0.307
433.687	0.292
434.616	0.306
435.544	0.307
436.472	0.302
437.401	0.298
438.329	0.287
439.258	0.275
440.186	0.27
441.114	0.269
442.043	0.267
442.971	0.291
443.899	0.333
444.828	0.369
445.756	0.401
446.685	0.432
447.613	0.459
448.541	0.481
449.47	0.496
450.398	0.5
451.326	0.502
452.255	0.5
453.183	0.509
454.112	0.511
455.04	0.511
455.968	0.521
456.897	0.513
457.825	0.517
458.754	0.522
459.682	0.532
460.61	0.532
461.539	0.532
462.467	0.521
463.395	0.518
464.324	0.522
465.252	0.515
466.181	0.511
467.109	0.505
468.037	0.492
468.966	0.482
469.894	0.482
470.823	0.49
471.751	0.484
472.679	0.465
473.608	0.443
474.536	0.431
475.464	0.416
476.393	0.399
477.321	0.36
478.25	0.325
479.178	0.295
480.106	0.263
481.035	0.245
481.963	0.222
482.891	0.189
483.82	0.17
484.748	0.171
485.677	0.184
486.605	0.213
487.533	0.241
488.462	0.259
489.39	0.269
490.319	0.273
491.247	0.282
492.175	0.291
493.104	0.291
494.032	0.278
494.96	0.261
495.889	0.238
496.817	0.199
497.746	0.154
498.674	0.125
499.602	0.11
500.531	0.105
501.459	0.106
502.387	0.116
503.316	0.145
504.244	0.191
505.173	0.238
506.101	0.284
507.029	0.323
507.958	0.361
508.886	0.377
509.815	0.386
510.743	0.399
511.671	0.412
512.6	0.428
513.528	0.43
514.456	0.431
515.385	0.431
516.313	0.428
517.242	0.42
518.17	0.426
519.098	0.428
520.027	0.423
520.955	0.422
521.884	0.42
522.812	0.419
523.74	0.416
524.669	0.411
525.597	0.397
526.525	0.401
527.454	0.406
528.382	0.407
529.311	0.407
530.239	0.399
531.167	0.393
532.096	0.383
533.024	0.383
533.952	0.373
534.881	0.368
535.809	0.365
536.738	0.354
537.666	0.349
538.594	0.348
539.523	0.346
540.451	0.348
541.38	0.345
542.308	0.34
543.236	0.331
544.165	0.325
545.093	0.317
546.021	0.313
546.95	0.303
547.878	0.288
548.807	0.273
549.735	0.262
550.663	0.258
551.592	0.258
552.52	0.249
553.449	0.232
554.377	0.225
555.305	0.22
556.234	0.212
557.162	0.188
558.09	0.168
559.019	0.159
559.947	0.151
560.876	0.147
561.804	0.133
562.732	0.11
563.661	0.093
564.589	0.079
565.517	0.063
566.446	0.05
567.374	0.042
568.303	0.034
569.231	0.032
570.159	0.03
571.088	0.027
572.016	0.027
572.945	0.031
573.873	0.031
574.801	0.031
575.73	0.038
576.658	0.039
577.586	0.04
578.515	0.046
579.443	0.048
580.372	0.051
581.3	0.052
582.228	0.059
583.157	0.068
584.085	0.072
585.013	0.071
585.942	0.068
586.87	0.06
587.799	0.062
588.727	0.059
589.655	0.064
590.584	0.067
591.512	0.075
592.441	0.092
593.369	0.11
594.297	0.142
595.226	0.175
596.154	0.204
597.082	0.248
598.011	0.273
598.939	0.299
599.868	0.312
600.796	0.319
601.724	0.34
602.653	0.35
603.581	0.366
604.51	0.372
605.438	0.39
606.366	0.401
607.295	0.408
608.223	0.41
609.151	0.407
610.08	0.405
611.008	0.406
611.937	0.408
612.865	0.419
613.793	0.408
614.722	0.419
615.65	0.419
616.578	0.415
617.507	0.408
618.435	0.391
619.364	0.391
620.292	0.398
621.22	0.399
622.149	0.402
623.077	0.403
624.006	0.39
624.934	0.387
625.862	0.39
626.791	0.382
627.719	0.369
628.647	0.36
629.576	0.35
630.504	0.336
631.433	0.325
632.361	0.306
633.289	0.279
634.218	0.263
635.146	0.253
636.074	0.25
637.003	0.261
637.931	0.273
638.86	0.303
639.788	0.325
640.716	0.339
641.645	0.345
642.573	0.348
643.502	0.341
644.43	0.336
645.358	0.333
646.287	0.335
647.215	0.325
648.143	0.321
649.072	0.321
650	0.32
650.929	0.311
651.857	0.308
652.785	0.31
653.714	0.308
654.642	0.299
655.571	0.299
656.499	0.3
657.427	0.291
658.356	0.287
659.284	0.283
660.212	0.282
661.141	0.284
662.069	0.281
662.998	0.267
663.926	0.27
664.854	0.269
665.783	0.265
666.711	0.254
667.639	0.257
668.568	0.255
