Infrared Spectrum: p-Nitrotoluene
Formula: C7 H7 N O2
CAS: 99-99-0
State: SOLUTION (10% CCl4 FOR 3800-1300, 10% CS2 FOR 1300-400)
Class: COBLENTZ III
Instrument: DOW KBr FOREPRISM-GRATING
Instrument parameters: BLAZED AT 3.5, 12.0, 20.0 AND CHANGED AT 5.0, 7.5, 14.9 MICRON
Sampling: TRANSMISSION
Path length: 0.010 CM, 0.010 CM
Resolution: 2
Origin: DOW CHEMICAL COMPANY
1/CM	TRANSMITTANCE
3794	0.9129
3785	0.9212
3776	0.9271
3767	0.9268
3758	0.9227
3749	0.9221
3740	0.9237
3731	0.9267
3722	0.927
3713	0.927
3704	0.9276
3695	0.9251
3686	0.9217
3677	0.9195
3668	0.9199
3659	0.921
3650	0.9224
3641	0.9239
3632	0.927
3623	0.9285
3614	0.9285
3605	0.9277
3596	0.9272
3587	0.9266
3578	0.9263
3569	0.9243
3560	0.924
3551	0.9251
3542	0.9248
3533	0.9244
3524	0.9228
3515	0.9228
3506	0.9226
3497	0.9225
3488	0.9225
3479	0.9223
3470	0.9222
3461	0.9219
3452	0.9218
3443	0.9219
3434	0.922
3425	0.9208
3416	0.9222
3407	0.9231
3398	0.9224
3389	0.9225
3380	0.9227
3371	0.9229
3362	0.9231
3353	0.9233
3344	0.925
3335	0.9232
3326	0.9231
3317	0.9229
3308	0.9241
3299	0.9228
3290	0.9232
3281	0.9236
3272	0.9256
3263	0.9254
3254	0.925
3245	0.923
3236	0.9163
3227	0.9015
3218	0.9009
3209	0.904
3200	0.9061
3191	0.9103
3182	0.9104
3173	0.9104
3164	0.9094
3155	0.9042
3146	0.8965
3137	0.8889
3128	0.8772
3119	0.8704
3110	0.8729
3101	0.8398
3092	0.7274
3083	0.7855
3074	0.8158
3065	0.7532
3056	0.7451
3047	0.7799
3038	0.8205
3029	0.8292
3020	0.8284
3011	0.8161
3002	0.7939
2993	0.7766
2984	0.7801
2975	0.7799
2966	0.7625
2957	0.7391
2948	0.7443
2939	0.7536
2930	0.7283
2921	0.791
2912	0.8164
2903	0.8289
2894	0.833
2885	0.829
2876	0.8086
2867	0.7323
2858	0.7117
2849	0.8213
2840	0.8642
2831	0.885
2822	0.8935
2813	0.8954
2804	0.8984
2795	0.9012
2786	0.904
2777	0.9095
2768	0.9131
2759	0.9148
2750	0.9156
2741	0.9075
2732	0.9087
2723	0.9127
2714	0.9058
2705	0.8985
2696	0.907
2687	0.9152
2678	0.9197
2669	0.9223
2660	0.9243
2651	0.9261
2642	0.9164
2633	0.9097
2624	0.9139
2615	0.9106
2606	0.9122
2597	0.9155
2588	0.9184
2579	0.9208
2570	0.9239
2561	0.9268
2552	0.9297
2543	0.9316
2534	0.932
2525	0.928
2516	0.9224
2507	0.9234
2498	0.9253
2489	0.9257
2480	0.9263
2471	0.9176
2462	0.8165
2453	0.8253
2444	0.9058
2435	0.9129
2426	0.9157
2417	0.917
2408	0.9195
2399	0.9215
2390	0.9178
2381	0.9165
2372	0.9257
2363	0.9295
2354	0.9401
2345	0.9456
2336	0.9439
2327	0.9467
2318	0.9398
2309	0.9298
2300	0.9001
2291	0.9166
2282	0.9296
2273	0.9311
2264	0.9313
2255	0.9332
2246	0.9343
2237	0.9338
2228	0.9229
2219	0.9134
2210	0.9191
2201	0.9228
2192	0.925
2183	0.9282
2174	0.9281
2165	0.929
2156	0.9323
2147	0.9354
2138	0.9333
2129	0.9314
2120	0.9316
2111	0.9313
2102	0.9309
2093	0.9308
2084	0.9309
2075	0.9309
2066	0.9312
2057	0.9319
2048	0.932
2039	0.9325
2030	0.9327
2021	0.9345
2012	0.9355
2003	0.9333
1994	0.9142
1985	0.9129
1976	0.9148
1967	0.9109
1958	0.8878
1949	0.9051
1940	0.9118
1931	0.9058
1922	0.819
1913	0.8279
1904	0.8884
1895	0.9037
1886	0.9067
1877	0.909
1868	0.9091
1859	0.9096
1850	0.9112
1841	0.9136
1832	0.9128
1823	0.9131
1814	0.9145
1805	0.9113
1796	0.8723
1787	0.8588
1778	0.8764
1769	0.8977
1760	0.909
1751	0.9137
1742	0.9116
1733	0.9048
1724	0.8905
1715	0.8937
1706	0.8978
1697	0.8603
1688	0.8849
1679	0.8864
1670	0.8436
1661	0.8077
1652	0.8353
1643	0.8461
1634	0.8375
1625	0.8195
1616	0.7815
1607	0.1642
1598	0.1859
1589	0.5921
1580	0.6593
1571	0.554
1562	0.5425
1553	0.5502
1544	0.4733
1535	0.1882
1526	0.0006
1517	0.0234
1508	0.3427
1499	0.3539
1490	0.5283
1481	0.7072
1472	0.5715
1463	0.6179
1454	0.6998
1445	0.6986
1436	0.7358
1427	0.7695
1418	0.6826
1409	0.7728
1400	0.7786
1391	0.771
1382	0.5348
1373	0.5942
1364	0.2491
1355	0.1915
1346	0.0007
1337	0.1828
1328	0.5037
1319	0.3707
1310	0.6693
1301	0.7761
1292	0.6887
1283	0.7442
1274	0.8384
1265	0.8819
1256	0.8991
1247	0.902
1238	0.8725
1229	0.8955
1220	0.9098
1211	0.7444
1202	0.8573
1193	0.8695
1184	0.8653
1175	0.5573
1166	0.8669
1157	0.9059
1148	0.9172
1139	0.9119
1130	0.9156
1121	0.8905
1112	0.1606
1103	0.6861
1094	0.8318
1085	0.8245
1076	0.8757
1067	0.8863
1058	0.8823
1049	0.8427
1040	0.7497
1031	0.7884
1022	0.8192
1013	0.8011
1004	0.8864
995	0.8933
986	0.8952
977	0.8919
968	0.8707
959	0.8584
950	0.8278
941	0.8923
932	0.9052
923	0.9076
914	0.9111
905	0.9131
896	0.9155
887	0.9169
878	0.8988
869	0.847
860	0.0763
851	0.7472
842	0.1727
833	0.4226
824	0.739
815	0.8447
806	0.8894
797	0.8927
788	0.4895
779	0.8809
770	0.9102
761	0.899
752	0.8606
743	0.1523
734	0.4242
725	0.8441
716	0.8924
707	0.9127
698	0.9202
689	0.9106
680	0.5835
671	0.8944
662	0.9153
653	0.887
644	0.8953
635	0.901
626	0.8848
617	0.4496
608	0.8538
599	0.9275
590	0.9365
581	0.9414
572	0.9459
563	0.9471
554	0.9483
545	0.9432
536	0.92
527	0.8935
518	0.8956
509	0.9072
500	0.9127
491	0.9047
482	0.8788
473	0.794
464	0.6062
455	0.6973
446	0.7826
437	0.7985
428	0.7966
419	0.7651
410	0.6803
401	0.55
392	0.4569
383	0.3852
