Infrared Spectrum: p-AMINOACETOPHENONE
Formula: C8 H9 N O
CAS: 99-92-3
State: SOLID (NUJOL MULL)
Melting point: 106 C
Class: COBLENTZ III
Instrument: BECKMAN IR-7 (GRATING)
Instrument parameters: GRATING CHANGES AT 3000, 2200, 1150 CM^-^1
Sampling: TRANSMISSION
Resolution: 4
Origin: WESTERN REGIONAL RES. USDA
1/CM	TRANSMITTANCE
600.649	0.461
609.74	0.509
618.831	0.518
627.922	0.512
637.013	0.511
646.104	0.521
655.194	0.543
664.285	0.578
673.376	0.619
682.467	0.666
691.558	0.635
700.649	0.615
709.74	0.629
718.831	0.639
727.922	0.666
737.013	0.671
746.104	0.697
755.194	0.718
764.285	0.732
773.376	0.744
782.467	0.758
791.558	0.766
800.649	0.769
809.74	0.759
818.831	0.497
827.922	0.696
837.013	0.3601
846.104	0.4889
855.194	0.698
864.285	0.726
873.376	0.728
882.467	0.736
891.558	0.73
900.649	0.728
909.74	0.718
918.831	0.701
927.922	0.684
937.013	0.649
946.104	0.616
955.194	0.445
964.285	0.579
973.376	0.658
982.467	0.699
991.558	0.694
1000.65	0.68
1009.74	0.665
1018.83	0.646
1027.92	0.63
1037.01	0.631
1046.1	0.626
1055.19	0.608
1064.29	0.561
1073.38	0.5559
1082.47	0.608
1091.56	0.6
1100.65	0.594
1109.74	0.581
1118.83	0.569
1127.92	0.527
1137.01	0.513
1146.1	0.53
1155.19	0.512
1164.29	0.45
1173.38	0.258
1182.47	0.6349
1191.56	0.707
1200.65	0.638
1209.74	0.591
1218.83	0.553
1227.92	0.503
1237.01	0.475
1246.1	0.421
1255.19	0.35
1264.29	0.26
1273.38	0.121
1282.47	0.095
1291.56	0.477
1300.65	0.2051
1309.74	0.38
1318.83	0.633
1327.92	0.725
1337.01	0.654
1346.1	0.5371
1355.19	0.296
1364.29	0.3709
1373.38	0.466
1382.47	0.59
1391.56	0.677
1400.65	0.664
1409.74	0.621
1418.83	0.563
1427.92	0.458
1437.01	0.3
1446.1	0.407
1455.19	0.371
1464.29	0.362
1473.38	0.488
1482.47	0.516
1491.56	0.497
1500.65	0.422
1509.74	0.3169
1518.83	0.46
1527.92	0.416
1537.01	0.351
1546.1	0.29
1555.19	0.189
1564.29	0.163
1573.38	0.206
1582.47	0.067
1591.56	0.098
1600.65	0.24
1609.74	0.482
1618.83	0.556
1627.92	0.362
1637.01	0.129
1646.1	0.122
1655.19	0.163
1664.29	0.507
1673.38	0.689
1682.47	0.784
1691.56	0.826
1700.65	0.849
1709.74	0.867
1718.83	0.872
1727.92	0.873
1737.01	0.862
1746.1	0.856
1755.19	0.851
1764.29	0.856
1773.38	0.855
1782.47	0.852
1791.56	0.848
1800.65	0.845
1809.74	0.84
1818.83	0.837
1827.92	0.832
1837.01	0.824
1846.1	0.82
1855.19	0.816
1864.29	0.809
1873.38	0.804
1882.47	0.797
1891.56	0.802
1900.65	0.798
1909.74	0.789
1918.83	0.782
1927.92	0.781
1937.01	0.768
1946.1	0.763
1955.19	0.766
1964.29	0.759
1973.38	0.754
1982.47	0.754
1991.56	0.752
2000.65	0.7487
2009.74	0.748
2018.83	0.746
2027.92	0.745
2037.01	0.744
2046.1	0.743
2055.19	0.743
2064.29	0.743
2073.38	0.743
2082.47	0.745
2091.56	0.745
2100.65	0.7446
2109.74	0.743
2118.83	0.741
2127.92	0.7399
2137.01	0.739
2146.1	0.737
2155.19	0.736
2164.29	0.736
2173.38	0.7351
2182.47	0.7335
2191.56	0.7266
2200.65	0.6985
2209.74	0.6786
2218.83	0.675
2227.92	0.674
2237.01	0.673
2246.1	0.672
2255.19	0.672
2264.29	0.6704
2273.38	0.6679
2282.47	0.6643
2291.56	0.6588
2300.65	0.6572
2309.74	0.6536
2318.83	0.6511
2327.92	0.6485
2337.01	0.6459
2346.1	0.6434
2355.19	0.6418
2364.29	0.6392
2373.38	0.6377
2382.47	0.6351
2391.56	0.633
2400.65	0.632
2409.74	0.631
2418.83	0.6289
2427.92	0.626
2437.01	0.6237
2446.1	0.622
2455.19	0.621
2464.29	0.6191
2473.38	0.6185
2482.47	0.6149
2491.56	0.6114
2500.65	0.6088
2509.74	0.6052
2518.83	0.603
2527.92	0.6011
2537.01	0.5986
2546.1	0.594
2555.19	0.5889
2564.29	0.5869
2573.38	0.5843
2582.47	0.5818
2591.56	0.5782
2600.65	0.577
2609.74	0.5701
2618.83	0.5655
2627.92	0.563
2637.01	0.5594
2646.1	0.5558
2655.19	0.5523
2664.29	0.55
2673.38	0.5481
2682.47	0.5466
2691.56	0.545
2700.65	0.543
2709.74	0.544
2718.83	0.545
2727.92	0.5462
2737.01	0.5478
2746.1	0.5494
2755.19	0.5491
2764.29	0.5485
2773.38	0.5459
2782.47	0.5411
2791.56	0.5376
2800.65	0.5305
2809.74	0.524
2818.83	0.5126
2827.92	0.4796
2837.01	0.2567
2846.1	0.141
2855.19	0.1642
2864.29	0.1981
2873.38	0.2047
2882.47	0.1943
2891.56	0.1605
2900.65	0.1177
2909.74	0.082
2918.83	0.0529
2927.92	0.057
2937.01	0.0827
2946.1	0.0878
2955.19	0.0764
2964.29	0.0861
2973.38	0.1519
2982.47	0.235
2991.56	0.2947
3000.65	0.3446
3009.74	0.3607
3018.83	0.375
3027.92	0.3796
3037.01	0.3834
3046.1	0.384
3055.19	0.384
3064.29	0.383
3073.38	0.3814
3082.47	0.3788
3091.56	0.377
3100.65	0.3744
3109.74	0.3691
3118.83	0.3613
3127.92	0.356
3137.01	0.3524
3146.1	0.3414
3155.19	0.3296
3164.29	0.3125
3173.38	0.2911
3182.47	0.2694
3191.56	0.2445
3200.65	0.2155
3209.74	0.1803
3218.83	0.1425
3227.92	0.1517
3237.01	0.2055
3246.1	0.2811
3255.19	0.3502
3264.29	0.3623
3273.38	0.346
3282.47	0.3139
3291.56	0.2818
3300.65	0.2471
3309.74	0.2072
3318.83	0.1635
3327.92	0.136
3337.01	0.1687
3346.1	0.2654
3355.19	0.3481
3364.29	0.3972
3373.38	0.3882
3382.47	0.3379
3391.56	0.2691
3400.65	0.2795
3409.74	0.3502
3418.83	0.406
3427.92	0.4696
3437.01	0.5031
3446.1	0.5247
3455.19	0.5335
3464.29	0.5398
3473.38	0.54
3482.47	0.538
3491.56	0.536
3500.65	0.5349
3509.74	0.5314
3518.83	0.5268
3527.92	0.5225
3537.01	0.521
3546.1	0.52
3555.19	0.518
3564.29	0.516
3573.38	0.5124
3582.47	0.5089
3591.56	0.5046
3600.65	0.5018
3609.74	0.4992
3618.83	0.4976
3627.92	0.4961
3637.01	0.494
3646.1	0.49
3655.19	0.4874
3664.29	0.4838
3673.38	0.4813
3682.47	0.481
3691.56	0.4791
3700.65	0.4761
3709.74	0.472
3718.83	0.47
3727.92	0.4699
3737.01	0.4673
3746.1	0.466
3755.19	0.4632
3764.29	0.4616
3773.38	0.4601
3782.47	0.4585
3791.56	0.456
3800.65	0.454
3809.74	0.452
3818.83	0.4512
3827.92	0.45
3837.01	0.449
3846.1	0.447
3855.19	0.445
3864.29	0.442
3873.38	0.441
3882.47	0.4393
3891.56	0.4387
3900.65	0.438
3909.74	0.436
3918.83	0.4351
3927.92	0.434
3937.01	0.4339
3946.1	0.432
3955.19	0.431
3964.29	0.43
3973.38	0.429
3982.47	0.429
3991.56	0.427
