Infrared Spectrum: IMIDAZOLE-5(4)-SULFONANILIDE, 4(5)-BROMO-
Formula: C9 H8 Br N3 O2 S
CAS: 99903-07-8
State: SOLID (1.0 mg / 650 mg KBr DISC)
Class: COBLENTZ III
Instrument: PERKIN-ELMER 21 (GRATING)
Instrument parameters: FILTER CHANGE ABOUT 1070 CM^-^1
Sampling: TRANSMISSION
Resolution: 4
Origin: SOUTHERN RESEARCH INSTITUTE
1/CM	TRANSMITTANCE
618.325	0.432
626.804	0.4704
635.283	0.5378
643.762	0.553
652.242	0.5595
660.721	0.6409
669.2	0.696
677.679	0.5884
686.158	0.3202
694.637	0.2086
703.116	0.6271
711.595	0.8097
720.075	0.837
728.554	0.8219
737.033	0.6865
745.512	0.4727
753.991	0.3775
762.47	0.793
770.949	0.7765
779.428	0.7476
787.908	0.7046
796.387	0.6932
804.866	0.6773
813.345	0.6584
821.824	0.6449
830.303	0.6014
838.782	0.5482
847.261	0.6406
855.741	0.7733
864.22	0.7402
872.699	0.6896
881.178	0.5701
889.657	0.4633
898.136	0.4966
906.615	0.5101
915.094	0.3311
923.574	0.354
932.053	0.4712
940.532	0.3888
949.011	0.3406
957.49	0.76
965.969	0.8105
974.448	0.827
982.927	0.8087
991.407	0.7627
999.886	0.666
1008.36	0.4955
1016.84	0.4084
1025.32	0.4912
1033.8	0.7494
1042.28	0.762
1050.76	0.749
1059.24	0.7184
1067.72	0.69
1076.2	0.7042
1084.68	0.7008
1093.16	0.6706
1101.64	0.622
1110.11	0.5374
1118.59	0.3573
1127.07	0.1751
1135.55	0.2066
1144.03	0.1651
1152.51	0.1884
1160.99	0.2885
1169.47	0.442
1177.95	0.6089
1186.43	0.5567
1194.91	0.4463
1203.38	0.1945
1211.86	0.1852
1220.34	0.423
1228.82	0.467
1237.3	0.468
1245.78	0.6623
1254.26	0.687
1262.74	0.694
1271.22	0.588
1279.7	0.6706
1288.18	0.6481
1296.66	0.5519
1305.13	0.426
1313.61	0.5038
1322.09	0.5193
1330.57	0.3508
1339.05	0.16
1347.53	0.2653
1356.01	0.7094
1364.49	0.8076
1372.97	0.7841
1381.45	0.6953
1389.93	0.5579
1398.4	0.4074
1406.88	0.3625
1415.36	0.5538
1423.84	0.664
1432.32	0.6729
1440.8	0.7677
1449.28	0.718
1457.76	0.5836
1466.24	0.3308
1474.72	0.2503
1483.2	0.3793
1491.68	0.294
1500.15	0.63
1508.63	0.6047
1517.11	0.6034
1525.59	0.6549
1534.07	0.732
1542.55	0.7679
1551.03	0.8265
1559.51	0.8341
1567.99	0.8143
1576.47	0.769
1584.95	0.584
1593.42	0.5921
1601.9	0.8123
1610.38	0.8131
1618.86	0.819
1627.34	0.8329
1635.82	0.8398
1644.3	0.8468
1652.78	0.853
1661.26	0.847
1669.74	0.8413
1678.22	0.8354
1686.7	0.8245
1695.17	0.8264
1703.65	0.836
1712.13	0.831
1720.61	0.814
1729.09	0.8038
1737.57	0.7978
1746.05	0.7848
1754.53	0.7727
1763.01	0.761
1771.49	0.7511
1779.97	0.7401
1788.44	0.7284
1796.92	0.721
1805.4	0.722
1813.88	0.7234
1822.36	0.726
1830.84	0.7351
1839.32	0.743
1847.8	0.7514
1856.28	0.7634
1864.76	0.775
1873.24	0.7862
1881.72	0.797
1890.19	0.8102
1898.67	0.8191
1907.15	0.831
1915.63	0.8379
1924.11	0.836
1932.59	0.841
1941.07	0.842
1949.55	0.8461
1958.03	0.8556
1966.51	0.8662
1974.99	0.8725
1983.46	0.8789
1991.94	0.8824
2000.42	0.884
2008.9	0.884
2017.38	0.8827
2025.86	0.882
2034.34	0.881
2042.82	0.881
2051.3	0.8777
2059.78	0.8753
2068.26	0.876
2076.73	0.8703
2085.21	0.87
2093.69	0.867
2102.17	0.863
2110.65	0.859
2119.13	0.854
2127.61	0.849
2136.09	0.8467
2144.57	0.836
2153.05	0.832
2161.53	0.8283
2170.01	0.825
2178.48	0.8173
2186.96	0.8073
2195.44	0.799
2203.92	0.795
2212.4	0.7823
2220.88	0.776
2229.36	0.7666
2237.84	0.755
2246.32	0.751
2254.8	0.7483
2263.28	0.7313
2271.75	0.7227
2280.23	0.7146
2288.71	0.7003
2297.19	0.685
2305.67	0.6663
2314.15	0.639
2322.63	0.629
2331.11	0.622
2339.59	0.6143
2348.07	0.603
2356.55	0.602
2365.03	0.6
2373.5	0.5917
2381.98	0.5853
2390.46	0.571
2398.94	0.5563
2407.42	0.5467
2415.9	0.538
2424.38	0.533
2432.86	0.5287
2441.34	0.528
2449.82	0.5227
2458.3	0.517
2466.77	0.5076
2475.25	0.4916
2483.73	0.4663
2492.21	0.4537
2500.69	0.4437
2509.17	0.4316
2517.65	0.425
2526.13	0.425
2534.61	0.4263
2543.09	0.4257
2551.57	0.4197
2560.05	0.416
2568.52	0.4137
2577	0.407
2585.48	0.4033
2593.96	0.3967
2602.44	0.4003
2610.92	0.4107
2619.4	0.4261
2627.88	0.4423
2636.36	0.448
2644.84	0.4427
2653.32	0.44
2661.79	0.438
2670.27	0.437
2678.75	0.4343
2687.23	0.429
2695.71	0.425
2704.19	0.426
2712.67	0.426
2721.15	0.425
2729.63	0.4207
2738.11	0.4053
2746.59	0.3957
2755.07	0.3843
2763.54	0.3757
2772.02	0.376
2780.5	0.3897
2788.98	0.4301
2797.46	0.4614
2805.94	0.4774
2814.42	0.484
2822.9	0.475
2831.38	0.4533
2839.86	0.4407
2848.34	0.4387
2856.81	0.4504
2865.29	0.4718
2873.77	0.4967
2882.25	0.519
2890.73	0.5541
2899.21	0.5767
2907.69	0.572
2916.17	0.5527
2924.65	0.5323
2933.13	0.5043
2941.61	0.4623
2950.09	0.4467
2958.56	0.442
2967.04	0.451
2975.52	0.476
2984	0.496
2992.48	0.51
3000.96	0.5083
3009.44	0.5023
3017.92	0.4916
3026.4	0.475
3034.88	0.4623
3043.36	0.455
3051.83	0.456
3060.31	0.4633
3068.79	0.4753
3077.27	0.4873
3085.75	0.4993
3094.23	0.507
3102.71	0.5113
3111.19	0.511
3119.67	0.51
3128.15	0.507
3136.63	0.497
3145.11	0.4756
3153.58	0.442
3162.06	0.3939
3170.54	0.3447
3179.02	0.2906
3187.5	0.2456
3195.98	0.2226
3204.46	0.2107
3212.94	0.2243
3221.42	0.2554
3229.9	0.2964
3238.38	0.3491
3246.85	0.3934
3255.33	0.4211
3263.81	0.4552
3272.29	0.5027
3280.77	0.5458
3289.25	0.584
3297.73	0.6214
3306.21	0.6473
3314.69	0.6724
3323.17	0.6923
3331.65	0.698
3340.12	0.7
3348.6	0.7
3357.08	0.7
3365.56	0.701
3374.04	0.7033
3382.52	0.705
3391	0.7053
3399.48	0.709
3407.96	0.7113
3416.44	0.716
3424.92	0.7187
3433.4	0.7233
3441.87	0.73
3450.35	0.736
3458.83	0.7433
3467.31	0.7507
3475.79	0.7557
3484.27	0.7673
3492.75	0.7783
3501.23	0.79
3509.71	0.7913
3518.19	0.7953
3526.67	0.8033
3535.14	0.8137
3543.62	0.8253
3552.1	0.832
3560.58	0.843
3569.06	0.8507
3577.54	0.8593
3586.02	0.87
3594.5	0.876
3602.98	0.888
3611.46	0.89
3619.94	0.8907
3628.42	0.894
3636.89	0.899
3645.37	0.9
3653.85	0.9
3662.33	0.9033
3670.81	0.905
3679.29	0.906
3687.77	0.904
3696.25	0.901
3704.73	0.9
3713.21	0.9
3721.69	0.901
3730.16	0.903
3738.64	0.901
3747.12	0.903
3755.6	0.907
3764.08	0.906
3772.56	0.9057
3781.04	0.9037
3789.52	0.903
3798	0.9023
3806.48	0.901
3814.96	0.898
3823.44	0.896
3831.91	0.895
3840.39	0.895
3848.87	0.895
3857.35	0.894
3865.83	0.892
3874.31	0.8927
3882.79	0.893
3891.27	0.893
3899.75	0.893
